MODEL 1
REMARK VINA RESULT:      -7.6      0.000      0.000
REMARK  Name = 
REMARK  12 active torsions:
REMARK  status: ('A' for Active; 'I' for Inactive)
REMARK    1  A    between atoms: C_1  and  C_2
REMARK    2  A    between atoms: C_2  and  C_3
REMARK    3  A    between atoms: C_2  and  N_4
REMARK    4  A    between atoms: C_5  and  C_7
REMARK    5  A    between atoms: C_7  and  N_8
REMARK    6  A    between atoms: C_15  and  O_16
REMARK    7  A    between atoms: O_16  and  C_17
REMARK    8  A    between atoms: C_17  and  C_18
REMARK    9  A    between atoms: C_22  and  O_24
REMARK   10  A    between atoms: O_24  and  C_25
REMARK   11  A    between atoms: C_25  and  C_26
REMARK   12  A    between atoms: C_25  and  C_27
REMARK                            x       y       z     vdW  Elec       q    Type
REMARK                         _______ _______ _______ _____ _____    ______ ____
ROOT
ATOM      1  N   UNL     1       7.038   5.352  16.437  0.00  0.00    +0.000 NA
ATOM      2  C   UNL     1       5.890   6.214  16.053  0.00  0.00    +0.000 C 
ATOM      3  C   UNL     1       4.512   5.705  16.512  0.00  0.00    +0.000 C 
ATOM      4  N   UNL     1       4.506   5.405  17.949  0.00  0.00    +0.000 N 
ATOM      5  C   UNL     1       3.583   5.984  18.793  0.00  0.00    +0.000 A 
ATOM      6  C   UNL     1       3.190   5.336  19.965  0.00  0.00    +0.000 A 
ATOM      7  C   UNL     1       2.243   5.903  20.821  0.00  0.00    +0.000 A 
ATOM      8  C   UNL     1       1.698   7.137  20.508  0.00  0.00    +0.000 A 
ATOM      9  C   UNL     1       2.117   7.719  19.324  0.00  0.00    +0.000 A 
ATOM     10  N   UNL     1       3.031   7.178  18.479  0.00  0.00    +0.000 NA
ATOM     11  C   UNL     1       5.616   4.597  18.448  0.00  0.00    +0.000 C 
ATOM     12  C   UNL     1       6.964   5.125  17.899  0.00  0.00    +0.000 C 
ENDROOT
BRANCH   1  13
ATOM     13  C   UNL     1       6.992   4.067  15.709  0.00  0.00    +0.000 C 
BRANCH  13  15
ATOM     14  N   UNL     1       6.210   3.395  13.500  0.00  0.00    +0.000 N 
ATOM     15  C   UNL     1       6.940   4.333  14.208  0.00  0.00    +0.000 C 
ATOM     16  O   UNL     1       7.477   5.312  13.692  0.00  0.00    +0.000 OA
ATOM     17  H   UNL     1       6.010   2.536  14.001  0.00  0.00    +0.000 HD
BRANCH  14  19
ATOM     18  C   UNL     1       6.933   2.329  11.391  0.00  0.00    +0.000 C 
ATOM     19  C   UNL     1       6.099   3.428  12.049  0.00  0.00    +0.000 C 
ATOM     20  C   UNL     1       4.637   3.307  11.630  0.00  0.00    +0.000 C 
ENDBRANCH  14  19
ENDBRANCH  13  15
ENDBRANCH   1  13
BRANCH   8  21
ATOM     21  O   UNL     1       0.751   7.799  21.235  0.00  0.00    +0.000 OA
BRANCH  21  22
ATOM     22  C   UNL     1       0.900   9.220  21.302  0.00  0.00    +0.000 C 
BRANCH  22  23
ATOM     23  C   UNL     1      -0.453   9.886  20.988  0.00  0.00    +0.000 C 
ATOM     24  C   UNL     1      -0.541  10.325  19.514  0.00  0.00    +0.000 C 
ATOM     25  C   UNL     1       0.307  11.563  19.214  0.00  0.00    +0.000 C 
ATOM     26  N   UNL     1       0.002  12.637  20.152  0.00  0.00    +0.000 N 
ATOM     27  C   UNL     1      -0.316  13.898  19.668  0.00  0.00    +0.000 C 
ATOM     28  O   UNL     1      -0.334  14.178  18.475  0.00  0.00    +0.000 OA
ATOM     29  C   UNL     1       0.125  12.305  21.568  0.00  0.00    +0.000 C 
ATOM     30  C   UNL     1      -0.739  11.091  21.909  0.00  0.00    +0.000 C 
BRANCH  27  31
ATOM     31  O   UNL     1      -0.618  14.788  20.654  0.00  0.00    +0.000 OA
BRANCH  31  32
ATOM     32  C   UNL     1      -2.014  15.123  20.797  0.00  0.00    +0.000 C 
ATOM     33  C   UNL     1      -2.449  14.979  22.253  0.00  0.00    +0.000 C 
ATOM     34  C   UNL     1      -2.193  16.569  20.346  0.00  0.00    +0.000 C 
ENDBRANCH  31  32
ENDBRANCH  27  31
ENDBRANCH  22  23
ENDBRANCH  21  22
ENDBRANCH   8  21
TORSDOF 8
ENDMDL
MODEL 2
REMARK VINA RESULT:      -7.5      2.001     11.516
REMARK  Name = 
REMARK  12 active torsions:
REMARK  status: ('A' for Active; 'I' for Inactive)
REMARK    1  A    between atoms: C_1  and  C_2
REMARK    2  A    between atoms: C_2  and  C_3
REMARK    3  A    between atoms: C_2  and  N_4
REMARK    4  A    between atoms: C_5  and  C_7
REMARK    5  A    between atoms: C_7  and  N_8
REMARK    6  A    between atoms: C_15  and  O_16
REMARK    7  A    between atoms: O_16  and  C_17
REMARK    8  A    between atoms: C_17  and  C_18
REMARK    9  A    between atoms: C_22  and  O_24
REMARK   10  A    between atoms: O_24  and  C_25
REMARK   11  A    between atoms: C_25  and  C_26
REMARK   12  A    between atoms: C_25  and  C_27
REMARK                            x       y       z     vdW  Elec       q    Type
REMARK                         _______ _______ _______ _____ _____    ______ ____
ROOT
ATOM      1  N   UNL     1      -0.059  13.417  20.596  0.00  0.00    +0.000 NA
ATOM      2  C   UNL     1      -0.450  12.221  21.387  0.00  0.00    +0.000 C 
ATOM      3  C   UNL     1      -0.693  10.946  20.561  0.00  0.00    +0.000 C 
ATOM      4  N   UNL     1       0.441  10.661  19.674  0.00  0.00    +0.000 N 
ATOM      5  C   UNL     1       1.086   9.443  19.711  0.00  0.00    +0.000 A 
ATOM      6  C   UNL     1       1.734   8.949  18.578  0.00  0.00    +0.000 A 
ATOM      7  C   UNL     1       2.376   7.709  18.597  0.00  0.00    +0.000 A 
ATOM      8  C   UNL     1       2.384   6.966  19.765  0.00  0.00    +0.000 A 
ATOM      9  C   UNL     1       1.709   7.504  20.848  0.00  0.00    +0.000 A 
ATOM     10  N   UNL     1       1.075   8.704  20.844  0.00  0.00    +0.000 NA
ATOM     11  C   UNL     1       0.939  11.780  18.877  0.00  0.00    +0.000 C 
ATOM     12  C   UNL     1       1.102  13.044  19.756  0.00  0.00    +0.000 C 
ENDROOT
BRANCH   1  13
ATOM     13  C   UNL     1      -1.184  13.877  19.756  0.00  0.00    +0.000 C 
BRANCH  13  15
ATOM     14  N   UNL     1      -3.557  13.758  20.303  0.00  0.00    +0.000 N 
ATOM     15  C   UNL     1      -2.340  14.318  20.648  0.00  0.00    +0.000 C 
ATOM     16  O   UNL     1      -2.185  15.078  21.602  0.00  0.00    +0.000 OA
ATOM     17  H   UNL     1      -3.589  13.331  19.382  0.00  0.00    +0.000 HD
BRANCH  14  19
ATOM     18  C   UNL     1      -5.958  14.252  20.001  0.00  0.00    +0.000 C 
ATOM     19  C   UNL     1      -4.796  14.104  20.982  0.00  0.00    +0.000 C 
ATOM     20  C   UNL     1      -5.125  13.058  22.042  0.00  0.00    +0.000 C 
ENDBRANCH  14  19
ENDBRANCH  13  15
ENDBRANCH   1  13
BRANCH   8  21
ATOM     21  O   UNL     1       2.949   5.734  19.924  0.00  0.00    +0.000 OA
BRANCH  21  22
ATOM     22  C   UNL     1       2.488   4.717  19.029  0.00  0.00    +0.000 C 
BRANCH  22  23
ATOM     23  C   UNL     1       3.563   3.620  18.913  0.00  0.00    +0.000 C 
ATOM     24  C   UNL     1       4.961   4.156  19.279  0.00  0.00    +0.000 C 
ATOM     25  C   UNL     1       5.551   5.058  18.193  0.00  0.00    +0.000 C 
ATOM     26  N   UNL     1       5.511   4.398  16.894  0.00  0.00    +0.000 N 
ATOM     27  C   UNL     1       6.668   4.317  16.132  0.00  0.00    +0.000 C 
ATOM     28  O   UNL     1       7.741   4.797  16.480  0.00  0.00    +0.000 OA
ATOM     29  C   UNL     1       4.202   3.919  16.459  0.00  0.00    +0.000 C 
ATOM     30  C   UNL     1       3.600   2.985  17.508  0.00  0.00    +0.000 C 
BRANCH  27  31
ATOM     31  O   UNL     1       6.492   3.637  14.965  0.00  0.00    +0.000 OA
BRANCH  31  32
ATOM     32  C   UNL     1       6.328   4.447  13.781  0.00  0.00    +0.000 C 
ATOM     33  C   UNL     1       7.676   4.996  13.323  0.00  0.00    +0.000 C 
ATOM     34  C   UNL     1       5.734   3.561  12.691  0.00  0.00    +0.000 C 
ENDBRANCH  31  32
ENDBRANCH  27  31
ENDBRANCH  22  23
ENDBRANCH  21  22
ENDBRANCH   8  21
TORSDOF 8
ENDMDL
MODEL 3
REMARK VINA RESULT:      -7.5      1.662     11.728
REMARK  Name = 
REMARK  12 active torsions:
REMARK  status: ('A' for Active; 'I' for Inactive)
REMARK    1  A    between atoms: C_1  and  C_2
REMARK    2  A    between atoms: C_2  and  C_3
REMARK    3  A    between atoms: C_2  and  N_4
REMARK    4  A    between atoms: C_5  and  C_7
REMARK    5  A    between atoms: C_7  and  N_8
REMARK    6  A    between atoms: C_15  and  O_16
REMARK    7  A    between atoms: O_16  and  C_17
REMARK    8  A    between atoms: C_17  and  C_18
REMARK    9  A    between atoms: C_22  and  O_24
REMARK   10  A    between atoms: O_24  and  C_25
REMARK   11  A    between atoms: C_25  and  C_26
REMARK   12  A    between atoms: C_25  and  C_27
REMARK                            x       y       z     vdW  Elec       q    Type
REMARK                         _______ _______ _______ _____ _____    ______ ____
ROOT
ATOM      1  N   UNL     1      -0.016  12.634  20.895  0.00  0.00    +0.000 NA
ATOM      2  C   UNL     1      -0.291  11.273  21.425  0.00  0.00    +0.000 C 
ATOM      3  C   UNL     1      -0.433  10.175  20.356  0.00  0.00    +0.000 C 
ATOM      4  N   UNL     1       0.711  10.176  19.435  0.00  0.00    +0.000 N 
ATOM      5  C   UNL     1       1.459   9.038  19.228  0.00  0.00    +0.000 A 
ATOM      6  C   UNL     1       2.133   8.842  18.022  0.00  0.00    +0.000 A 
ATOM      7  C   UNL     1       2.881   7.685  17.791  0.00  0.00    +0.000 A 
ATOM      8  C   UNL     1       2.968   6.725  18.785  0.00  0.00    +0.000 A 
ATOM      9  C   UNL     1       2.264   6.971  19.952  0.00  0.00    +0.000 A 
ATOM     10  N   UNL     1       1.528   8.087  20.187  0.00  0.00    +0.000 NA
ATOM     11  C   UNL     1       1.099  11.473  18.884  0.00  0.00    +0.000 C 
ATOM     12  C   UNL     1       1.162  12.542  20.002  0.00  0.00    +0.000 C 
ENDROOT
BRANCH   1  13
ATOM     13  C   UNL     1      -1.187  13.154  20.160  0.00  0.00    +0.000 C 
BRANCH  13  15
ATOM     14  N   UNL     1      -1.635  15.547  20.034  0.00  0.00    +0.000 N 
ATOM     15  C   UNL     1      -1.694  14.423  20.839  0.00  0.00    +0.000 C 
ATOM     16  O   UNL     1      -2.138  14.426  21.985  0.00  0.00    +0.000 OA
ATOM     17  H   UNL     1      -1.055  15.455  19.206  0.00  0.00    +0.000 HD
BRANCH  14  19
ATOM     18  C   UNL     1      -0.773  17.736  20.787  0.00  0.00    +0.000 C 
ATOM     19  C   UNL     1      -2.002  16.870  20.516  0.00  0.00    +0.000 C 
ATOM     20  C   UNL     1      -2.926  17.557  19.515  0.00  0.00    +0.000 C 
ENDBRANCH  14  19
ENDBRANCH  13  15
ENDBRANCH   1  13
BRANCH   8  21
ATOM     21  O   UNL     1       3.641   5.541  18.694  0.00  0.00    +0.000 OA
BRANCH  21  22
ATOM     22  C   UNL     1       5.034   5.590  19.019  0.00  0.00    +0.000 C 
BRANCH  22  23
ATOM     23  C   UNL     1       5.742   4.372  18.395  0.00  0.00    +0.000 C 
ATOM     24  C   UNL     1       7.052   4.777  17.692  0.00  0.00    +0.000 C 
ATOM     25  C   UNL     1       6.813   5.505  16.368  0.00  0.00    +0.000 C 
ATOM     26  N   UNL     1       5.916   4.739  15.512  0.00  0.00    +0.000 N 
ATOM     27  C   UNL     1       6.291   4.458  14.205  0.00  0.00    +0.000 C 
ATOM     28  O   UNL     1       7.342   4.843  13.707  0.00  0.00    +0.000 OA
ATOM     29  C   UNL     1       4.628   4.374  16.096  0.00  0.00    +0.000 C 
ATOM     30  C   UNL     1       4.833   3.612  17.406  0.00  0.00    +0.000 C 
BRANCH  27  31
ATOM     31  O   UNL     1       5.376   3.701  13.538  0.00  0.00    +0.000 OA
BRANCH  31  32
ATOM     32  C   UNL     1       5.576   3.576  12.114  0.00  0.00    +0.000 C 
ATOM     33  C   UNL     1       6.468   2.377  11.807  0.00  0.00    +0.000 C 
ATOM     34  C   UNL     1       4.208   3.381  11.468  0.00  0.00    +0.000 C 
ENDBRANCH  31  32
ENDBRANCH  27  31
ENDBRANCH  22  23
ENDBRANCH  21  22
ENDBRANCH   8  21
TORSDOF 8
ENDMDL
MODEL 4
REMARK VINA RESULT:      -7.0      1.883      2.441
REMARK  Name = 
REMARK  12 active torsions:
REMARK  status: ('A' for Active; 'I' for Inactive)
REMARK    1  A    between atoms: C_1  and  C_2
REMARK    2  A    between atoms: C_2  and  C_3
REMARK    3  A    between atoms: C_2  and  N_4
REMARK    4  A    between atoms: C_5  and  C_7
REMARK    5  A    between atoms: C_7  and  N_8
REMARK    6  A    between atoms: C_15  and  O_16
REMARK    7  A    between atoms: O_16  and  C_17
REMARK    8  A    between atoms: C_17  and  C_18
REMARK    9  A    between atoms: C_22  and  O_24
REMARK   10  A    between atoms: O_24  and  C_25
REMARK   11  A    between atoms: C_25  and  C_26
REMARK   12  A    between atoms: C_25  and  C_27
REMARK                            x       y       z     vdW  Elec       q    Type
REMARK                         _______ _______ _______ _____ _____    ______ ____
ROOT
ATOM      1  N   UNL     1       6.885   5.525  16.469  0.00  0.00    +0.000 NA
ATOM      2  C   UNL     1       5.919   6.509  15.914  0.00  0.00    +0.000 C 
ATOM      3  C   UNL     1       4.444   6.237  16.256  0.00  0.00    +0.000 C 
ATOM      4  N   UNL     1       4.257   6.051  17.700  0.00  0.00    +0.000 N 
ATOM      5  C   UNL     1       3.354   6.817  18.405  0.00  0.00    +0.000 A 
ATOM      6  C   UNL     1       2.760   6.323  19.568  0.00  0.00    +0.000 A 
ATOM      7  C   UNL     1       1.831   7.081  20.283  0.00  0.00    +0.000 A 
ATOM      8  C   UNL     1       1.506   8.352  19.839  0.00  0.00    +0.000 A 
ATOM      9  C   UNL     1       2.118   8.778  18.671  0.00  0.00    +0.000 A 
ATOM     10  N   UNL     1       3.018   8.050  17.962  0.00  0.00    +0.000 NA
ATOM     11  C   UNL     1       5.183   5.135  18.362  0.00  0.00    +0.000 C 
ATOM     12  C   UNL     1       6.640   5.424  17.926  0.00  0.00    +0.000 C 
ENDROOT
BRANCH   1  13
ATOM     13  C   UNL     1       6.719   4.208  15.820  0.00  0.00    +0.000 C 
BRANCH  13  15
ATOM     14  N   UNL     1       6.014   3.462  13.609  0.00  0.00    +0.000 N 
ATOM     15  C   UNL     1       6.788   4.373  14.305  0.00  0.00    +0.000 C 
ATOM     16  O   UNL     1       7.449   5.259  13.767  0.00  0.00    +0.000 OA
ATOM     17  H   UNL     1       5.699   2.662  14.149  0.00  0.00    +0.000 HD
BRANCH  14  19
ATOM     18  C   UNL     1       6.809   2.223  11.625  0.00  0.00    +0.000 C 
ATOM     19  C   UNL     1       5.997   3.404  12.155  0.00  0.00    +0.000 C 
ATOM     20  C   UNL     1       4.561   3.331  11.647  0.00  0.00    +0.000 C 
ENDBRANCH  14  19
ENDBRANCH  13  15
ENDBRANCH   1  13
BRANCH   8  21
ATOM     21  O   UNL     1       0.603   9.195  20.420  0.00  0.00    +0.000 OA
BRANCH  21  22
ATOM     22  C   UNL     1       0.344  10.411  19.713  0.00  0.00    +0.000 C 
BRANCH  22  23
ATOM     23  C   UNL     1       0.400  11.592  20.701  0.00  0.00    +0.000 C 
ATOM     24  C   UNL     1       0.087  11.142  22.141  0.00  0.00    +0.000 C 
ATOM     25  C   UNL     1      -1.397  10.839  22.356  0.00  0.00    +0.000 C 
ATOM     26  N   UNL     1      -2.222  11.956  21.912  0.00  0.00    +0.000 N 
ATOM     27  C   UNL     1      -3.174  12.488  22.770  0.00  0.00    +0.000 C 
ATOM     28  O   UNL     1      -3.386  12.052  23.896  0.00  0.00    +0.000 OA
ATOM     29  C   UNL     1      -2.018  12.394  20.534  0.00  0.00    +0.000 C 
ATOM     30  C   UNL     1      -0.548  12.739  20.296  0.00  0.00    +0.000 C 
BRANCH  27  31
ATOM     31  O   UNL     1      -3.839  13.551  22.238  0.00  0.00    +0.000 OA
BRANCH  31  32
ATOM     32  C   UNL     1      -5.279  13.467  22.253  0.00  0.00    +0.000 C 
ATOM     33  C   UNL     1      -5.893  14.835  21.966  0.00  0.00    +0.000 C 
ATOM     34  C   UNL     1      -5.698  12.477  21.171  0.00  0.00    +0.000 C 
ENDBRANCH  31  32
ENDBRANCH  27  31
ENDBRANCH  22  23
ENDBRANCH  21  22
ENDBRANCH   8  21
TORSDOF 8
ENDMDL
MODEL 5
REMARK VINA RESULT:      -6.9      1.786     11.790
REMARK  Name = 
REMARK  12 active torsions:
REMARK  status: ('A' for Active; 'I' for Inactive)
REMARK    1  A    between atoms: C_1  and  C_2
REMARK    2  A    between atoms: C_2  and  C_3
REMARK    3  A    between atoms: C_2  and  N_4
REMARK    4  A    between atoms: C_5  and  C_7
REMARK    5  A    between atoms: C_7  and  N_8
REMARK    6  A    between atoms: C_15  and  O_16
REMARK    7  A    between atoms: O_16  and  C_17
REMARK    8  A    between atoms: C_17  and  C_18
REMARK    9  A    between atoms: C_22  and  O_24
REMARK   10  A    between atoms: O_24  and  C_25
REMARK   11  A    between atoms: C_25  and  C_26
REMARK   12  A    between atoms: C_25  and  C_27
REMARK                            x       y       z     vdW  Elec       q    Type
REMARK                         _______ _______ _______ _____ _____    ______ ____
ROOT
ATOM      1  N   UNL     1       0.425  13.167  21.070  0.00  0.00    +0.000 NA
ATOM      2  C   UNL     1       0.031  11.861  21.661  0.00  0.00    +0.000 C 
ATOM      3  C   UNL     1      -0.309  10.761  20.640  0.00  0.00    +0.000 C 
ATOM      4  N   UNL     1       0.762  10.605  19.648  0.00  0.00    +0.000 N 
ATOM      5  C   UNL     1       1.359   9.382  19.431  0.00  0.00    +0.000 A 
ATOM      6  C   UNL     1       1.922   9.078  18.190  0.00  0.00    +0.000 A 
ATOM      7  C   UNL     1       2.514   7.836  17.951  0.00  0.00    +0.000 A 
ATOM      8  C   UNL     1       2.558   6.898  18.967  0.00  0.00    +0.000 A 
ATOM      9  C   UNL     1       1.967   7.254  20.169  0.00  0.00    +0.000 A 
ATOM     10  N   UNL     1       1.382   8.454  20.414  0.00  0.00    +0.000 NA
ATOM     11  C   UNL     1       1.259  11.833  19.031  0.00  0.00    +0.000 C 
ATOM     12  C   UNL     1       1.521  12.916  20.106  0.00  0.00    +0.000 C 
ENDROOT
BRANCH   1  13
ATOM     13  C   UNL     1      -0.727  13.802  20.395  0.00  0.00    +0.000 C 
BRANCH  13  15
ATOM     14  N   UNL     1      -1.449  14.851  22.473  0.00  0.00    +0.000 N 
ATOM     15  C   UNL     1      -1.837  14.056  21.410  0.00  0.00    +0.000 C 
ATOM     16  O   UNL     1      -2.975  13.613  21.269  0.00  0.00    +0.000 OA
ATOM     17  H   UNL     1      -0.446  14.965  22.584  0.00  0.00    +0.000 HD
BRANCH  14  19
ATOM     18  C   UNL     1      -1.593  15.152  24.921  0.00  0.00    +0.000 C 
ATOM     19  C   UNL     1      -2.337  15.152  23.586  0.00  0.00    +0.000 C 
ATOM     20  C   UNL     1      -3.025  16.495  23.363  0.00  0.00    +0.000 C 
ENDBRANCH  14  19
ENDBRANCH  13  15
ENDBRANCH   1  13
BRANCH   8  21
ATOM     21  O   UNL     1       3.082   5.641  18.872  0.00  0.00    +0.000 OA
BRANCH  21  22
ATOM     22  C   UNL     1       4.487   5.533  19.121  0.00  0.00    +0.000 C 
BRANCH  22  23
ATOM     23  C   UNL     1       5.047   4.331  18.336  0.00  0.00    +0.000 C 
ATOM     24  C   UNL     1       6.570   4.447  18.131  0.00  0.00    +0.000 C 
ATOM     25  C   UNL     1       6.947   5.497  17.084  0.00  0.00    +0.000 C 
ATOM     26  N   UNL     1       6.217   5.274  15.843  0.00  0.00    +0.000 N 
ATOM     27  C   UNL     1       6.912   5.197  14.644  0.00  0.00    +0.000 C 
ATOM     28  O   UNL     1       8.127   5.332  14.559  0.00  0.00    +0.000 OA
ATOM     29  C   UNL     1       4.762   5.214  15.957  0.00  0.00    +0.000 C 
ATOM     30  C   UNL     1       4.351   4.148  16.972  0.00  0.00    +0.000 C 
BRANCH  27  31
ATOM     31  O   UNL     1       6.107   4.944  13.575  0.00  0.00    +0.000 OA
BRANCH  31  32
ATOM     32  C   UNL     1       6.321   3.683  12.906  0.00  0.00    +0.000 C 
ATOM     33  C   UNL     1       4.987   3.075  12.480  0.00  0.00    +0.000 C 
ATOM     34  C   UNL     1       7.184   3.950  11.677  0.00  0.00    +0.000 C 
ENDBRANCH  31  32
ENDBRANCH  27  31
ENDBRANCH  22  23
ENDBRANCH  21  22
ENDBRANCH   8  21
TORSDOF 8
ENDMDL
MODEL 6
REMARK VINA RESULT:      -6.9      1.891     12.090
REMARK  Name = 
REMARK  12 active torsions:
REMARK  status: ('A' for Active; 'I' for Inactive)
REMARK    1  A    between atoms: C_1  and  C_2
REMARK    2  A    between atoms: C_2  and  C_3
REMARK    3  A    between atoms: C_2  and  N_4
REMARK    4  A    between atoms: C_5  and  C_7
REMARK    5  A    between atoms: C_7  and  N_8
REMARK    6  A    between atoms: C_15  and  O_16
REMARK    7  A    between atoms: O_16  and  C_17
REMARK    8  A    between atoms: C_17  and  C_18
REMARK    9  A    between atoms: C_22  and  O_24
REMARK   10  A    between atoms: O_24  and  C_25
REMARK   11  A    between atoms: C_25  and  C_26
REMARK   12  A    between atoms: C_25  and  C_27
REMARK                            x       y       z     vdW  Elec       q    Type
REMARK                         _______ _______ _______ _____ _____    ______ ____
ROOT
ATOM      1  N   UNL     1      -0.489  13.474  21.228  0.00  0.00    +0.000 NA
ATOM      2  C   UNL     1      -0.781  12.196  21.928  0.00  0.00    +0.000 C 
ATOM      3  C   UNL     1      -1.003  10.985  21.006  0.00  0.00    +0.000 C 
ATOM      4  N   UNL     1       0.100  10.836  20.047  0.00  0.00    +0.000 N 
ATOM      5  C   UNL     1       0.804   9.656  19.949  0.00  0.00    +0.000 A 
ATOM      6  C   UNL     1       1.418   9.294  18.749  0.00  0.00    +0.000 A 
ATOM      7  C   UNL     1       2.120   8.093  18.631  0.00  0.00    +0.000 A 
ATOM      8  C   UNL     1       2.222   7.255  19.728  0.00  0.00    +0.000 A 
ATOM      9  C   UNL     1       1.576   7.663  20.884  0.00  0.00    +0.000 A 
ATOM     10  N   UNL     1       0.885   8.824  21.012  0.00  0.00    +0.000 NA
ATOM     11  C   UNL     1       0.503  12.044  19.329  0.00  0.00    +0.000 C 
ATOM     12  C   UNL     1       0.646  13.236  20.307  0.00  0.00    +0.000 C 
ENDROOT
BRANCH   1  13
ATOM     13  C   UNL     1      -1.675  13.944  20.482  0.00  0.00    +0.000 C 
BRANCH  13  15
ATOM     14  N   UNL     1      -2.718  15.666  21.857  0.00  0.00    +0.000 N 
ATOM     15  C   UNL     1      -2.772  14.340  21.465  0.00  0.00    +0.000 C 
ATOM     16  O   UNL     1      -3.636  13.552  21.843  0.00  0.00    +0.000 OA
ATOM     17  H   UNL     1      -1.845  16.141  21.650  0.00  0.00    +0.000 HD
BRANCH  14  19
ATOM     18  C   UNL     1      -3.035  16.183  24.251  0.00  0.00    +0.000 C 
ATOM     19  C   UNL     1      -3.629  16.225  22.844  0.00  0.00    +0.000 C 
ATOM     20  C   UNL     1      -4.000  17.656  22.467  0.00  0.00    +0.000 C 
ENDBRANCH  14  19
ENDBRANCH  13  15
ENDBRANCH   1  13
BRANCH   8  21
ATOM     21  O   UNL     1       2.854   6.045  19.754  0.00  0.00    +0.000 OA
BRANCH  21  22
ATOM     22  C   UNL     1       2.996   5.391  18.490  0.00  0.00    +0.000 C 
BRANCH  22  23
ATOM     23  C   UNL     1       4.304   4.576  18.487  0.00  0.00    +0.000 C 
ATOM     24  C   UNL     1       5.540   5.489  18.372  0.00  0.00    +0.000 C 
ATOM     25  C   UNL     1       5.721   6.065  16.966  0.00  0.00    +0.000 C 
ATOM     26  N   UNL     1       5.696   5.005  15.966  0.00  0.00    +0.000 N 
ATOM     27  C   UNL     1       6.724   4.914  15.039  0.00  0.00    +0.000 C 
ATOM     28  O   UNL     1       7.663   5.701  14.992  0.00  0.00    +0.000 OA
ATOM     29  C   UNL     1       4.520   4.139  15.980  0.00  0.00    +0.000 C 
ATOM     30  C   UNL     1       4.331   3.518  17.364  0.00  0.00    +0.000 C 
BRANCH  27  31
ATOM     31  O   UNL     1       6.591   3.852  14.195  0.00  0.00    +0.000 OA
BRANCH  31  32
ATOM     32  C   UNL     1       6.235   4.169  12.833  0.00  0.00    +0.000 C 
ATOM     33  C   UNL     1       7.490   4.438  12.006  0.00  0.00    +0.000 C 
ATOM     34  C   UNL     1       5.485   2.972  12.258  0.00  0.00    +0.000 C 
ENDBRANCH  31  32
ENDBRANCH  27  31
ENDBRANCH  22  23
ENDBRANCH  21  22
ENDBRANCH   8  21
TORSDOF 8
ENDMDL
MODEL 7
REMARK VINA RESULT:      -6.9      2.048     12.132
REMARK  Name = 
REMARK  12 active torsions:
REMARK  status: ('A' for Active; 'I' for Inactive)
REMARK    1  A    between atoms: C_1  and  C_2
REMARK    2  A    between atoms: C_2  and  C_3
REMARK    3  A    between atoms: C_2  and  N_4
REMARK    4  A    between atoms: C_5  and  C_7
REMARK    5  A    between atoms: C_7  and  N_8
REMARK    6  A    between atoms: C_15  and  O_16
REMARK    7  A    between atoms: O_16  and  C_17
REMARK    8  A    between atoms: C_17  and  C_18
REMARK    9  A    between atoms: C_22  and  O_24
REMARK   10  A    between atoms: O_24  and  C_25
REMARK   11  A    between atoms: C_25  and  C_26
REMARK   12  A    between atoms: C_25  and  C_27
REMARK                            x       y       z     vdW  Elec       q    Type
REMARK                         _______ _______ _______ _____ _____    ______ ____
ROOT
ATOM      1  N   UNL     1      -0.733  12.506  22.555  0.00  0.00    +0.000 NA
ATOM      2  C   UNL     1      -0.713  11.065  22.923  0.00  0.00    +0.000 C 
ATOM      3  C   UNL     1      -0.941  10.092  21.753  0.00  0.00    +0.000 C 
ATOM      4  N   UNL     1      -0.033  10.378  20.636  0.00  0.00    +0.000 N 
ATOM      5  C   UNL     1       0.792   9.401  20.122  0.00  0.00    +0.000 A 
ATOM      6  C   UNL     1       1.210   9.454  18.791  0.00  0.00    +0.000 A 
ATOM      7  C   UNL     1       2.031   8.461  18.252  0.00  0.00    +0.000 A 
ATOM      8  C   UNL     1       2.451   7.416  19.056  0.00  0.00    +0.000 A 
ATOM      9  C   UNL     1       1.989   7.413  20.362  0.00  0.00    +0.000 A 
ATOM     10  N   UNL     1       1.185   8.366  20.899  0.00  0.00    +0.000 NA
ATOM     11  C   UNL     1       0.061  11.774  20.216  0.00  0.00    +0.000 C 
ATOM     12  C   UNL     1       0.227  12.702  21.444  0.00  0.00    +0.000 C 
ENDROOT
BRANCH   1  13
ATOM     13  C   UNL     1      -2.092  12.921  22.148  0.00  0.00    +0.000 C 
BRANCH  13  15
ATOM     14  N   UNL     1      -2.359  14.537  23.953  0.00  0.00    +0.000 N 
ATOM     15  C   UNL     1      -2.336  14.363  22.581  0.00  0.00    +0.000 C 
ATOM     16  O   UNL     1      -2.467  15.282  21.775  0.00  0.00    +0.000 OA
ATOM     17  H   UNL     1      -2.457  13.683  24.494  0.00  0.00    +0.000 HD
BRANCH  14  19
ATOM     18  C   UNL     1      -4.143  15.999  24.837  0.00  0.00    +0.000 C 
ATOM     19  C   UNL     1      -2.649  15.822  24.572  0.00  0.00    +0.000 C 
ATOM     20  C   UNL     1      -1.858  15.973  25.867  0.00  0.00    +0.000 C 
ENDBRANCH  14  19
ENDBRANCH  13  15
ENDBRANCH   1  13
BRANCH   8  21
ATOM     21  O   UNL     1       3.233   6.369  18.663  0.00  0.00    +0.000 OA
BRANCH  21  22
ATOM     22  C   UNL     1       3.223   5.227  19.525  0.00  0.00    +0.000 C 
BRANCH  22  23
ATOM     23  C   UNL     1       3.719   3.998  18.740  0.00  0.00    +0.000 C 
ATOM     24  C   UNL     1       5.228   3.766  18.942  0.00  0.00    +0.000 C 
ATOM     25  C   UNL     1       6.089   4.781  18.187  0.00  0.00    +0.000 C 
ATOM     26  N   UNL     1       5.702   4.844  16.784  0.00  0.00    +0.000 N 
ATOM     27  C   UNL     1       6.671   4.706  15.800  0.00  0.00    +0.000 C 
ATOM     28  O   UNL     1       7.862   4.555  16.042  0.00  0.00    +0.000 OA
ATOM     29  C   UNL     1       4.293   5.122  16.520  0.00  0.00    +0.000 C 
ATOM     30  C   UNL     1       3.406   4.102  17.232  0.00  0.00    +0.000 C 
BRANCH  27  31
ATOM     31  O   UNL     1       6.159   4.743  14.537  0.00  0.00    +0.000 OA
BRANCH  31  32
ATOM     32  C   UNL     1       6.952   4.104  13.515  0.00  0.00    +0.000 C 
ATOM     33  C   UNL     1       6.050   3.376  12.522  0.00  0.00    +0.000 C 
ATOM     34  C   UNL     1       7.744   5.190  12.794  0.00  0.00    +0.000 C 
ENDBRANCH  31  32
ENDBRANCH  27  31
ENDBRANCH  22  23
ENDBRANCH  21  22
ENDBRANCH   8  21
TORSDOF 8
ENDMDL
MODEL 8
REMARK VINA RESULT:      -6.9      1.319      1.715
REMARK  Name = 
REMARK  12 active torsions:
REMARK  status: ('A' for Active; 'I' for Inactive)
REMARK    1  A    between atoms: C_1  and  C_2
REMARK    2  A    between atoms: C_2  and  C_3
REMARK    3  A    between atoms: C_2  and  N_4
REMARK    4  A    between atoms: C_5  and  C_7
REMARK    5  A    between atoms: C_7  and  N_8
REMARK    6  A    between atoms: C_15  and  O_16
REMARK    7  A    between atoms: O_16  and  C_17
REMARK    8  A    between atoms: C_17  and  C_18
REMARK    9  A    between atoms: C_22  and  O_24
REMARK   10  A    between atoms: O_24  and  C_25
REMARK   11  A    between atoms: C_25  and  C_26
REMARK   12  A    between atoms: C_25  and  C_27
REMARK                            x       y       z     vdW  Elec       q    Type
REMARK                         _______ _______ _______ _____ _____    ______ ____
ROOT
ATOM      1  N   UNL     1       6.692   5.415  16.831  0.00  0.00    +0.000 NA
ATOM      2  C   UNL     1       5.696   6.420  16.372  0.00  0.00    +0.000 C 
ATOM      3  C   UNL     1       4.233   6.085  16.708  0.00  0.00    +0.000 C 
ATOM      4  N   UNL     1       4.070   5.775  18.134  0.00  0.00    +0.000 N 
ATOM      5  C   UNL     1       3.160   6.458  18.911  0.00  0.00    +0.000 A 
ATOM      6  C   UNL     1       2.594   5.855  20.035  0.00  0.00    +0.000 A 
ATOM      7  C   UNL     1       1.657   6.529  20.822  0.00  0.00    +0.000 A 
ATOM      8  C   UNL     1       1.299   7.824  20.491  0.00  0.00    +0.000 A 
ATOM      9  C   UNL     1       1.885   8.360  19.356  0.00  0.00    +0.000 A 
ATOM     10  N   UNL     1       2.791   7.716  18.577  0.00  0.00    +0.000 NA
ATOM     11  C   UNL     1       5.025   4.828  18.705  0.00  0.00    +0.000 C 
ATOM     12  C   UNL     1       6.469   5.187  18.277  0.00  0.00    +0.000 C 
ENDROOT
BRANCH   1  13
ATOM     13  C   UNL     1       6.546   4.153  16.076  0.00  0.00    +0.000 C 
BRANCH  13  15
ATOM     14  N   UNL     1       5.928   3.674  13.767  0.00  0.00    +0.000 N 
ATOM     15  C   UNL     1       6.752   4.422  14.589  0.00  0.00    +0.000 C 
ATOM     16  O   UNL     1       7.558   5.252  14.173  0.00  0.00    +0.000 OA
ATOM     17  H   UNL     1       5.475   2.884  14.215  0.00  0.00    +0.000 HD
BRANCH  14  19
ATOM     18  C   UNL     1       7.116   2.813  11.780  0.00  0.00    +0.000 C 
ATOM     19  C   UNL     1       6.017   3.729  12.315  0.00  0.00    +0.000 C 
ATOM     20  C   UNL     1       4.673   3.366  11.691  0.00  0.00    +0.000 C 
ENDBRANCH  14  19
ENDBRANCH  13  15
ENDBRANCH   1  13
BRANCH   8  21
ATOM     21  O   UNL     1       0.386   8.594  21.151  0.00  0.00    +0.000 OA
BRANCH  21  22
ATOM     22  C   UNL     1      -0.284   9.581  20.360  0.00  0.00    +0.000 C 
BRANCH  22  23
ATOM     23  C   UNL     1      -0.310  10.914  21.131  0.00  0.00    +0.000 C 
ATOM     24  C   UNL     1      -1.394  11.863  20.587  0.00  0.00    +0.000 C 
ATOM     25  C   UNL     1      -1.019  12.479  19.238  0.00  0.00    +0.000 C 
ATOM     26  N   UNL     1       0.302  13.093  19.299  0.00  0.00    +0.000 N 
ATOM     27  C   UNL     1       0.467  14.405  18.880  0.00  0.00    +0.000 C 
ATOM     28  O   UNL     1      -0.444  15.089  18.427  0.00  0.00    +0.000 OA
ATOM     29  C   UNL     1       1.389  12.229  19.750  0.00  0.00    +0.000 C 
ATOM     30  C   UNL     1       1.060  11.625  21.115  0.00  0.00    +0.000 C 
BRANCH  27  31
ATOM     31  O   UNL     1       1.742  14.859  19.034  0.00  0.00    +0.000 OA
BRANCH  31  32
ATOM     32  C   UNL     1       1.934  15.874  20.041  0.00  0.00    +0.000 C 
ATOM     33  C   UNL     1       1.765  17.264  19.433  0.00  0.00    +0.000 C 
ATOM     34  C   UNL     1       0.886  15.656  21.127  0.00  0.00    +0.000 C 
ENDBRANCH  31  32
ENDBRANCH  27  31
ENDBRANCH  22  23
ENDBRANCH  21  22
ENDBRANCH   8  21
TORSDOF 8
ENDMDL
MODEL 9
REMARK VINA RESULT:      -6.8      2.083     11.851
REMARK  Name = 
REMARK  12 active torsions:
REMARK  status: ('A' for Active; 'I' for Inactive)
REMARK    1  A    between atoms: C_1  and  C_2
REMARK    2  A    between atoms: C_2  and  C_3
REMARK    3  A    between atoms: C_2  and  N_4
REMARK    4  A    between atoms: C_5  and  C_7
REMARK    5  A    between atoms: C_7  and  N_8
REMARK    6  A    between atoms: C_15  and  O_16
REMARK    7  A    between atoms: O_16  and  C_17
REMARK    8  A    between atoms: C_17  and  C_18
REMARK    9  A    between atoms: C_22  and  O_24
REMARK   10  A    between atoms: O_24  and  C_25
REMARK   11  A    between atoms: C_25  and  C_26
REMARK   12  A    between atoms: C_25  and  C_27
REMARK                            x       y       z     vdW  Elec       q    Type
REMARK                         _______ _______ _______ _____ _____    ______ ____
ROOT
ATOM      1  N   UNL     1      -0.201  10.998  22.829  0.00  0.00    +0.000 NA
ATOM      2  C   UNL     1      -0.293   9.526  23.018  0.00  0.00    +0.000 C 
ATOM      3  C   UNL     1      -0.491   8.716  21.725  0.00  0.00    +0.000 C 
ATOM      4  N   UNL     1       0.514   9.070  20.715  0.00  0.00    +0.000 N 
ATOM      5  C   UNL     1       1.315   8.107  20.140  0.00  0.00    +0.000 A 
ATOM      6  C   UNL     1       1.833   8.289  18.857  0.00  0.00    +0.000 A 
ATOM      7  C   UNL     1       2.633   7.314  18.256  0.00  0.00    +0.000 A 
ATOM      8  C   UNL     1       2.930   6.155  18.952  0.00  0.00    +0.000 A 
ATOM      9  C   UNL     1       2.372   6.028  20.214  0.00  0.00    +0.000 A 
ATOM     10  N   UNL     1       1.588   6.964  20.809  0.00  0.00    +0.000 NA
ATOM     11  C   UNL     1       0.720  10.497  20.477  0.00  0.00    +0.000 C 
ATOM     12  C   UNL     1       0.849  11.259  21.818  0.00  0.00    +0.000 C 
ENDROOT
BRANCH   1  13
ATOM     13  C   UNL     1      -1.499  11.549  22.387  0.00  0.00    +0.000 C 
BRANCH  13  15
ATOM     14  N   UNL     1      -2.617  13.704  22.173  0.00  0.00    +0.000 N 
ATOM     15  C   UNL     1      -1.602  13.011  22.808  0.00  0.00    +0.000 C 
ATOM     16  O   UNL     1      -0.864  13.508  23.657  0.00  0.00    +0.000 OA
ATOM     17  H   UNL     1      -3.001  13.250  21.351  0.00  0.00    +0.000 HD
BRANCH  14  19
ATOM     18  C   UNL     1      -3.056  15.866  21.060  0.00  0.00    +0.000 C 
ATOM     19  C   UNL     1      -2.837  15.128  22.380  0.00  0.00    +0.000 C 
ATOM     20  C   UNL     1      -4.022  15.348  23.315  0.00  0.00    +0.000 C 
ENDBRANCH  14  19
ENDBRANCH  13  15
ENDBRANCH   1  13
BRANCH   8  21
ATOM     21  O   UNL     1       3.676   5.112  18.486  0.00  0.00    +0.000 OA
BRANCH  21  22
ATOM     22  C   UNL     1       5.094   5.261  18.601  0.00  0.00    +0.000 C 
BRANCH  22  23
ATOM     23  C   UNL     1       5.786   4.150  17.788  0.00  0.00    +0.000 C 
ATOM     24  C   UNL     1       7.232   4.533  17.421  0.00  0.00    +0.000 C 
ATOM     25  C   UNL     1       7.302   5.590  16.317  0.00  0.00    +0.000 C 
ATOM     26  N   UNL     1       6.506   5.186  15.165  0.00  0.00    +0.000 N 
ATOM     27  C   UNL     1       7.080   5.187  13.901  0.00  0.00    +0.000 C 
ATOM     28  O   UNL     1       8.234   5.537  13.685  0.00  0.00    +0.000 OA
ATOM     29  C   UNL     1       5.106   4.867  15.434  0.00  0.00    +0.000 C 
ATOM     30  C   UNL     1       5.003   3.786  16.510  0.00  0.00    +0.000 C 
BRANCH  27  31
ATOM     31  O   UNL     1       6.232   4.748  12.929  0.00  0.00    +0.000 OA
BRANCH  31  32
ATOM     32  C   UNL     1       6.287   3.337  12.634  0.00  0.00    +0.000 C 
ATOM     33  C   UNL     1       4.961   2.867  12.042  0.00  0.00    +0.000 C 
ATOM     34  C   UNL     1       7.410   3.116  11.625  0.00  0.00    +0.000 C 
ENDBRANCH  31  32
ENDBRANCH  27  31
ENDBRANCH  22  23
ENDBRANCH  21  22
ENDBRANCH   8  21
TORSDOF 8
ENDMDL
