MODEL 1
REMARK VINA RESULT:      -6.5      0.000      0.000
REMARK  Name = 
REMARK  13 active torsions:
REMARK  status: ('A' for Active; 'I' for Inactive)
REMARK    1  A    between atoms: C_1  and  O_2
REMARK    2  A    between atoms: O_2  and  C_3
REMARK    3  A    between atoms: C_5  and  C_6
REMARK    4  A    between atoms: C_6  and  O_7
REMARK    5  A    between atoms: C_8  and  O_9
REMARK    6  A    between atoms: O_9  and  C_10
REMARK    7  A    between atoms: C_12  and  C_13
REMARK    8  A    between atoms: C_13  and  O_14
REMARK    9  A    between atoms: C_15  and  O_16
REMARK   10  A    between atoms: C_17  and  O_18
REMARK   11  A    between atoms: C_19  and  O_20
REMARK   12  A    between atoms: C_21  and  O_22
REMARK   13  A    between atoms: C_23  and  O_24
REMARK                            x       y       z     vdW  Elec       q    Type
REMARK                         _______ _______ _______ _____ _____    ______ ____
ROOT
ATOM      1  O   UNL     1       4.690   5.706  18.795  0.00  0.00    +0.000 OA
ENDROOT
BRANCH   1   5
ATOM      2  C   UNL     1       7.020   5.195  15.285  0.00  0.00    +0.000 C 
ATOM      3  O   UNL     1       7.681   5.281  16.538  0.00  0.00    +0.000 OA
ATOM      4  C   UNL     1       6.865   5.959  17.517  0.00  0.00    +0.000 C 
ATOM      5  C   UNL     1       5.597   5.127  17.827  0.00  0.00    +0.000 C 
ATOM      6  C   UNL     1       4.863   4.769  16.516  0.00  0.00    +0.000 C 
ATOM      7  C   UNL     1       5.781   4.283  15.389  0.00  0.00    +0.000 C 
BRANCH   2   9
ATOM      8  C   UNL     1       7.972   5.509  13.139  0.00  0.00    +0.000 C 
ATOM      9  O   UNL     1       7.867   4.650  14.268  0.00  0.00    +0.000 OA
ENDBRANCH   2   9
BRANCH   6  10
ATOM     10  O   UNL     1       3.808   3.822  16.782  0.00  0.00    +0.000 OA
ATOM     11  H   UNL     1       4.024   3.377  17.624  0.00  0.00    +0.000 HD
ENDBRANCH   6  10
BRANCH   7  12
ATOM     12  O   UNL     1       5.011   4.288  14.174  0.00  0.00    +0.000 OA
ATOM     13  H   UNL     1       5.188   3.456  13.703  0.00  0.00    +0.000 HD
ENDBRANCH   7  12
BRANCH   4  14
ATOM     14  C   UNL     1       7.734   6.261  18.749  0.00  0.00    +0.000 C 
BRANCH  14  15
ATOM     15  O   UNL     1       7.407   5.429  19.860  0.00  0.00    +0.000 OA
ATOM     16  H   UNL     1       7.267   4.531  19.505  0.00  0.00    +0.000 HD
ENDBRANCH  14  15
ENDBRANCH   4  14
ENDBRANCH   1   5
BRANCH   1  17
ATOM     17  C   UNL     1       4.091   4.818  19.738  0.00  0.00    +0.000 C 
ATOM     18  O   UNL     1       4.433   3.486  19.384  0.00  0.00    +0.000 OA
ATOM     19  C   UNL     1       3.908   2.488  20.250  0.00  0.00    +0.000 C 
ATOM     20  C   UNL     1       2.381   2.522  20.240  0.00  0.00    +0.000 C 
ATOM     21  C   UNL     1       1.894   3.920  20.621  0.00  0.00    +0.000 C 
ATOM     22  C   UNL     1       2.557   5.015  19.764  0.00  0.00    +0.000 C 
BRANCH  20  23
ATOM     23  O   UNL     1       1.875   2.201  18.937  0.00  0.00    +0.000 OA
ATOM     24  H   UNL     1       2.588   1.689  18.502  0.00  0.00    +0.000 HD
ENDBRANCH  20  23
BRANCH  21  25
ATOM     25  O   UNL     1       0.463   3.930  20.461  0.00  0.00    +0.000 OA
ATOM     26  H   UNL     1       0.280   3.818  19.509  0.00  0.00    +0.000 HD
ENDBRANCH  21  25
BRANCH  22  27
ATOM     27  O   UNL     1       2.156   6.286  20.310  0.00  0.00    +0.000 OA
ATOM     28  H   UNL     1       2.770   6.974  19.998  0.00  0.00    +0.000 HD
ENDBRANCH  22  27
BRANCH  19  29
ATOM     29  C   UNL     1       4.462   1.140  19.769  0.00  0.00    +0.000 C 
BRANCH  29  30
ATOM     30  O   UNL     1       4.246   0.985  18.362  0.00  0.00    +0.000 OA
ATOM     31  H   UNL     1       3.666   0.217  18.234  0.00  0.00    +0.000 HD
ENDBRANCH  29  30
ENDBRANCH  19  29
ENDBRANCH   1  17
TORSDOF 12
ENDMDL
MODEL 2
REMARK VINA RESULT:      -6.3      1.622      6.286
REMARK  Name = 
REMARK  13 active torsions:
REMARK  status: ('A' for Active; 'I' for Inactive)
REMARK    1  A    between atoms: C_1  and  O_2
REMARK    2  A    between atoms: O_2  and  C_3
REMARK    3  A    between atoms: C_5  and  C_6
REMARK    4  A    between atoms: C_6  and  O_7
REMARK    5  A    between atoms: C_8  and  O_9
REMARK    6  A    between atoms: O_9  and  C_10
REMARK    7  A    between atoms: C_12  and  C_13
REMARK    8  A    between atoms: C_13  and  O_14
REMARK    9  A    between atoms: C_15  and  O_16
REMARK   10  A    between atoms: C_17  and  O_18
REMARK   11  A    between atoms: C_19  and  O_20
REMARK   12  A    between atoms: C_21  and  O_22
REMARK   13  A    between atoms: C_23  and  O_24
REMARK                            x       y       z     vdW  Elec       q    Type
REMARK                         _______ _______ _______ _____ _____    ______ ____
ROOT
ATOM      1  O   UNL     1       3.528   5.860  17.227  0.00  0.00    +0.000 OA
ENDROOT
BRANCH   1   5
ATOM      2  C   UNL     1       1.763   3.411  20.210  0.00  0.00    +0.000 C 
ATOM      3  O   UNL     1       1.525   4.810  20.243  0.00  0.00    +0.000 OA
ATOM      4  C   UNL     1       2.558   5.536  19.547  0.00  0.00    +0.000 C 
ATOM      5  C   UNL     1       2.529   5.196  18.037  0.00  0.00    +0.000 C 
ATOM      6  C   UNL     1       2.575   3.665  17.838  0.00  0.00    +0.000 C 
ATOM      7  C   UNL     1       1.645   2.877  18.767  0.00  0.00    +0.000 C 
BRANCH   2   9
ATOM      8  C   UNL     1       1.345   2.371  22.296  0.00  0.00    +0.000 C 
ATOM      9  O   UNL     1       0.824   2.686  21.011  0.00  0.00    +0.000 OA
ENDBRANCH   2   9
BRANCH   6  10
ATOM     10  O   UNL     1       2.334   3.340  16.453  0.00  0.00    +0.000 OA
ATOM     11  H   UNL     1       1.481   2.869  16.409  0.00  0.00    +0.000 HD
ENDBRANCH   6  10
BRANCH   7  12
ATOM     12  O   UNL     1       2.020   1.492  18.679  0.00  0.00    +0.000 OA
ATOM     13  H   UNL     1       1.822   1.184  17.778  0.00  0.00    +0.000 HD
ENDBRANCH   7  12
BRANCH   4  14
ATOM     14  C   UNL     1       2.393   7.033  19.856  0.00  0.00    +0.000 C 
BRANCH  14  15
ATOM     15  O   UNL     1       2.265   7.820  18.673  0.00  0.00    +0.000 OA
ATOM     16  H   UNL     1       2.710   8.670  18.853  0.00  0.00    +0.000 HD
ENDBRANCH  14  15
ENDBRANCH   4  14
ENDBRANCH   1   5
BRANCH   1  17
ATOM     17  C   UNL     1       4.825   5.267  17.178  0.00  0.00    +0.000 C 
ATOM     18  O   UNL     1       5.662   5.932  18.113  0.00  0.00    +0.000 OA
ATOM     19  C   UNL     1       6.992   5.434  18.179  0.00  0.00    +0.000 C 
ATOM     20  C   UNL     1       7.691   5.602  16.830  0.00  0.00    +0.000 C 
ATOM     21  C   UNL     1       6.878   4.909  15.738  0.00  0.00    +0.000 C 
ATOM     22  C   UNL     1       5.403   5.356  15.745  0.00  0.00    +0.000 C 
BRANCH  20  23
ATOM     23  O   UNL     1       7.819   6.989  16.495  0.00  0.00    +0.000 OA
ATOM     24  H   UNL     1       7.202   7.459  17.093  0.00  0.00    +0.000 HD
ENDBRANCH  20  23
BRANCH  21  25
ATOM     25  O   UNL     1       7.507   5.216  14.479  0.00  0.00    +0.000 OA
ATOM     26  H   UNL     1       6.890   5.786  13.982  0.00  0.00    +0.000 HD
ENDBRANCH  21  25
BRANCH  22  27
ATOM     27  O   UNL     1       4.702   4.531  14.796  0.00  0.00    +0.000 OA
ATOM     28  H   UNL     1       5.281   4.361  14.033  0.00  0.00    +0.000 HD
ENDBRANCH  22  27
BRANCH  19  29
ATOM     29  C   UNL     1       7.703   6.201  19.301  0.00  0.00    +0.000 C 
BRANCH  29  30
ATOM     30  O   UNL     1       7.854   5.369  20.457  0.00  0.00    +0.000 OA
ATOM     31  H   UNL     1       8.608   5.704  20.967  0.00  0.00    +0.000 HD
ENDBRANCH  29  30
ENDBRANCH  19  29
ENDBRANCH   1  17
TORSDOF 12
ENDMDL
MODEL 3
REMARK VINA RESULT:      -5.9      2.314      3.884
REMARK  Name = 
REMARK  13 active torsions:
REMARK  status: ('A' for Active; 'I' for Inactive)
REMARK    1  A    between atoms: C_1  and  O_2
REMARK    2  A    between atoms: O_2  and  C_3
REMARK    3  A    between atoms: C_5  and  C_6
REMARK    4  A    between atoms: C_6  and  O_7
REMARK    5  A    between atoms: C_8  and  O_9
REMARK    6  A    between atoms: O_9  and  C_10
REMARK    7  A    between atoms: C_12  and  C_13
REMARK    8  A    between atoms: C_13  and  O_14
REMARK    9  A    between atoms: C_15  and  O_16
REMARK   10  A    between atoms: C_17  and  O_18
REMARK   11  A    between atoms: C_19  and  O_20
REMARK   12  A    between atoms: C_21  and  O_22
REMARK   13  A    between atoms: C_23  and  O_24
REMARK                            x       y       z     vdW  Elec       q    Type
REMARK                         _______ _______ _______ _____ _____    ______ ____
ROOT
ATOM      1  O   UNL     1       3.899   4.449  17.116  0.00  0.00    +0.000 OA
ENDROOT
BRANCH   1   5
ATOM      2  C   UNL     1       7.396   6.741  17.840  0.00  0.00    +0.000 C 
ATOM      3  O   UNL     1       6.157   7.415  17.685  0.00  0.00    +0.000 OA
ATOM      4  C   UNL     1       5.212   6.612  16.948  0.00  0.00    +0.000 C 
ATOM      5  C   UNL     1       4.841   5.344  17.755  0.00  0.00    +0.000 C 
ATOM      6  C   UNL     1       6.122   4.595  18.184  0.00  0.00    +0.000 C 
ATOM      7  C   UNL     1       7.228   5.499  18.739  0.00  0.00    +0.000 C 
BRANCH   2   9
ATOM      8  C   UNL     1       8.262   8.936  18.054  0.00  0.00    +0.000 C 
ATOM      9  O   UNL     1       8.389   7.575  18.447  0.00  0.00    +0.000 OA
ENDBRANCH   2   9
BRANCH   6  10
ATOM     10  O   UNL     1       5.790   3.539  19.109  0.00  0.00    +0.000 OA
ATOM     11  H   UNL     1       6.323   3.680  19.914  0.00  0.00    +0.000 HD
ENDBRANCH   6  10
BRANCH   7  12
ATOM     12  O   UNL     1       8.433   4.717  18.801  0.00  0.00    +0.000 OA
ATOM     13  H   UNL     1       8.558   4.430  19.721  0.00  0.00    +0.000 HD
ENDBRANCH   7  12
BRANCH   4  14
ATOM     14  C   UNL     1       4.008   7.495  16.579  0.00  0.00    +0.000 C 
BRANCH  14  15
ATOM     15  O   UNL     1       3.162   7.755  17.698  0.00  0.00    +0.000 OA
ATOM     16  H   UNL     1       2.899   8.692  17.637  0.00  0.00    +0.000 HD
ENDBRANCH  14  15
ENDBRANCH   4  14
ENDBRANCH   1   5
BRANCH   1  17
ATOM     17  C   UNL     1       2.653   4.237  17.777  0.00  0.00    +0.000 C 
ATOM     18  O   UNL     1       2.619   5.042  18.947  0.00  0.00    +0.000 OA
ATOM     19  C   UNL     1       1.421   4.938  19.705  0.00  0.00    +0.000 C 
ATOM     20  C   UNL     1       1.227   3.506  20.202  0.00  0.00    +0.000 C 
ATOM     21  C   UNL     1       1.235   2.543  19.015  0.00  0.00    +0.000 C 
ATOM     22  C   UNL     1       2.474   2.739  18.121  0.00  0.00    +0.000 C 
BRANCH  20  23
ATOM     23  O   UNL     1       2.280   3.134  21.100  0.00  0.00    +0.000 OA
ATOM     24  H   UNL     1       2.437   2.181  20.935  0.00  0.00    +0.000 HD
ENDBRANCH  20  23
BRANCH  21  25
ATOM     25  O   UNL     1       1.188   1.207  19.551  0.00  0.00    +0.000 OA
ATOM     26  H   UNL     1       1.967   0.733  19.206  0.00  0.00    +0.000 HD
ENDBRANCH  21  25
BRANCH  22  27
ATOM     27  O   UNL     1       2.299   1.906  16.960  0.00  0.00    +0.000 OA
ATOM     28  H   UNL     1       2.436   2.443  16.160  0.00  0.00    +0.000 HD
ENDBRANCH  22  27
BRANCH  19  29
ATOM     29  C   UNL     1       1.532   5.943  20.859  0.00  0.00    +0.000 C 
BRANCH  29  30
ATOM     30  O   UNL     1       2.254   7.106  20.440  0.00  0.00    +0.000 OA
ATOM     31  H   UNL     1       2.928   6.823  19.801  0.00  0.00    +0.000 HD
ENDBRANCH  29  30
ENDBRANCH  19  29
ENDBRANCH   1  17
TORSDOF 12
ENDMDL
MODEL 4
REMARK VINA RESULT:      -5.8      1.040      1.050
REMARK  Name = 
REMARK  13 active torsions:
REMARK  status: ('A' for Active; 'I' for Inactive)
REMARK    1  A    between atoms: C_1  and  O_2
REMARK    2  A    between atoms: O_2  and  C_3
REMARK    3  A    between atoms: C_5  and  C_6
REMARK    4  A    between atoms: C_6  and  O_7
REMARK    5  A    between atoms: C_8  and  O_9
REMARK    6  A    between atoms: O_9  and  C_10
REMARK    7  A    between atoms: C_12  and  C_13
REMARK    8  A    between atoms: C_13  and  O_14
REMARK    9  A    between atoms: C_15  and  O_16
REMARK   10  A    between atoms: C_17  and  O_18
REMARK   11  A    between atoms: C_19  and  O_20
REMARK   12  A    between atoms: C_21  and  O_22
REMARK   13  A    between atoms: C_23  and  O_24
REMARK                            x       y       z     vdW  Elec       q    Type
REMARK                         _______ _______ _______ _____ _____    ______ ____
ROOT
ATOM      1  O   UNL     1       4.892   5.540  19.565  0.00  0.00    +0.000 OA
ENDROOT
BRANCH   1   5
ATOM      2  C   UNL     1       7.116   6.023  15.983  0.00  0.00    +0.000 C 
ATOM      3  O   UNL     1       7.663   5.231  17.026  0.00  0.00    +0.000 OA
ATOM      4  C   UNL     1       7.092   5.579  18.304  0.00  0.00    +0.000 C 
ATOM      5  C   UNL     1       5.584   5.231  18.331  0.00  0.00    +0.000 C 
ATOM      6  C   UNL     1       4.871   5.864  17.116  0.00  0.00    +0.000 C 
ATOM      7  C   UNL     1       5.620   5.703  15.788  0.00  0.00    +0.000 C 
BRANCH   2   9
ATOM      8  C   UNL     1       7.257   4.640  14.065  0.00  0.00    +0.000 C 
ATOM      9  O   UNL     1       7.769   5.788  14.730  0.00  0.00    +0.000 OA
ENDBRANCH   2   9
BRANCH   6  10
ATOM     10  O   UNL     1       3.520   5.368  17.023  0.00  0.00    +0.000 OA
ATOM     11  H   UNL     1       2.927   6.143  17.008  0.00  0.00    +0.000 HD
ENDBRANCH   6  10
BRANCH   7  12
ATOM     12  O   UNL     1       5.004   6.588  14.836  0.00  0.00    +0.000 OA
ATOM     13  H   UNL     1       4.214   6.145  14.482  0.00  0.00    +0.000 HD
ENDBRANCH   7  12
BRANCH   4  14
ATOM     14  C   UNL     1       7.915   4.893  19.407  0.00  0.00    +0.000 C 
BRANCH  14  15
ATOM     15  O   UNL     1       7.843   5.589  20.650  0.00  0.00    +0.000 OA
ATOM     16  H   UNL     1       7.063   6.173  20.599  0.00  0.00    +0.000 HD
ENDBRANCH  14  15
ENDBRANCH   4  14
ENDBRANCH   1   5
BRANCH   1  17
ATOM     17  C   UNL     1       4.070   4.516  20.123  0.00  0.00    +0.000 C 
ATOM     18  O   UNL     1       4.253   3.327  19.367  0.00  0.00    +0.000 OA
ATOM     19  C   UNL     1       3.496   2.213  19.821  0.00  0.00    +0.000 C 
ATOM     20  C   UNL     1       2.000   2.513  19.733  0.00  0.00    +0.000 C 
ATOM     21  C   UNL     1       1.681   3.779  20.527  0.00  0.00    +0.000 C 
ATOM     22  C   UNL     1       2.587   4.957  20.123  0.00  0.00    +0.000 C 
BRANCH  20  23
ATOM     23  O   UNL     1       1.602   2.715  18.371  0.00  0.00    +0.000 OA
ATOM     24  H   UNL     1       0.678   3.036  18.416  0.00  0.00    +0.000 HD
ENDBRANCH  20  23
BRANCH  21  25
ATOM     25  O   UNL     1       0.293   4.088  20.296  0.00  0.00    +0.000 OA
ATOM     26  H   UNL     1       0.172   5.034  20.502  0.00  0.00    +0.000 HD
ENDBRANCH  21  25
BRANCH  22  27
ATOM     27  O   UNL     1       2.315   6.038  21.036  0.00  0.00    +0.000 OA
ATOM     28  H   UNL     1       2.271   5.685  21.941  0.00  0.00    +0.000 HD
ENDBRANCH  22  27
BRANCH  19  29
ATOM     29  C   UNL     1       3.899   1.013  18.954  0.00  0.00    +0.000 C 
BRANCH  29  30
ATOM     30  O   UNL     1       4.209   1.441  17.623  0.00  0.00    +0.000 OA
ATOM     31  H   UNL     1       3.381   1.720  17.200  0.00  0.00    +0.000 HD
ENDBRANCH  29  30
ENDBRANCH  19  29
ENDBRANCH   1  17
TORSDOF 12
ENDMDL
MODEL 5
REMARK VINA RESULT:      -5.8      1.591      6.449
REMARK  Name = 
REMARK  13 active torsions:
REMARK  status: ('A' for Active; 'I' for Inactive)
REMARK    1  A    between atoms: C_1  and  O_2
REMARK    2  A    between atoms: O_2  and  C_3
REMARK    3  A    between atoms: C_5  and  C_6
REMARK    4  A    between atoms: C_6  and  O_7
REMARK    5  A    between atoms: C_8  and  O_9
REMARK    6  A    between atoms: O_9  and  C_10
REMARK    7  A    between atoms: C_12  and  C_13
REMARK    8  A    between atoms: C_13  and  O_14
REMARK    9  A    between atoms: C_15  and  O_16
REMARK   10  A    between atoms: C_17  and  O_18
REMARK   11  A    between atoms: C_19  and  O_20
REMARK   12  A    between atoms: C_21  and  O_22
REMARK   13  A    between atoms: C_23  and  O_24
REMARK                            x       y       z     vdW  Elec       q    Type
REMARK                         _______ _______ _______ _____ _____    ______ ____
ROOT
ATOM      1  O   UNL     1       3.933   3.237  16.796  0.00  0.00    +0.000 OA
ENDROOT
BRANCH   1   5
ATOM      2  C   UNL     1       2.956   3.532  20.915  0.00  0.00    +0.000 C 
ATOM      3  O   UNL     1       2.060   4.076  19.959  0.00  0.00    +0.000 OA
ATOM      4  C   UNL     1       2.733   4.375  18.718  0.00  0.00    +0.000 C 
ATOM      5  C   UNL     1       3.232   3.070  18.051  0.00  0.00    +0.000 C 
ATOM      6  C   UNL     1       4.070   2.248  19.055  0.00  0.00    +0.000 C 
ATOM      7  C   UNL     1       3.460   2.147  20.457  0.00  0.00    +0.000 C 
BRANCH   2   9
ATOM      8  C   UNL     1       1.185   2.529  22.126  0.00  0.00    +0.000 C 
ATOM      9  O   UNL     1       2.337   3.359  22.194  0.00  0.00    +0.000 OA
ENDBRANCH   2   9
BRANCH   6  10
ATOM     10  O   UNL     1       4.355   0.944  18.509  0.00  0.00    +0.000 OA
ATOM     11  H   UNL     1       3.529   0.425  18.550  0.00  0.00    +0.000 HD
ENDBRANCH   6  10
BRANCH   7  12
ATOM     12  O   UNL     1       4.476   1.633  21.334  0.00  0.00    +0.000 OA
ATOM     13  H   UNL     1       4.438   2.136  22.165  0.00  0.00    +0.000 HD
ENDBRANCH   7  12
BRANCH   4  14
ATOM     14  C   UNL     1       1.785   5.206  17.838  0.00  0.00    +0.000 C 
BRANCH  14  15
ATOM     15  O   UNL     1       0.935   4.389  17.034  0.00  0.00    +0.000 OA
ATOM     16  H   UNL     1       0.301   3.964  17.641  0.00  0.00    +0.000 HD
ENDBRANCH  14  15
ENDBRANCH   4  14
ENDBRANCH   1   5
BRANCH   1  17
ATOM     17  C   UNL     1       5.318   3.576  16.865  0.00  0.00    +0.000 C 
ATOM     18  O   UNL     1       5.506   4.493  17.933  0.00  0.00    +0.000 OA
ATOM     19  C   UNL     1       6.851   4.913  18.125  0.00  0.00    +0.000 C 
ATOM     20  C   UNL     1       7.365   5.639  16.883  0.00  0.00    +0.000 C 
ATOM     21  C   UNL     1       7.221   4.734  15.660  0.00  0.00    +0.000 C 
ATOM     22  C   UNL     1       5.792   4.177  15.520  0.00  0.00    +0.000 C 
BRANCH  20  23
ATOM     23  O   UNL     1       6.620   6.841  16.653  0.00  0.00    +0.000 OA
ATOM     24  H   UNL     1       7.021   7.246  15.857  0.00  0.00    +0.000 HD
ENDBRANCH  20  23
BRANCH  21  25
ATOM     25  O   UNL     1       7.590   5.514  14.507  0.00  0.00    +0.000 OA
ATOM     26  H   UNL     1       6.976   5.272  13.789  0.00  0.00    +0.000 HD
ENDBRANCH  21  25
BRANCH  22  27
ATOM     27  O   UNL     1       5.809   3.220  14.444  0.00  0.00    +0.000 OA
ATOM     28  H   UNL     1       5.126   2.546  14.606  0.00  0.00    +0.000 HD
ENDBRANCH  22  27
BRANCH  19  29
ATOM     29  C   UNL     1       6.867   5.809  19.370  0.00  0.00    +0.000 C 
BRANCH  29  30
ATOM     30  O   UNL     1       7.901   5.395  20.270  0.00  0.00    +0.000 OA
ATOM     31  H   UNL     1       7.927   4.425  20.267  0.00  0.00    +0.000 HD
ENDBRANCH  29  30
ENDBRANCH  19  29
ENDBRANCH   1  17
TORSDOF 12
ENDMDL
MODEL 6
REMARK VINA RESULT:      -5.8      1.870      6.464
REMARK  Name = 
REMARK  13 active torsions:
REMARK  status: ('A' for Active; 'I' for Inactive)
REMARK    1  A    between atoms: C_1  and  O_2
REMARK    2  A    between atoms: O_2  and  C_3
REMARK    3  A    between atoms: C_5  and  C_6
REMARK    4  A    between atoms: C_6  and  O_7
REMARK    5  A    between atoms: C_8  and  O_9
REMARK    6  A    between atoms: O_9  and  C_10
REMARK    7  A    between atoms: C_12  and  C_13
REMARK    8  A    between atoms: C_13  and  O_14
REMARK    9  A    between atoms: C_15  and  O_16
REMARK   10  A    between atoms: C_17  and  O_18
REMARK   11  A    between atoms: C_19  and  O_20
REMARK   12  A    between atoms: C_21  and  O_22
REMARK   13  A    between atoms: C_23  and  O_24
REMARK                            x       y       z     vdW  Elec       q    Type
REMARK                         _______ _______ _______ _____ _____    ______ ____
ROOT
ATOM      1  O   UNL     1       3.636   4.744  17.760  0.00  0.00    +0.000 OA
ENDROOT
BRANCH   1   5
ATOM      2  C   UNL     1       1.374   7.157  20.419  0.00  0.00    +0.000 C 
ATOM      3  O   UNL     1       2.042   6.015  20.932  0.00  0.00    +0.000 OA
ATOM      4  C   UNL     1       2.300   5.046  19.895  0.00  0.00    +0.000 C 
ATOM      5  C   UNL     1       3.299   5.622  18.861  0.00  0.00    +0.000 C 
ATOM      6  C   UNL     1       2.804   6.993  18.351  0.00  0.00    +0.000 C 
ATOM      7  C   UNL     1       2.292   7.930  19.450  0.00  0.00    +0.000 C 
BRANCH   2   9
ATOM      8  C   UNL     1      -0.420   8.267  21.496  0.00  0.00    +0.000 C 
ATOM      9  O   UNL     1       0.987   8.065  21.456  0.00  0.00    +0.000 OA
ENDBRANCH   2   9
BRANCH   6  10
ATOM     10  O   UNL     1       3.829   7.624  17.556  0.00  0.00    +0.000 OA
ATOM     11  H   UNL     1       4.680   7.477  18.010  0.00  0.00    +0.000 HD
ENDBRANCH   6  10
BRANCH   7  12
ATOM     12  O   UNL     1       1.597   9.011  18.805  0.00  0.00    +0.000 OA
ATOM     13  H   UNL     1       2.257   9.572  18.365  0.00  0.00    +0.000 HD
ENDBRANCH   7  12
BRANCH   4  14
ATOM     14  C   UNL     1       2.765   3.738  20.555  0.00  0.00    +0.000 C 
BRANCH  14  15
ATOM     15  O   UNL     1       2.761   2.640  19.645  0.00  0.00    +0.000 OA
ATOM     16  H   UNL     1       2.697   1.830  20.185  0.00  0.00    +0.000 HD
ENDBRANCH  14  15
ENDBRANCH   4  14
ENDBRANCH   1   5
BRANCH   1  17
ATOM     17  C   UNL     1       5.022   4.505  17.521  0.00  0.00    +0.000 C 
ATOM     18  O   UNL     1       5.780   5.294  18.427  0.00  0.00    +0.000 OA
ATOM     19  C   UNL     1       7.190   5.147  18.307  0.00  0.00    +0.000 C 
ATOM     20  C   UNL     1       7.654   5.582  16.917  0.00  0.00    +0.000 C 
ATOM     21  C   UNL     1       6.906   4.784  15.850  0.00  0.00    +0.000 C 
ATOM     22  C   UNL     1       5.380   4.839  16.053  0.00  0.00    +0.000 C 
BRANCH  20  23
ATOM     23  O   UNL     1       7.396   6.977  16.709  0.00  0.00    +0.000 OA
ATOM     24  H   UNL     1       6.430   7.042  16.564  0.00  0.00    +0.000 HD
ENDBRANCH  20  23
BRANCH  21  25
ATOM     25  O   UNL     1       7.280   5.328  14.571  0.00  0.00    +0.000 OA
ATOM     26  H   UNL     1       7.202   6.298  14.638  0.00  0.00    +0.000 HD
ENDBRANCH  21  25
BRANCH  22  27
ATOM     27  O   UNL     1       4.790   3.931  15.103  0.00  0.00    +0.000 OA
ATOM     28  H   UNL     1       4.099   4.400  14.602  0.00  0.00    +0.000 HD
ENDBRANCH  22  27
BRANCH  19  29
ATOM     29  C   UNL     1       7.825   5.989  19.421  0.00  0.00    +0.000 C 
BRANCH  29  30
ATOM     30  O   UNL     1       8.007   5.200  20.602  0.00  0.00    +0.000 OA
ATOM     31  H   UNL     1       7.774   4.283  20.384  0.00  0.00    +0.000 HD
ENDBRANCH  29  30
ENDBRANCH  19  29
ENDBRANCH   1  17
TORSDOF 12
ENDMDL
MODEL 7
REMARK VINA RESULT:      -5.8      1.143      1.163
REMARK  Name = 
REMARK  13 active torsions:
REMARK  status: ('A' for Active; 'I' for Inactive)
REMARK    1  A    between atoms: C_1  and  O_2
REMARK    2  A    between atoms: O_2  and  C_3
REMARK    3  A    between atoms: C_5  and  C_6
REMARK    4  A    between atoms: C_6  and  O_7
REMARK    5  A    between atoms: C_8  and  O_9
REMARK    6  A    between atoms: O_9  and  C_10
REMARK    7  A    between atoms: C_12  and  C_13
REMARK    8  A    between atoms: C_13  and  O_14
REMARK    9  A    between atoms: C_15  and  O_16
REMARK   10  A    between atoms: C_17  and  O_18
REMARK   11  A    between atoms: C_19  and  O_20
REMARK   12  A    between atoms: C_21  and  O_22
REMARK   13  A    between atoms: C_23  and  O_24
REMARK                            x       y       z     vdW  Elec       q    Type
REMARK                         _______ _______ _______ _____ _____    ______ ____
ROOT
ATOM      1  O   UNL     1       4.086   5.304  17.565  0.00  0.00    +0.000 OA
ENDROOT
BRANCH   1   5
ATOM      2  C   UNL     1       7.150   5.405  14.631  0.00  0.00    +0.000 C 
ATOM      3  O   UNL     1       7.337   6.124  15.840  0.00  0.00    +0.000 OA
ATOM      4  C   UNL     1       6.076   6.431  16.469  0.00  0.00    +0.000 C 
ATOM      5  C   UNL     1       5.372   5.129  16.922  0.00  0.00    +0.000 C 
ATOM      6  C   UNL     1       5.276   4.139  15.740  0.00  0.00    +0.000 C 
ATOM      7  C   UNL     1       6.562   4.008  14.918  0.00  0.00    +0.000 C 
BRANCH   2   9
ATOM      8  C   UNL     1       8.350   5.791  12.625  0.00  0.00    +0.000 C 
ATOM      9  O   UNL     1       8.380   5.213  13.924  0.00  0.00    +0.000 OA
ENDBRANCH   2   9
BRANCH   6  10
ATOM     10  O   UNL     1       4.816   2.855  16.208  0.00  0.00    +0.000 OA
ATOM     11  H   UNL     1       3.847   2.833  16.092  0.00  0.00    +0.000 HD
ENDBRANCH   6  10
BRANCH   7  12
ATOM     12  O   UNL     1       6.229   3.311  13.705  0.00  0.00    +0.000 OA
ATOM     13  H   UNL     1       5.342   2.927  13.814  0.00  0.00    +0.000 HD
ENDBRANCH   7  12
BRANCH   4  14
ATOM     14  C   UNL     1       6.331   7.434  17.607  0.00  0.00    +0.000 C 
BRANCH  14  15
ATOM     15  O   UNL     1       7.721   7.696  17.798  0.00  0.00    +0.000 OA
ATOM     16  H   UNL     1       8.163   6.828  17.854  0.00  0.00    +0.000 HD
ENDBRANCH  14  15
ENDBRANCH   4  14
ENDBRANCH   1   5
BRANCH   1  17
ATOM     17  C   UNL     1       3.925   4.729  18.861  0.00  0.00    +0.000 C 
ATOM     18  O   UNL     1       4.291   3.358  18.796  0.00  0.00    +0.000 OA
ATOM     19  C   UNL     1       4.187   2.656  20.028  0.00  0.00    +0.000 C 
ATOM     20  C   UNL     1       2.741   2.658  20.522  0.00  0.00    +0.000 C 
ATOM     21  C   UNL     1       2.239   4.096  20.643  0.00  0.00    +0.000 C 
ATOM     22  C   UNL     1       2.465   4.897  19.346  0.00  0.00    +0.000 C 
BRANCH  20  23
ATOM     23  O   UNL     1       1.892   1.952  19.609  0.00  0.00    +0.000 OA
ATOM     24  H   UNL     1       2.221   1.030  19.608  0.00  0.00    +0.000 HD
ENDBRANCH  20  23
BRANCH  21  25
ATOM     25  O   UNL     1       0.840   4.033  20.976  0.00  0.00    +0.000 OA
ATOM     26  H   UNL     1       0.515   4.951  21.030  0.00  0.00    +0.000 HD
ENDBRANCH  21  25
BRANCH  22  27
ATOM     27  O   UNL     1       2.111   6.265  19.621  0.00  0.00    +0.000 OA
ATOM     28  H   UNL     1       1.970   6.371  20.578  0.00  0.00    +0.000 HD
ENDBRANCH  22  27
BRANCH  19  29
ATOM     29  C   UNL     1       4.714   1.237  19.782  0.00  0.00    +0.000 C 
BRANCH  29  30
ATOM     30  O   UNL     1       4.347   0.788  18.473  0.00  0.00    +0.000 OA
ATOM     31  H   UNL     1       5.165   0.625  17.975  0.00  0.00    +0.000 HD
ENDBRANCH  29  30
ENDBRANCH  19  29
ENDBRANCH   1  17
TORSDOF 12
ENDMDL
MODEL 8
REMARK VINA RESULT:      -5.7      1.363      6.575
REMARK  Name = 
REMARK  13 active torsions:
REMARK  status: ('A' for Active; 'I' for Inactive)
REMARK    1  A    between atoms: C_1  and  O_2
REMARK    2  A    between atoms: O_2  and  C_3
REMARK    3  A    between atoms: C_5  and  C_6
REMARK    4  A    between atoms: C_6  and  O_7
REMARK    5  A    between atoms: C_8  and  O_9
REMARK    6  A    between atoms: O_9  and  C_10
REMARK    7  A    between atoms: C_12  and  C_13
REMARK    8  A    between atoms: C_13  and  O_14
REMARK    9  A    between atoms: C_15  and  O_16
REMARK   10  A    between atoms: C_17  and  O_18
REMARK   11  A    between atoms: C_19  and  O_20
REMARK   12  A    between atoms: C_21  and  O_22
REMARK   13  A    between atoms: C_23  and  O_24
REMARK                            x       y       z     vdW  Elec       q    Type
REMARK                         _______ _______ _______ _____ _____    ______ ____
ROOT
ATOM      1  O   UNL     1       3.940   4.256  16.920  0.00  0.00    +0.000 OA
ENDROOT
BRANCH   1   5
ATOM      2  C   UNL     1       1.271   3.260  20.065  0.00  0.00    +0.000 C 
ATOM      3  O   UNL     1       2.170   2.270  19.592  0.00  0.00    +0.000 OA
ATOM      4  C   UNL     1       2.607   2.556  18.247  0.00  0.00    +0.000 C 
ATOM      5  C   UNL     1       3.447   3.856  18.221  0.00  0.00    +0.000 C 
ATOM      6  C   UNL     1       2.669   5.004  18.901  0.00  0.00    +0.000 C 
ATOM      7  C   UNL     1       1.992   4.615  20.220  0.00  0.00    +0.000 C 
BRANCH   2   9
ATOM      8  C   UNL     1       1.712   2.443  22.244  0.00  0.00    +0.000 C 
ATOM      9  O   UNL     1       0.721   2.921  21.343  0.00  0.00    +0.000 OA
ENDBRANCH   2   9
BRANCH   6  10
ATOM     10  O   UNL     1       3.527   6.151  19.068  0.00  0.00    +0.000 OA
ATOM     11  H   UNL     1       2.961   6.902  19.329  0.00  0.00    +0.000 HD
ENDBRANCH   6  10
BRANCH   7  12
ATOM     12  O   UNL     1       1.076   5.670  20.562  0.00  0.00    +0.000 OA
ATOM     13  H   UNL     1       0.223   5.264  20.792  0.00  0.00    +0.000 HD
ENDBRANCH   7  12
BRANCH   4  14
ATOM     14  C   UNL     1       3.345   1.322  17.702  0.00  0.00    +0.000 C 
BRANCH  14  15
ATOM     15  O   UNL     1       4.244   0.761  18.657  0.00  0.00    +0.000 OA
ATOM     16  H   UNL     1       3.715   0.556  19.451  0.00  0.00    +0.000 HD
ENDBRANCH  14  15
ENDBRANCH   4  14
ENDBRANCH   1   5
BRANCH   1  17
ATOM     17  C   UNL     1       5.346   4.151  16.698  0.00  0.00    +0.000 C 
ATOM     18  O   UNL     1       6.022   4.826  17.749  0.00  0.00    +0.000 OA
ATOM     19  C   UNL     1       7.441   4.793  17.660  0.00  0.00    +0.000 C 
ATOM     20  C   UNL     1       7.911   5.481  16.379  0.00  0.00    +0.000 C 
ATOM     21  C   UNL     1       7.250   4.823  15.169  0.00  0.00    +0.000 C 
ATOM     22  C   UNL     1       5.719   4.745  15.319  0.00  0.00    +0.000 C 
BRANCH  20  23
ATOM     23  O   UNL     1       7.561   6.871  16.392  0.00  0.00    +0.000 OA
ATOM     24  H   UNL     1       6.606   6.900  16.178  0.00  0.00    +0.000 HD
ENDBRANCH  20  23
BRANCH  21  25
ATOM     25  O   UNL     1       7.619   5.594  14.010  0.00  0.00    +0.000 OA
ATOM     26  H   UNL     1       8.239   6.285  14.311  0.00  0.00    +0.000 HD
ENDBRANCH  21  25
BRANCH  22  27
ATOM     27  O   UNL     1       5.219   3.970  14.212  0.00  0.00    +0.000 OA
ATOM     28  H   UNL     1       4.314   3.676  14.413  0.00  0.00    +0.000 HD
ENDBRANCH  22  27
BRANCH  19  29
ATOM     29  C   UNL     1       7.985   5.479  18.921  0.00  0.00    +0.000 C 
BRANCH  29  30
ATOM     30  O   UNL     1       7.078   5.303  20.016  0.00  0.00    +0.000 OA
ATOM     31  H   UNL     1       6.228   5.008  19.652  0.00  0.00    +0.000 HD
ENDBRANCH  29  30
ENDBRANCH  19  29
ENDBRANCH   1  17
TORSDOF 12
ENDMDL
MODEL 9
REMARK VINA RESULT:      -5.7      1.659      3.209
REMARK  Name = 
REMARK  13 active torsions:
REMARK  status: ('A' for Active; 'I' for Inactive)
REMARK    1  A    between atoms: C_1  and  O_2
REMARK    2  A    between atoms: O_2  and  C_3
REMARK    3  A    between atoms: C_5  and  C_6
REMARK    4  A    between atoms: C_6  and  O_7
REMARK    5  A    between atoms: C_8  and  O_9
REMARK    6  A    between atoms: O_9  and  C_10
REMARK    7  A    between atoms: C_12  and  C_13
REMARK    8  A    between atoms: C_13  and  O_14
REMARK    9  A    between atoms: C_15  and  O_16
REMARK   10  A    between atoms: C_17  and  O_18
REMARK   11  A    between atoms: C_19  and  O_20
REMARK   12  A    between atoms: C_21  and  O_22
REMARK   13  A    between atoms: C_23  and  O_24
REMARK                            x       y       z     vdW  Elec       q    Type
REMARK                         _______ _______ _______ _____ _____    ______ ____
ROOT
ATOM      1  O   UNL     1       6.068   4.744  18.075  0.00  0.00    +0.000 OA
ENDROOT
BRANCH   1   5
ATOM      2  C   UNL     1       6.503   3.900  13.939  0.00  0.00    +0.000 C 
ATOM      3  O   UNL     1       5.254   3.643  14.562  0.00  0.00    +0.000 OA
ATOM      4  C   UNL     1       5.403   3.469  15.986  0.00  0.00    +0.000 C 
ATOM      5  C   UNL     1       5.875   4.790  16.641  0.00  0.00    +0.000 C 
ATOM      6  C   UNL     1       7.136   5.318  15.923  0.00  0.00    +0.000 C 
ATOM      7  C   UNL     1       7.064   5.263  14.394  0.00  0.00    +0.000 C 
BRANCH   2   9
ATOM      8  C   UNL     1       5.254   3.232  12.041  0.00  0.00    +0.000 C 
ATOM      9  O   UNL     1       6.395   3.938  12.512  0.00  0.00    +0.000 OA
ENDBRANCH   2   9
BRANCH   6  10
ATOM     10  O   UNL     1       7.451   6.646  16.389  0.00  0.00    +0.000 OA
ATOM     11  H   UNL     1       7.211   6.687  17.334  0.00  0.00    +0.000 HD
ENDBRANCH   6  10
BRANCH   7  12
ATOM     12  O   UNL     1       8.392   5.488  13.891  0.00  0.00    +0.000 OA
ATOM     13  H   UNL     1       8.322   5.708  12.946  0.00  0.00    +0.000 HD
ENDBRANCH   7  12
BRANCH   4  14
ATOM     14  C   UNL     1       4.080   2.927  16.551  0.00  0.00    +0.000 C 
BRANCH  14  15
ATOM     15  O   UNL     1       4.273   2.140  17.725  0.00  0.00    +0.000 OA
ATOM     16  H   UNL     1       4.435   1.226  17.425  0.00  0.00    +0.000 HD
ENDBRANCH  14  15
ENDBRANCH   4  14
ENDBRANCH   1   5
BRANCH   1  17
ATOM     17  C   UNL     1       5.048   5.322  18.888  0.00  0.00    +0.000 C 
ATOM     18  O   UNL     1       4.282   4.275  19.466  0.00  0.00    +0.000 OA
ATOM     19  C   UNL     1       3.227   4.709  20.314  0.00  0.00    +0.000 C 
ATOM     20  C   UNL     1       2.221   5.550  19.528  0.00  0.00    +0.000 C 
ATOM     21  C   UNL     1       2.939   6.725  18.865  0.00  0.00    +0.000 C 
ATOM     22  C   UNL     1       4.159   6.267  18.044  0.00  0.00    +0.000 C 
BRANCH  20  23
ATOM     23  O   UNL     1       1.592   4.764  18.508  0.00  0.00    +0.000 OA
ATOM     24  H   UNL     1       2.326   4.373  17.991  0.00  0.00    +0.000 HD
ENDBRANCH  20  23
BRANCH  21  25
ATOM     25  O   UNL     1       1.975   7.397  18.032  0.00  0.00    +0.000 OA
ATOM     26  H   UNL     1       2.299   8.307  17.896  0.00  0.00    +0.000 HD
ENDBRANCH  21  25
BRANCH  22  27
ATOM     27  O   UNL     1       4.848   7.453  17.604  0.00  0.00    +0.000 OA
ATOM     28  H   UNL     1       5.646   7.577  18.147  0.00  0.00    +0.000 HD
ENDBRANCH  22  27
BRANCH  19  29
ATOM     29  C   UNL     1       2.587   3.451  20.915  0.00  0.00    +0.000 C 
BRANCH  29  30
ATOM     30  O   UNL     1       2.502   2.415  19.929  0.00  0.00    +0.000 OA
ATOM     31  H   UNL     1       2.494   1.563  20.395  0.00  0.00    +0.000 HD
ENDBRANCH  29  30
ENDBRANCH  19  29
ENDBRANCH   1  17
TORSDOF 12
ENDMDL
