MODEL 1
REMARK VINA RESULT:      -7.7      0.000      0.000
REMARK  Name = 
REMARK  10 active torsions:
REMARK  status: ('A' for Active; 'I' for Inactive)
REMARK    1  A    between atoms: C_1  and  C_2
REMARK    2  A    between atoms: C_2  and  N_3
REMARK    3  A    between atoms: N_3  and  C_4
REMARK    4  A    between atoms: N_3  and  S_6
REMARK    5  A    between atoms: C_4  and  C_5
REMARK    6  A    between atoms: S_6  and  C_9
REMARK    7  A    between atoms: N_15  and  C_16
REMARK    8  A    between atoms: C_16  and  C_17
REMARK    9  A    between atoms: N_19  and  C_20
REMARK   10  A    between atoms: C_24  and  C_25
REMARK                            x       y       z     vdW  Elec       q    Type
REMARK                         _______ _______ _______ _____ _____    ______ ____
ROOT
ATOM      1  C   UNL     1       4.772   4.821  16.960  0.00  0.00    +0.000 A 
ATOM      2  C   UNL     1       4.557   3.452  17.115  0.00  0.00    +0.000 A 
ATOM      3  C   UNL     1       3.580   3.020  18.005  0.00  0.00    +0.000 A 
ATOM      4  C   UNL     1       2.843   3.952  18.743  0.00  0.00    +0.000 A 
ATOM      5  C   UNL     1       3.082   5.336  18.625  0.00  0.00    +0.000 A 
ATOM      6  C   UNL     1       4.042   5.763  17.701  0.00  0.00    +0.000 A 
ATOM      7  N   UNL     1       2.395   6.237  19.494  0.00  0.00    +0.000 N 
ATOM      8  C   UNL     1       1.424   5.738  20.354  0.00  0.00    +0.000 C 
ATOM      9  O   UNL     1       0.933   6.394  21.271  0.00  0.00    +0.000 OA
ATOM     10  C   UNL     1       0.937   4.341  20.005  0.00  0.00    +0.000 C 
ATOM     11  O   UNL     1       1.935   3.412  19.615  0.00  0.00    +0.000 OA
ENDROOT
BRANCH   1  12
ATOM     12  S   UNL     1       6.052   5.365  15.850  0.00  0.00    +0.000 S 
ATOM     13  O   UNL     1       5.486   6.427  15.046  0.00  0.00    +0.000 OA
ATOM     14  O   UNL     1       6.653   4.195  15.246  0.00  0.00    +0.000 OA
BRANCH  12  15
ATOM     15  N   UNL     1       7.224   6.048  16.907  0.00  0.00    +0.000 NA
BRANCH  15  17
ATOM     16  C   UNL     1       8.085   8.308  17.596  0.00  0.00    +0.000 C 
ATOM     17  C   UNL     1       6.873   7.410  17.409  0.00  0.00    +0.000 C 
ENDBRANCH  15  17
BRANCH  15  18
ATOM     18  C   UNL     1       7.715   5.090  17.946  0.00  0.00    +0.000 C 
ATOM     19  C   UNL     1       7.418   5.532  19.371  0.00  0.00    +0.000 C 
ENDBRANCH  15  18
ENDBRANCH  12  15
ENDBRANCH   1  12
BRANCH   7  20
ATOM     20  C   UNL     1       2.692   7.669  19.531  0.00  0.00    +0.000 C 
BRANCH  20  21
ATOM     21  C   UNL     1       1.698   8.567  18.790  0.00  0.00    +0.000 C 
ATOM     22  O   UNL     1       1.759   8.698  17.569  0.00  0.00    +0.000 OA
ATOM     23  N   UNL     1       0.779   9.204  19.606  0.00  0.00    +0.000 N 
ATOM     24  H   UNL     1       1.036   9.293  20.584  0.00  0.00    +0.000 HD
BRANCH  23  25
ATOM     25  C   UNL     1      -0.197  10.090  19.100  0.00  0.00    +0.000 A 
ATOM     26  C   UNL     1      -0.511  11.218  19.858  0.00  0.00    +0.000 A 
ATOM     27  C   UNL     1      -1.421  12.159  19.368  0.00  0.00    +0.000 A 
ATOM     28  C   UNL     1      -2.072  11.938  18.149  0.00  0.00    +0.000 A 
ATOM     29  C   UNL     1      -1.802  10.784  17.408  0.00  0.00    +0.000 A 
ATOM     30  C   UNL     1      -0.847   9.872  17.878  0.00  0.00    +0.000 A 
BRANCH  29  31
ATOM     31  C   UNL     1      -2.512  10.531  16.182  0.00  0.00    +0.000 C 
ATOM     32  N   UNL     1      -3.061  10.318  15.184  0.00  0.00    +0.000 NA
ENDBRANCH  29  31
ENDBRANCH  23  25
ENDBRANCH  20  21
ENDBRANCH   7  20
TORSDOF 8
ENDMDL
MODEL 2
REMARK VINA RESULT:      -7.5      2.195      3.160
REMARK  Name = 
REMARK  10 active torsions:
REMARK  status: ('A' for Active; 'I' for Inactive)
REMARK    1  A    between atoms: C_1  and  C_2
REMARK    2  A    between atoms: C_2  and  N_3
REMARK    3  A    between atoms: N_3  and  C_4
REMARK    4  A    between atoms: N_3  and  S_6
REMARK    5  A    between atoms: C_4  and  C_5
REMARK    6  A    between atoms: S_6  and  C_9
REMARK    7  A    between atoms: N_15  and  C_16
REMARK    8  A    between atoms: C_16  and  C_17
REMARK    9  A    between atoms: N_19  and  C_20
REMARK   10  A    between atoms: C_24  and  C_25
REMARK                            x       y       z     vdW  Elec       q    Type
REMARK                         _______ _______ _______ _____ _____    ______ ____
ROOT
ATOM      1  C   UNL     1       4.459   5.042  17.214  0.00  0.00    +0.000 A 
ATOM      2  C   UNL     1       4.533   3.828  16.532  0.00  0.00    +0.000 A 
ATOM      3  C   UNL     1       3.901   2.712  17.071  0.00  0.00    +0.000 A 
ATOM      4  C   UNL     1       3.220   2.813  18.288  0.00  0.00    +0.000 A 
ATOM      5  C   UNL     1       3.175   4.025  19.006  0.00  0.00    +0.000 A 
ATOM      6  C   UNL     1       3.783   5.151  18.439  0.00  0.00    +0.000 A 
ATOM      7  N   UNL     1       2.579   4.043  20.304  0.00  0.00    +0.000 N 
ATOM      8  C   UNL     1       1.958   2.894  20.778  0.00  0.00    +0.000 C 
ATOM      9  O   UNL     1       1.603   2.752  21.947  0.00  0.00    +0.000 OA
ATOM     10  C   UNL     1       1.652   1.861  19.706  0.00  0.00    +0.000 C 
ATOM     11  O   UNL     1       2.668   1.644  18.741  0.00  0.00    +0.000 OA
ENDROOT
BRANCH   1  12
ATOM     12  S   UNL     1       5.304   6.455  16.539  0.00  0.00    +0.000 S 
ATOM     13  O   UNL     1       4.416   7.587  16.692  0.00  0.00    +0.000 OA
ATOM     14  O   UNL     1       5.844   6.084  15.248  0.00  0.00    +0.000 OA
BRANCH  12  15
ATOM     15  N   UNL     1       6.637   6.661  17.605  0.00  0.00    +0.000 NA
BRANCH  15  17
ATOM     16  C   UNL     1       7.802   5.564  19.546  0.00  0.00    +0.000 C 
ATOM     17  C   UNL     1       7.163   5.385  18.178  0.00  0.00    +0.000 C 
ENDBRANCH  15  17
BRANCH  15  18
ATOM     18  C   UNL     1       7.676   7.601  17.081  0.00  0.00    +0.000 C 
ATOM     19  C   UNL     1       7.837   8.861  17.918  0.00  0.00    +0.000 C 
ENDBRANCH  15  18
ENDBRANCH  12  15
ENDBRANCH   1  12
BRANCH   7  20
ATOM     20  C   UNL     1       2.619   5.224  21.168  0.00  0.00    +0.000 C 
BRANCH  20  21
ATOM     21  C   UNL     1       1.559   6.289  20.876  0.00  0.00    +0.000 C 
ATOM     22  O   UNL     1       0.406   5.967  20.597  0.00  0.00    +0.000 OA
ATOM     23  N   UNL     1       2.022   7.592  20.936  0.00  0.00    +0.000 N 
ATOM     24  H   UNL     1       3.025   7.716  20.831  0.00  0.00    +0.000 HD
BRANCH  23  25
ATOM     25  C   UNL     1       1.192   8.704  20.669  0.00  0.00    +0.000 A 
ATOM     26  C   UNL     1       1.105   9.153  19.352  0.00  0.00    +0.000 A 
ATOM     27  C   UNL     1       0.245  10.206  19.028  0.00  0.00    +0.000 A 
ATOM     28  C   UNL     1      -0.476  10.859  20.034  0.00  0.00    +0.000 A 
ATOM     29  C   UNL     1      -0.353  10.449  21.364  0.00  0.00    +0.000 A 
ATOM     30  C   UNL     1       0.467   9.356  21.675  0.00  0.00    +0.000 A 
BRANCH  29  31
ATOM     31  C   UNL     1      -1.053  11.156  22.404  0.00  0.00    +0.000 C 
ATOM     32  N   UNL     1      -1.611  11.748  23.230  0.00  0.00    +0.000 NA
ENDBRANCH  29  31
ENDBRANCH  23  25
ENDBRANCH  20  21
ENDBRANCH   7  20
TORSDOF 8
ENDMDL
MODEL 3
REMARK VINA RESULT:      -7.2      1.843      2.778
REMARK  Name = 
REMARK  10 active torsions:
REMARK  status: ('A' for Active; 'I' for Inactive)
REMARK    1  A    between atoms: C_1  and  C_2
REMARK    2  A    between atoms: C_2  and  N_3
REMARK    3  A    between atoms: N_3  and  C_4
REMARK    4  A    between atoms: N_3  and  S_6
REMARK    5  A    between atoms: C_4  and  C_5
REMARK    6  A    between atoms: S_6  and  C_9
REMARK    7  A    between atoms: N_15  and  C_16
REMARK    8  A    between atoms: C_16  and  C_17
REMARK    9  A    between atoms: N_19  and  C_20
REMARK   10  A    between atoms: C_24  and  C_25
REMARK                            x       y       z     vdW  Elec       q    Type
REMARK                         _______ _______ _______ _____ _____    ______ ____
ROOT
ATOM      1  C   UNL     1       5.393   4.601  17.032  0.00  0.00    +0.000 A 
ATOM      2  C   UNL     1       5.110   3.351  16.483  0.00  0.00    +0.000 A 
ATOM      3  C   UNL     1       3.932   2.707  16.844  0.00  0.00    +0.000 A 
ATOM      4  C   UNL     1       3.059   3.305  17.760  0.00  0.00    +0.000 A 
ATOM      5  C   UNL     1       3.356   4.548  18.352  0.00  0.00    +0.000 A 
ATOM      6  C   UNL     1       4.526   5.206  17.956  0.00  0.00    +0.000 A 
ATOM      7  N   UNL     1       2.498   5.054  19.376  0.00  0.00    +0.000 N 
ATOM      8  C   UNL     1       1.331   4.363  19.682  0.00  0.00    +0.000 C 
ATOM      9  O   UNL     1       0.645   4.603  20.673  0.00  0.00    +0.000 OA
ATOM     10  C   UNL     1       0.910   3.350  18.629  0.00  0.00    +0.000 C 
ATOM     11  O   UNL     1       1.949   2.564  18.069  0.00  0.00    +0.000 OA
ENDROOT
BRANCH   1  12
ATOM     12  S   UNL     1       6.921   5.400  16.596  0.00  0.00    +0.000 S 
ATOM     13  O   UNL     1       6.703   6.060  15.327  0.00  0.00    +0.000 OA
ATOM     14  O   UNL     1       7.997   4.450  16.782  0.00  0.00    +0.000 OA
BRANCH  12  15
ATOM     15  N   UNL     1       7.095   6.604  17.812  0.00  0.00    +0.000 NA
BRANCH  15  17
ATOM     16  C   UNL     1       7.531   5.440  19.998  0.00  0.00    +0.000 C 
ATOM     17  C   UNL     1       8.104   6.270  18.862  0.00  0.00    +0.000 C 
ENDBRANCH  15  17
BRANCH  15  18
ATOM     18  C   UNL     1       7.181   7.993  17.263  0.00  0.00    +0.000 C 
ATOM     19  C   UNL     1       8.205   8.867  17.971  0.00  0.00    +0.000 C 
ENDBRANCH  15  18
ENDBRANCH  12  15
ENDBRANCH   1  12
BRANCH   7  20
ATOM     20  C   UNL     1       2.814   6.263  20.136  0.00  0.00    +0.000 C 
BRANCH  20  21
ATOM     21  C   UNL     1       2.168   7.552  19.620  0.00  0.00    +0.000 C 
ATOM     22  O   UNL     1       2.361   7.933  18.468  0.00  0.00    +0.000 OA
ATOM     23  N   UNL     1       1.397   8.223  20.555  0.00  0.00    +0.000 N 
ATOM     24  H   UNL     1       1.590   8.011  21.529  0.00  0.00    +0.000 HD
BRANCH  23  25
ATOM     25  C   UNL     1       0.747   9.443  20.264  0.00  0.00    +0.000 A 
ATOM     26  C   UNL     1      -0.103   9.483  19.160  0.00  0.00    +0.000 A 
ATOM     27  C   UNL     1      -0.820  10.648  18.872  0.00  0.00    +0.000 A 
ATOM     28  C   UNL     1      -0.633  11.797  19.647  0.00  0.00    +0.000 A 
ATOM     29  C   UNL     1       0.258  11.782  20.723  0.00  0.00    +0.000 A 
ATOM     30  C   UNL     1       0.932  10.594  21.042  0.00  0.00    +0.000 A 
BRANCH  29  31
ATOM     31  C   UNL     1       0.491  12.979  21.486  0.00  0.00    +0.000 C 
ATOM     32  N   UNL     1       0.689  13.956  22.078  0.00  0.00    +0.000 NA
ENDBRANCH  29  31
ENDBRANCH  23  25
ENDBRANCH  20  21
ENDBRANCH   7  20
TORSDOF 8
ENDMDL
MODEL 4
REMARK VINA RESULT:      -7.2      2.302      3.257
REMARK  Name = 
REMARK  10 active torsions:
REMARK  status: ('A' for Active; 'I' for Inactive)
REMARK    1  A    between atoms: C_1  and  C_2
REMARK    2  A    between atoms: C_2  and  N_3
REMARK    3  A    between atoms: N_3  and  C_4
REMARK    4  A    between atoms: N_3  and  S_6
REMARK    5  A    between atoms: C_4  and  C_5
REMARK    6  A    between atoms: S_6  and  C_9
REMARK    7  A    between atoms: N_15  and  C_16
REMARK    8  A    between atoms: C_16  and  C_17
REMARK    9  A    between atoms: N_19  and  C_20
REMARK   10  A    between atoms: C_24  and  C_25
REMARK                            x       y       z     vdW  Elec       q    Type
REMARK                         _______ _______ _______ _____ _____    ______ ____
ROOT
ATOM      1  C   UNL     1       4.411   5.202  17.162  0.00  0.00    +0.000 A 
ATOM      2  C   UNL     1       4.517   4.022  16.426  0.00  0.00    +0.000 A 
ATOM      3  C   UNL     1       3.932   2.862  16.921  0.00  0.00    +0.000 A 
ATOM      4  C   UNL     1       3.265   2.885  18.151  0.00  0.00    +0.000 A 
ATOM      5  C   UNL     1       3.188   4.061  18.923  0.00  0.00    +0.000 A 
ATOM      6  C   UNL     1       3.749   5.232  18.399  0.00  0.00    +0.000 A 
ATOM      7  N   UNL     1       2.611   4.001  20.227  0.00  0.00    +0.000 N 
ATOM      8  C   UNL     1       2.036   2.810  20.657  0.00  0.00    +0.000 C 
ATOM      9  O   UNL     1       1.703   2.604  21.823  0.00  0.00    +0.000 OA
ATOM     10  C   UNL     1       1.751   1.816  19.544  0.00  0.00    +0.000 C 
ATOM     11  O   UNL     1       2.760   1.678  18.557  0.00  0.00    +0.000 OA
ENDROOT
BRANCH   1  12
ATOM     12  S   UNL     1       5.197   6.672  16.541  0.00  0.00    +0.000 S 
ATOM     13  O   UNL     1       4.903   7.733  17.480  0.00  0.00    +0.000 OA
ATOM     14  O   UNL     1       4.878   6.794  15.134  0.00  0.00    +0.000 OA
BRANCH  12  15
ATOM     15  N   UNL     1       6.871   6.297  16.649  0.00  0.00    +0.000 NA
BRANCH  15  17
ATOM     16  C   UNL     1       7.653   5.598  18.935  0.00  0.00    +0.000 C 
ATOM     17  C   UNL     1       7.512   6.728  17.928  0.00  0.00    +0.000 C 
ENDBRANCH  15  17
BRANCH  15  18
ATOM     18  C   UNL     1       7.197   4.905  16.209  0.00  0.00    +0.000 C 
ATOM     19  C   UNL     1       7.387   4.768  14.706  0.00  0.00    +0.000 C 
ENDBRANCH  15  18
ENDBRANCH  12  15
ENDBRANCH   1  12
BRANCH   7  20
ATOM     20  C   UNL     1       2.623   5.142  21.143  0.00  0.00    +0.000 C 
BRANCH  20  21
ATOM     21  C   UNL     1       1.576   6.223  20.861  0.00  0.00    +0.000 C 
ATOM     22  O   UNL     1       0.427   5.917  20.545  0.00  0.00    +0.000 OA
ATOM     23  N   UNL     1       2.044   7.521  20.974  0.00  0.00    +0.000 N 
ATOM     24  H   UNL     1       3.049   7.641  20.897  0.00  0.00    +0.000 HD
BRANCH  23  25
ATOM     25  C   UNL     1       1.227   8.645  20.724  0.00  0.00    +0.000 A 
ATOM     26  C   UNL     1       1.093   9.075  19.404  0.00  0.00    +0.000 A 
ATOM     27  C   UNL     1       0.242  10.141  19.099  0.00  0.00    +0.000 A 
ATOM     28  C   UNL     1      -0.422  10.825  20.123  0.00  0.00    +0.000 A 
ATOM     29  C   UNL     1      -0.251  10.434  21.454  0.00  0.00    +0.000 A 
ATOM     30  C   UNL     1       0.559   9.329  21.748  0.00  0.00    +0.000 A 
BRANCH  29  31
ATOM     31  C   UNL     1      -0.891  11.172  22.510  0.00  0.00    +0.000 C 
ATOM     32  N   UNL     1      -1.425  11.775  23.344  0.00  0.00    +0.000 NA
ENDBRANCH  29  31
ENDBRANCH  23  25
ENDBRANCH  20  21
ENDBRANCH   7  20
TORSDOF 8
ENDMDL
MODEL 5
REMARK VINA RESULT:      -7.1      1.555      2.033
REMARK  Name = 
REMARK  10 active torsions:
REMARK  status: ('A' for Active; 'I' for Inactive)
REMARK    1  A    between atoms: C_1  and  C_2
REMARK    2  A    between atoms: C_2  and  N_3
REMARK    3  A    between atoms: N_3  and  C_4
REMARK    4  A    between atoms: N_3  and  S_6
REMARK    5  A    between atoms: C_4  and  C_5
REMARK    6  A    between atoms: S_6  and  C_9
REMARK    7  A    between atoms: N_15  and  C_16
REMARK    8  A    between atoms: C_16  and  C_17
REMARK    9  A    between atoms: N_19  and  C_20
REMARK   10  A    between atoms: C_24  and  C_25
REMARK                            x       y       z     vdW  Elec       q    Type
REMARK                         _______ _______ _______ _____ _____    ______ ____
ROOT
ATOM      1  C   UNL     1       4.907   4.633  16.513  0.00  0.00    +0.000 A 
ATOM      2  C   UNL     1       4.598   3.340  16.091  0.00  0.00    +0.000 A 
ATOM      3  C   UNL     1       3.619   2.624  16.771  0.00  0.00    +0.000 A 
ATOM      4  C   UNL     1       2.974   3.194  17.874  0.00  0.00    +0.000 A 
ATOM      5  C   UNL     1       3.308   4.483  18.334  0.00  0.00    +0.000 A 
ATOM      6  C   UNL     1       4.269   5.210  17.622  0.00  0.00    +0.000 A 
ATOM      7  N   UNL     1       2.714   4.968  19.539  0.00  0.00    +0.000 N 
ATOM      8  C   UNL     1       1.736   4.203  20.164  0.00  0.00    +0.000 C 
ATOM      9  O   UNL     1       1.320   4.436  21.298  0.00  0.00    +0.000 OA
ATOM     10  C   UNL     1       1.139   3.113  19.289  0.00  0.00    +0.000 C 
ATOM     11  O   UNL     1       2.055   2.385  18.488  0.00  0.00    +0.000 OA
ENDROOT
BRANCH   1  12
ATOM     12  S   UNL     1       6.188   5.526  15.663  0.00  0.00    +0.000 S 
ATOM     13  O   UNL     1       5.570   6.704  15.092  0.00  0.00    +0.000 OA
ATOM     14  O   UNL     1       6.929   4.588  14.847  0.00  0.00    +0.000 OA
BRANCH  12  15
ATOM     15  N   UNL     1       7.232   6.023  16.936  0.00  0.00    +0.000 NA
BRANCH  15  17
ATOM     16  C   UNL     1       7.966   8.340  17.583  0.00  0.00    +0.000 C 
ATOM     17  C   UNL     1       6.843   7.315  17.575  0.00  0.00    +0.000 C 
ENDBRANCH  15  17
BRANCH  15  18
ATOM     18  C   UNL     1       7.576   4.919  17.885  0.00  0.00    +0.000 C 
ATOM     19  C   UNL     1       7.658   5.366  19.337  0.00  0.00    +0.000 C 
ENDBRANCH  15  18
ENDBRANCH  12  15
ENDBRANCH   1  12
BRANCH   7  20
ATOM     20  C   UNL     1       3.114   6.232  20.157  0.00  0.00    +0.000 C 
BRANCH  20  21
ATOM     21  C   UNL     1       2.107   7.377  20.026  0.00  0.00    +0.000 C 
ATOM     22  O   UNL     1       1.719   7.749  18.920  0.00  0.00    +0.000 OA
ATOM     23  N   UNL     1       1.713   7.937  21.229  0.00  0.00    +0.000 N 
ATOM     24  H   UNL     1       2.338   7.791  22.016  0.00  0.00    +0.000 HD
BRANCH  23  25
ATOM     25  C   UNL     1       0.810   9.021  21.301  0.00  0.00    +0.000 A 
ATOM     26  C   UNL     1       0.185   9.271  22.522  0.00  0.00    +0.000 A 
ATOM     27  C   UNL     1      -0.665  10.371  22.660  0.00  0.00    +0.000 A 
ATOM     28  C   UNL     1      -0.947  11.184  21.556  0.00  0.00    +0.000 A 
ATOM     29  C   UNL     1      -0.367  10.908  20.315  0.00  0.00    +0.000 A 
ATOM     30  C   UNL     1       0.529   9.836  20.197  0.00  0.00    +0.000 A 
BRANCH  29  31
ATOM     31  C   UNL     1      -0.700  11.711  19.168  0.00  0.00    +0.000 C 
ATOM     32  N   UNL     1      -0.994  12.358  18.252  0.00  0.00    +0.000 NA
ENDBRANCH  29  31
ENDBRANCH  23  25
ENDBRANCH  20  21
ENDBRANCH   7  20
TORSDOF 8
ENDMDL
MODEL 6
REMARK VINA RESULT:      -7.1      0.987      1.497
REMARK  Name = 
REMARK  10 active torsions:
REMARK  status: ('A' for Active; 'I' for Inactive)
REMARK    1  A    between atoms: C_1  and  C_2
REMARK    2  A    between atoms: C_2  and  N_3
REMARK    3  A    between atoms: N_3  and  C_4
REMARK    4  A    between atoms: N_3  and  S_6
REMARK    5  A    between atoms: C_4  and  C_5
REMARK    6  A    between atoms: S_6  and  C_9
REMARK    7  A    between atoms: N_15  and  C_16
REMARK    8  A    between atoms: C_16  and  C_17
REMARK    9  A    between atoms: N_19  and  C_20
REMARK   10  A    between atoms: C_24  and  C_25
REMARK                            x       y       z     vdW  Elec       q    Type
REMARK                         _______ _______ _______ _____ _____    ______ ____
ROOT
ATOM      1  C   UNL     1       5.074   4.832  16.953  0.00  0.00    +0.000 A 
ATOM      2  C   UNL     1       4.863   3.469  16.749  0.00  0.00    +0.000 A 
ATOM      3  C   UNL     1       3.793   2.849  17.385  0.00  0.00    +0.000 A 
ATOM      4  C   UNL     1       2.957   3.588  18.229  0.00  0.00    +0.000 A 
ATOM      5  C   UNL     1       3.187   4.956  18.475  0.00  0.00    +0.000 A 
ATOM      6  C   UNL     1       4.245   5.580  17.803  0.00  0.00    +0.000 A 
ATOM      7  N   UNL     1       2.385   5.633  19.444  0.00  0.00    +0.000 N 
ATOM      8  C   UNL     1       1.326   4.955  20.037  0.00  0.00    +0.000 C 
ATOM      9  O   UNL     1       0.717   5.380  21.017  0.00  0.00    +0.000 OA
ATOM     10  C   UNL     1       0.908   3.689  19.307  0.00  0.00    +0.000 C 
ATOM     11  O   UNL     1       1.960   2.867  18.830  0.00  0.00    +0.000 OA
ENDROOT
BRANCH   1  12
ATOM     12  S   UNL     1       6.469   5.608  16.168  0.00  0.00    +0.000 S 
ATOM     13  O   UNL     1       5.938   6.541  15.197  0.00  0.00    +0.000 OA
ATOM     14  O   UNL     1       7.409   4.574  15.791  0.00  0.00    +0.000 OA
BRANCH  12  15
ATOM     15  N   UNL     1       7.190   6.505  17.446  0.00  0.00    +0.000 NA
BRANCH  15  17
ATOM     16  C   UNL     1       7.336   5.571  19.777  0.00  0.00    +0.000 C 
ATOM     17  C   UNL     1       7.980   5.674  18.404  0.00  0.00    +0.000 C 
ENDBRANCH  15  17
BRANCH  15  18
ATOM     18  C   UNL     1       7.860   7.760  16.986  0.00  0.00    +0.000 C 
ATOM     19  C   UNL     1       8.052   8.790  18.089  0.00  0.00    +0.000 C 
ENDBRANCH  15  18
ENDBRANCH  12  15
ENDBRANCH   1  12
BRANCH   7  20
ATOM     20  C   UNL     1       2.653   7.011  19.858  0.00  0.00    +0.000 C 
BRANCH  20  21
ATOM     21  C   UNL     1       1.871   8.088  19.103  0.00  0.00    +0.000 C 
ATOM     22  O   UNL     1       1.886   8.130  17.874  0.00  0.00    +0.000 OA
ATOM     23  N   UNL     1       1.193   8.982  19.914  0.00  0.00    +0.000 N 
ATOM     24  H   UNL     1       1.526   9.059  20.871  0.00  0.00    +0.000 HD
BRANCH  23  25
ATOM     25  C   UNL     1       0.441  10.058  19.393  0.00  0.00    +0.000 A 
ATOM     26  C   UNL     1       1.047  11.313  19.339  0.00  0.00    +0.000 A 
ATOM     27  C   UNL     1       0.367  12.393  18.770  0.00  0.00    +0.000 A 
ATOM     28  C   UNL     1      -0.947  12.237  18.317  0.00  0.00    +0.000 A 
ATOM     29  C   UNL     1      -1.581  10.995  18.416  0.00  0.00    +0.000 A 
ATOM     30  C   UNL     1      -0.874   9.901  18.936  0.00  0.00    +0.000 A 
BRANCH  29  31
ATOM     31  C   UNL     1      -2.950  10.848  18.001  0.00  0.00    +0.000 C 
ATOM     32  N   UNL     1      -4.061  10.749  17.685  0.00  0.00    +0.000 NA
ENDBRANCH  29  31
ENDBRANCH  23  25
ENDBRANCH  20  21
ENDBRANCH   7  20
TORSDOF 8
ENDMDL
MODEL 7
REMARK VINA RESULT:      -7.0      1.580      2.283
REMARK  Name = 
REMARK  10 active torsions:
REMARK  status: ('A' for Active; 'I' for Inactive)
REMARK    1  A    between atoms: C_1  and  C_2
REMARK    2  A    between atoms: C_2  and  N_3
REMARK    3  A    between atoms: N_3  and  C_4
REMARK    4  A    between atoms: N_3  and  S_6
REMARK    5  A    between atoms: C_4  and  C_5
REMARK    6  A    between atoms: S_6  and  C_9
REMARK    7  A    between atoms: N_15  and  C_16
REMARK    8  A    between atoms: C_16  and  C_17
REMARK    9  A    between atoms: N_19  and  C_20
REMARK   10  A    between atoms: C_24  and  C_25
REMARK                            x       y       z     vdW  Elec       q    Type
REMARK                         _______ _______ _______ _____ _____    ______ ____
ROOT
ATOM      1  C   UNL     1       4.758   4.832  16.641  0.00  0.00    +0.000 A 
ATOM      2  C   UNL     1       4.449   3.607  16.051  0.00  0.00    +0.000 A 
ATOM      3  C   UNL     1       3.456   2.816  16.618  0.00  0.00    +0.000 A 
ATOM      4  C   UNL     1       2.796   3.245  17.775  0.00  0.00    +0.000 A 
ATOM      5  C   UNL     1       3.130   4.462  18.403  0.00  0.00    +0.000 A 
ATOM      6  C   UNL     1       4.106   5.267  17.804  0.00  0.00    +0.000 A 
ATOM      7  N   UNL     1       2.519   4.791  19.651  0.00  0.00    +0.000 N 
ATOM      8  C   UNL     1       1.527   3.960  20.157  0.00  0.00    +0.000 C 
ATOM      9  O   UNL     1       1.094   4.048  21.305  0.00  0.00    +0.000 OA
ATOM     10  C   UNL     1       0.938   2.996  19.140  0.00  0.00    +0.000 C 
ATOM     11  O   UNL     1       1.863   2.370  18.266  0.00  0.00    +0.000 OA
ENDROOT
BRANCH   1  12
ATOM     12  S   UNL     1       6.058   5.818  15.932  0.00  0.00    +0.000 S 
ATOM     13  O   UNL     1       5.427   6.972  15.328  0.00  0.00    +0.000 OA
ATOM     14  O   UNL     1       6.926   4.943  15.172  0.00  0.00    +0.000 OA
BRANCH  12  15
ATOM     15  N   UNL     1       6.948   6.342  17.307  0.00  0.00    +0.000 NA
BRANCH  15  17
ATOM     16  C   UNL     1       7.615   5.556  19.601  0.00  0.00    +0.000 C 
ATOM     17  C   UNL     1       7.528   5.231  18.118  0.00  0.00    +0.000 C 
ENDBRANCH  15  17
BRANCH  15  18
ATOM     18  C   UNL     1       7.882   7.473  17.014  0.00  0.00    +0.000 C 
ATOM     19  C   UNL     1       7.584   8.733  17.813  0.00  0.00    +0.000 C 
ENDBRANCH  15  18
ENDBRANCH  12  15
ENDBRANCH   1  12
BRANCH   7  20
ATOM     20  C   UNL     1       2.917   5.962  20.432  0.00  0.00    +0.000 C 
BRANCH  20  21
ATOM     21  C   UNL     1       2.067   7.217  20.216  0.00  0.00    +0.000 C 
ATOM     22  O   UNL     1       1.990   7.740  19.106  0.00  0.00    +0.000 OA
ATOM     23  N   UNL     1       1.441   7.691  21.356  0.00  0.00    +0.000 N 
ATOM     24  H   UNL     1       1.843   7.399  22.242  0.00  0.00    +0.000 HD
BRANCH  23  25
ATOM     25  C   UNL     1       0.638   8.854  21.352  0.00  0.00    +0.000 A 
ATOM     26  C   UNL     1       0.265   9.394  22.582  0.00  0.00    +0.000 A 
ATOM     27  C   UNL     1      -0.472  10.581  22.629  0.00  0.00    +0.000 A 
ATOM     28  C   UNL     1      -0.898  11.191  21.444  0.00  0.00    +0.000 A 
ATOM     29  C   UNL     1      -0.573  10.626  20.208  0.00  0.00    +0.000 A 
ATOM     30  C   UNL     1       0.214   9.467  20.166  0.00  0.00    +0.000 A 
BRANCH  29  31
ATOM     31  C   UNL     1      -1.058  11.224  18.992  0.00  0.00    +0.000 C 
ATOM     32  N   UNL     1      -1.463  11.683  18.007  0.00  0.00    +0.000 NA
ENDBRANCH  29  31
ENDBRANCH  23  25
ENDBRANCH  20  21
ENDBRANCH   7  20
TORSDOF 8
ENDMDL
MODEL 8
REMARK VINA RESULT:      -7.0      2.042      2.700
REMARK  Name = 
REMARK  10 active torsions:
REMARK  status: ('A' for Active; 'I' for Inactive)
REMARK    1  A    between atoms: C_1  and  C_2
REMARK    2  A    between atoms: C_2  and  N_3
REMARK    3  A    between atoms: N_3  and  C_4
REMARK    4  A    between atoms: N_3  and  S_6
REMARK    5  A    between atoms: C_4  and  C_5
REMARK    6  A    between atoms: S_6  and  C_9
REMARK    7  A    between atoms: N_15  and  C_16
REMARK    8  A    between atoms: C_16  and  C_17
REMARK    9  A    between atoms: N_19  and  C_20
REMARK   10  A    between atoms: C_24  and  C_25
REMARK                            x       y       z     vdW  Elec       q    Type
REMARK                         _______ _______ _______ _____ _____    ______ ____
ROOT
ATOM      1  C   UNL     1       5.745   4.425  17.953  0.00  0.00    +0.000 A 
ATOM      2  C   UNL     1       5.529   3.353  17.087  0.00  0.00    +0.000 A 
ATOM      3  C   UNL     1       4.265   2.775  17.031  0.00  0.00    +0.000 A 
ATOM      4  C   UNL     1       3.238   3.258  17.849  0.00  0.00    +0.000 A 
ATOM      5  C   UNL     1       3.457   4.313  18.758  0.00  0.00    +0.000 A 
ATOM      6  C   UNL     1       4.722   4.911  18.781  0.00  0.00    +0.000 A 
ATOM      7  N   UNL     1       2.414   4.682  19.661  0.00  0.00    +0.000 N 
ATOM      8  C   UNL     1       1.172   4.069  19.544  0.00  0.00    +0.000 C 
ATOM      9  O   UNL     1       0.288   4.169  20.393  0.00  0.00    +0.000 OA
ATOM     10  C   UNL     1       0.952   3.348  18.225  0.00  0.00    +0.000 C 
ATOM     11  O   UNL     1       2.047   2.591  17.737  0.00  0.00    +0.000 OA
ENDROOT
BRANCH   1  12
ATOM     12  S   UNL     1       7.375   5.131  18.048  0.00  0.00    +0.000 S 
ATOM     13  O   UNL     1       8.301   4.109  17.609  0.00  0.00    +0.000 OA
ATOM     14  O   UNL     1       7.513   5.777  19.336  0.00  0.00    +0.000 OA
BRANCH  12  15
ATOM     15  N   UNL     1       7.334   6.374  16.861  0.00  0.00    +0.000 NA
BRANCH  15  17
ATOM     16  C   UNL     1       5.286   6.611  15.420  0.00  0.00    +0.000 C 
ATOM     17  C   UNL     1       6.658   5.980  15.588  0.00  0.00    +0.000 C 
ENDBRANCH  15  17
BRANCH  15  18
ATOM     18  C   UNL     1       6.933   7.706  17.410  0.00  0.00    +0.000 C 
ATOM     19  C   UNL     1       8.111   8.590  17.788  0.00  0.00    +0.000 C 
ENDBRANCH  15  18
ENDBRANCH  12  15
ENDBRANCH   1  12
BRANCH   7  20
ATOM     20  C   UNL     1       2.611   5.666  20.725  0.00  0.00    +0.000 C 
BRANCH  20  21
ATOM     21  C   UNL     1       1.978   7.038  20.478  0.00  0.00    +0.000 C 
ATOM     22  O   UNL     1       2.245   7.679  19.463  0.00  0.00    +0.000 OA
ATOM     23  N   UNL     1       1.129   7.470  21.483  0.00  0.00    +0.000 N 
ATOM     24  H   UNL     1       1.256   7.036  22.392  0.00  0.00    +0.000 HD
BRANCH  23  25
ATOM     25  C   UNL     1       0.477   8.722  21.438  0.00  0.00    +0.000 A 
ATOM     26  C   UNL     1       0.224   9.370  22.646  0.00  0.00    +0.000 A 
ATOM     27  C   UNL     1      -0.358  10.640  22.650  0.00  0.00    +0.000 A 
ATOM     28  C   UNL     1      -0.752  11.236  21.446  0.00  0.00    +0.000 A 
ATOM     29  C   UNL     1      -0.550  10.570  20.234  0.00  0.00    +0.000 A 
ATOM     30  C   UNL     1       0.085   9.320  20.233  0.00  0.00    +0.000 A 
BRANCH  29  31
ATOM     31  C   UNL     1      -1.005  11.158  19.003  0.00  0.00    +0.000 C 
ATOM     32  N   UNL     1      -1.397  11.626  18.017  0.00  0.00    +0.000 NA
ENDBRANCH  29  31
ENDBRANCH  23  25
ENDBRANCH  20  21
ENDBRANCH   7  20
TORSDOF 8
ENDMDL
MODEL 9
REMARK VINA RESULT:      -6.9      1.867      2.731
REMARK  Name = 
REMARK  10 active torsions:
REMARK  status: ('A' for Active; 'I' for Inactive)
REMARK    1  A    between atoms: C_1  and  C_2
REMARK    2  A    between atoms: C_2  and  N_3
REMARK    3  A    between atoms: N_3  and  C_4
REMARK    4  A    between atoms: N_3  and  S_6
REMARK    5  A    between atoms: C_4  and  C_5
REMARK    6  A    between atoms: S_6  and  C_9
REMARK    7  A    between atoms: N_15  and  C_16
REMARK    8  A    between atoms: C_16  and  C_17
REMARK    9  A    between atoms: N_19  and  C_20
REMARK   10  A    between atoms: C_24  and  C_25
REMARK                            x       y       z     vdW  Elec       q    Type
REMARK                         _______ _______ _______ _____ _____    ______ ____
ROOT
ATOM      1  C   UNL     1       4.318   5.376  17.089  0.00  0.00    +0.000 A 
ATOM      2  C   UNL     1       4.305   4.217  16.313  0.00  0.00    +0.000 A 
ATOM      3  C   UNL     1       3.601   3.108  16.768  0.00  0.00    +0.000 A 
ATOM      4  C   UNL     1       2.935   3.158  17.998  0.00  0.00    +0.000 A 
ATOM      5  C   UNL     1       2.978   4.309  18.810  0.00  0.00    +0.000 A 
ATOM      6  C   UNL     1       3.658   5.432  18.327  0.00  0.00    +0.000 A 
ATOM      7  N   UNL     1       2.392   4.264  20.112  0.00  0.00    +0.000 N 
ATOM      8  C   UNL     1       1.697   3.125  20.500  0.00  0.00    +0.000 C 
ATOM      9  O   UNL     1       1.340   2.915  21.658  0.00  0.00    +0.000 OA
ATOM     10  C   UNL     1       1.315   2.204  19.354  0.00  0.00    +0.000 C 
ATOM     11  O   UNL     1       2.308   1.996  18.363  0.00  0.00    +0.000 OA
ENDROOT
BRANCH   1  12
ATOM     12  S   UNL     1       5.254   6.777  16.519  0.00  0.00    +0.000 S 
ATOM     13  O   UNL     1       5.023   7.848  17.464  0.00  0.00    +0.000 OA
ATOM     14  O   UNL     1       4.998   6.945  15.104  0.00  0.00    +0.000 OA
BRANCH  12  15
ATOM     15  N   UNL     1       6.883   6.252  16.679  0.00  0.00    +0.000 NA
BRANCH  15  17
ATOM     16  C   UNL     1       7.398   5.598  19.052  0.00  0.00    +0.000 C 
ATOM     17  C   UNL     1       7.530   6.652  17.964  0.00  0.00    +0.000 C 
ENDBRANCH  15  17
BRANCH  15  18
ATOM     18  C   UNL     1       7.089   4.826  16.277  0.00  0.00    +0.000 C 
ATOM     19  C   UNL     1       7.266   4.633  14.778  0.00  0.00    +0.000 C 
ENDBRANCH  15  18
ENDBRANCH  12  15
ENDBRANCH   1  12
BRANCH   7  20
ATOM     20  C   UNL     1       2.519   5.366  21.066  0.00  0.00    +0.000 C 
BRANCH  20  21
ATOM     21  C   UNL     1       1.403   6.413  21.013  0.00  0.00    +0.000 C 
ATOM     22  O   UNL     1       0.278   6.112  20.620  0.00  0.00    +0.000 OA
ATOM     23  N   UNL     1       1.785   7.681  21.417  0.00  0.00    +0.000 N 
ATOM     24  H   UNL     1       2.780   7.880  21.384  0.00  0.00    +0.000 HD
BRANCH  23  25
ATOM     25  C   UNL     1       0.895   8.778  21.409  0.00  0.00    +0.000 A 
ATOM     26  C   UNL     1       0.406   9.231  22.634  0.00  0.00    +0.000 A 
ATOM     27  C   UNL     1      -0.423  10.354  22.683  0.00  0.00    +0.000 A 
ATOM     28  C   UNL     1      -0.823  10.985  21.500  0.00  0.00    +0.000 A 
ATOM     29  C   UNL     1      -0.381  10.504  20.264  0.00  0.00    +0.000 A 
ATOM     30  C   UNL     1       0.497   9.411  20.225  0.00  0.00    +0.000 A 
BRANCH  29  31
ATOM     31  C   UNL     1      -0.836  11.119  19.046  0.00  0.00    +0.000 C 
ATOM     32  N   UNL     1      -1.201  11.590  18.051  0.00  0.00    +0.000 NA
ENDBRANCH  29  31
ENDBRANCH  23  25
ENDBRANCH  20  21
ENDBRANCH   7  20
TORSDOF 8
ENDMDL
