MODEL 1
REMARK VINA RESULT:      -7.5      0.000      0.000
REMARK  Name = 
REMARK  4 active torsions:
REMARK  status: ('A' for Active; 'I' for Inactive)
REMARK    1  A    between atoms: C_2  and  C_3
REMARK    2  A    between atoms: C_2  and  C_4
REMARK    3  A    between atoms: C_7  and  C_8
REMARK    4  A    between atoms: C_9  and  O_10
REMARK                            x       y       z     vdW  Elec       q    Type
REMARK                         _______ _______ _______ _____ _____    ______ ____
ROOT
ATOM      1  C   UNL     1       6.436   4.395  15.326  0.00  0.00    +0.000 C 
ATOM      2  C   UNL     1       4.933   4.632  15.629  0.00  0.00    +0.000 C 
ATOM      3  C   UNL     1       4.330   3.426  16.332  0.00  0.00    +0.000 C 
ATOM      4  C   UNL     1       3.847   3.337  17.588  0.00  0.00    +0.000 C 
ATOM      5  C   UNL     1       3.389   2.007  18.143  0.00  0.00    +0.000 C 
ATOM      6  C   UNL     1       3.781   4.511  18.535  0.00  0.00    +0.000 C 
ATOM      7  C   UNL     1       5.003   4.559  19.477  0.00  0.00    +0.000 C 
ATOM      8  C   UNL     1       5.971   5.688  19.098  0.00  0.00    +0.000 C 
ATOM      9  C   UNL     1       7.328   5.389  18.489  0.00  0.00    +0.000 C 
ATOM     10  C   UNL     1       7.599   4.481  17.539  0.00  0.00    +0.000 C 
ATOM     11  C   UNL     1       7.506   5.125  16.185  0.00  0.00    +0.000 C 
ATOM     12  O   UNL     1       7.338   6.501  16.470  0.00  0.00    +0.000 OA
ATOM     13  C   UNL     1       7.703   6.656  17.786  0.00  0.00    +0.000 C 
ATOM     14  O   UNL     1       8.135   7.650  18.321  0.00  0.00    +0.000 OA
ENDROOT
BRANCH   1  16
ATOM     15  C   UNL     1       7.719   5.182  13.291  0.00  0.00    +0.000 C 
ATOM     16  C   UNL     1       6.728   4.456  13.833  0.00  0.00    +0.000 C 
ATOM     17  C   UNL     1       5.828   3.586  12.996  0.00  0.00    +0.000 C 
ENDBRANCH   1  16
BRANCH   6  18
ATOM     18  O   UNL     1       2.566   4.452  19.285  0.00  0.00    +0.000 OA
ATOM     19  H   UNL     1       1.907   3.973  18.761  0.00  0.00    +0.000 HD
ENDBRANCH   6  18
TORSDOF 2
ENDMDL
MODEL 2
REMARK VINA RESULT:      -7.3      2.452      4.601
REMARK  Name = 
REMARK  4 active torsions:
REMARK  status: ('A' for Active; 'I' for Inactive)
REMARK    1  A    between atoms: C_2  and  C_3
REMARK    2  A    between atoms: C_2  and  C_4
REMARK    3  A    between atoms: C_7  and  C_8
REMARK    4  A    between atoms: C_9  and  O_10
REMARK                            x       y       z     vdW  Elec       q    Type
REMARK                         _______ _______ _______ _____ _____    ______ ____
ROOT
ATOM      1  C   UNL     1       4.637   4.723  16.673  0.00  0.00    +0.000 C 
ATOM      2  C   UNL     1       4.842   5.799  17.773  0.00  0.00    +0.000 C 
ATOM      3  C   UNL     1       3.892   6.968  17.564  0.00  0.00    +0.000 C 
ATOM      4  C   UNL     1       2.870   7.374  18.345  0.00  0.00    +0.000 C 
ATOM      5  C   UNL     1       1.964   8.500  17.902  0.00  0.00    +0.000 C 
ATOM      6  C   UNL     1       2.520   6.716  19.657  0.00  0.00    +0.000 C 
ATOM      7  C   UNL     1       1.402   5.664  19.494  0.00  0.00    +0.000 C 
ATOM      8  C   UNL     1       1.945   4.233  19.610  0.00  0.00    +0.000 C 
ATOM      9  C   UNL     1       2.021   3.321  18.399  0.00  0.00    +0.000 C 
ATOM     10  C   UNL     1       2.428   3.658  17.165  0.00  0.00    +0.000 C 
ATOM     11  C   UNL     1       3.903   3.402  17.034  0.00  0.00    +0.000 C 
ATOM     12  O   UNL     1       4.243   2.732  18.233  0.00  0.00    +0.000 OA
ATOM     13  C   UNL     1       3.053   2.303  18.770  0.00  0.00    +0.000 C 
ATOM     14  O   UNL     1       2.870   1.357  19.501  0.00  0.00    +0.000 OA
ENDROOT
BRANCH   1  16
ATOM     15  C   UNL     1       5.920   4.279  14.537  0.00  0.00    +0.000 C 
ATOM     16  C   UNL     1       5.905   4.497  15.861  0.00  0.00    +0.000 C 
ATOM     17  C   UNL     1       7.174   4.580  16.669  0.00  0.00    +0.000 C 
ENDBRANCH   1  16
BRANCH   6  18
ATOM     18  O   UNL     1       2.140   7.715  20.606  0.00  0.00    +0.000 OA
ATOM     19  H   UNL     1       1.533   7.314  21.245  0.00  0.00    +0.000 HD
ENDBRANCH   6  18
TORSDOF 2
ENDMDL
MODEL 3
REMARK VINA RESULT:      -7.2      2.469      4.327
REMARK  Name = 
REMARK  4 active torsions:
REMARK  status: ('A' for Active; 'I' for Inactive)
REMARK    1  A    between atoms: C_2  and  C_3
REMARK    2  A    between atoms: C_2  and  C_4
REMARK    3  A    between atoms: C_7  and  C_8
REMARK    4  A    between atoms: C_9  and  O_10
REMARK                            x       y       z     vdW  Elec       q    Type
REMARK                         _______ _______ _______ _____ _____    ______ ____
ROOT
ATOM      1  C   UNL     1       4.795   4.879  17.103  0.00  0.00    +0.000 C 
ATOM      2  C   UNL     1       4.833   6.201  17.916  0.00  0.00    +0.000 C 
ATOM      3  C   UNL     1       3.615   7.057  17.607  0.00  0.00    +0.000 C 
ATOM      4  C   UNL     1       2.600   7.405  18.424  0.00  0.00    +0.000 C 
ATOM      5  C   UNL     1       1.414   8.175  17.891  0.00  0.00    +0.000 C 
ATOM      6  C   UNL     1       2.539   7.014  19.880  0.00  0.00    +0.000 C 
ATOM      7  C   UNL     1       1.697   5.738  20.099  0.00  0.00    +0.000 C 
ATOM      8  C   UNL     1       2.577   4.525  20.430  0.00  0.00    +0.000 C 
ATOM      9  C   UNL     1       2.760   3.393  19.436  0.00  0.00    +0.000 C 
ATOM     10  C   UNL     1       2.961   3.510  18.114  0.00  0.00    +0.000 C 
ATOM     11  C   UNL     1       4.436   3.553  17.830  0.00  0.00    +0.000 C 
ATOM     12  O   UNL     1       5.035   3.271  19.081  0.00  0.00    +0.000 OA
ATOM     13  C   UNL     1       4.036   2.735  19.859  0.00  0.00    +0.000 C 
ATOM     14  O   UNL     1       4.153   1.971  20.788  0.00  0.00    +0.000 OA
ENDROOT
BRANCH   1  16
ATOM     15  C   UNL     1       7.273   4.727  16.611  0.00  0.00    +0.000 C 
ATOM     16  C   UNL     1       6.001   4.745  16.183  0.00  0.00    +0.000 C 
ATOM     17  C   UNL     1       5.648   4.588  14.727  0.00  0.00    +0.000 C 
ENDBRANCH   1  16
BRANCH   6  18
ATOM     18  O   UNL     1       2.017   8.102  20.646  0.00  0.00    +0.000 OA
ATOM     19  H   UNL     1       2.422   8.922  20.325  0.00  0.00    +0.000 HD
ENDBRANCH   6  18
TORSDOF 2
ENDMDL
MODEL 4
REMARK VINA RESULT:      -7.1      2.456      5.984
REMARK  Name = 
REMARK  4 active torsions:
REMARK  status: ('A' for Active; 'I' for Inactive)
REMARK    1  A    between atoms: C_2  and  C_3
REMARK    2  A    between atoms: C_2  and  C_4
REMARK    3  A    between atoms: C_7  and  C_8
REMARK    4  A    between atoms: C_9  and  O_10
REMARK                            x       y       z     vdW  Elec       q    Type
REMARK                         _______ _______ _______ _____ _____    ______ ____
ROOT
ATOM      1  C   UNL     1       2.987   6.812  18.921  0.00  0.00    +0.000 C 
ATOM      2  C   UNL     1       3.536   7.223  17.529  0.00  0.00    +0.000 C 
ATOM      3  C   UNL     1       5.047   7.387  17.575  0.00  0.00    +0.000 C 
ATOM      4  C   UNL     1       5.993   6.656  16.951  0.00  0.00    +0.000 C 
ATOM      5  C   UNL     1       7.460   6.910  17.216  0.00  0.00    +0.000 C 
ATOM      6  C   UNL     1       5.675   5.518  16.012  0.00  0.00    +0.000 C 
ATOM      7  C   UNL     1       5.713   4.152  16.730  0.00  0.00    +0.000 C 
ATOM      8  C   UNL     1       4.305   3.579  16.940  0.00  0.00    +0.000 C 
ATOM      9  C   UNL     1       3.686   3.503  18.323  0.00  0.00    +0.000 C 
ATOM     10  C   UNL     1       3.729   4.449  19.275  0.00  0.00    +0.000 C 
ATOM     11  C   UNL     1       2.529   5.344  19.151  0.00  0.00    +0.000 C 
ATOM     12  O   UNL     1       1.729   4.712  18.170  0.00  0.00    +0.000 OA
ATOM     13  C   UNL     1       2.214   3.430  18.063  0.00  0.00    +0.000 C 
ATOM     14  O   UNL     1       1.615   2.440  17.715  0.00  0.00    +0.000 OA
ENDROOT
BRANCH   1  16
ATOM     15  C   UNL     1       1.510   7.816  20.714  0.00  0.00    +0.000 C 
ATOM     16  C   UNL     1       2.000   7.835  19.465  0.00  0.00    +0.000 C 
ATOM     17  C   UNL     1       1.639   8.920  18.485  0.00  0.00    +0.000 C 
ENDBRANCH   1  16
BRANCH   6  18
ATOM     18  O   UNL     1       6.586   5.538  14.912  0.00  0.00    +0.000 OA
ATOM     19  H   UNL     1       6.099   5.302  14.108  0.00  0.00    +0.000 HD
ENDBRANCH   6  18
TORSDOF 2
ENDMDL
MODEL 5
REMARK VINA RESULT:      -6.9      2.250      5.552
REMARK  Name = 
REMARK  4 active torsions:
REMARK  status: ('A' for Active; 'I' for Inactive)
REMARK    1  A    between atoms: C_2  and  C_3
REMARK    2  A    between atoms: C_2  and  C_4
REMARK    3  A    between atoms: C_7  and  C_8
REMARK    4  A    between atoms: C_9  and  O_10
REMARK                            x       y       z     vdW  Elec       q    Type
REMARK                         _______ _______ _______ _____ _____    ______ ____
ROOT
ATOM      1  C   UNL     1       3.541   3.784  19.374  0.00  0.00    +0.000 C 
ATOM      2  C   UNL     1       5.041   4.136  19.187  0.00  0.00    +0.000 C 
ATOM      3  C   UNL     1       5.513   3.751  17.793  0.00  0.00    +0.000 C 
ATOM      4  C   UNL     1       5.923   4.554  16.791  0.00  0.00    +0.000 C 
ATOM      5  C   UNL     1       6.248   3.981  15.430  0.00  0.00    +0.000 C 
ATOM      6  C   UNL     1       6.031   6.054  16.923  0.00  0.00    +0.000 C 
ATOM      7  C   UNL     1       4.770   6.770  16.393  0.00  0.00    +0.000 C 
ATOM      8  C   UNL     1       3.912   7.333  17.535  0.00  0.00    +0.000 C 
ATOM      9  C   UNL     1       2.568   6.721  17.884  0.00  0.00    +0.000 C 
ATOM     10  C   UNL     1       2.277   5.413  17.957  0.00  0.00    +0.000 C 
ATOM     11  C   UNL     1       2.488   4.928  19.363  0.00  0.00    +0.000 C 
ATOM     12  O   UNL     1       2.747   6.108  20.099  0.00  0.00    +0.000 OA
ATOM     13  C   UNL     1       2.328   7.145  19.300  0.00  0.00    +0.000 C 
ATOM     14  O   UNL     1       1.947   8.238  19.646  0.00  0.00    +0.000 OA
ENDROOT
BRANCH   1  16
ATOM     15  C   UNL     1       2.235   2.758  21.284  0.00  0.00    +0.000 C 
ATOM     16  C   UNL     1       3.331   2.792  20.509  0.00  0.00    +0.000 C 
ATOM     17  C   UNL     1       4.452   1.800  20.673  0.00  0.00    +0.000 C 
ENDBRANCH   1  16
BRANCH   6  18
ATOM     18  O   UNL     1       7.198   6.512  16.237  0.00  0.00    +0.000 OA
ATOM     19  H   UNL     1       7.871   6.735  16.896  0.00  0.00    +0.000 HD
ENDBRANCH   6  18
TORSDOF 2
ENDMDL
MODEL 6
REMARK VINA RESULT:      -6.8      3.023      5.263
REMARK  Name = 
REMARK  4 active torsions:
REMARK  status: ('A' for Active; 'I' for Inactive)
REMARK    1  A    between atoms: C_2  and  C_3
REMARK    2  A    between atoms: C_2  and  C_4
REMARK    3  A    between atoms: C_7  and  C_8
REMARK    4  A    between atoms: C_9  and  O_10
REMARK                            x       y       z     vdW  Elec       q    Type
REMARK                         _______ _______ _______ _____ _____    ______ ____
ROOT
ATOM      1  C   UNL     1       2.383   6.230  18.939  0.00  0.00    +0.000 C 
ATOM      2  C   UNL     1       3.066   5.710  20.232  0.00  0.00    +0.000 C 
ATOM      3  C   UNL     1       2.175   4.702  20.942  0.00  0.00    +0.000 C 
ATOM      4  C   UNL     1       2.384   3.385  21.141  0.00  0.00    +0.000 C 
ATOM      5  C   UNL     1       1.316   2.524  21.776  0.00  0.00    +0.000 C 
ATOM      6  C   UNL     1       3.641   2.671  20.704  0.00  0.00    +0.000 C 
ATOM      7  C   UNL     1       3.467   1.989  19.330  0.00  0.00    +0.000 C 
ATOM      8  C   UNL     1       4.225   2.735  18.224  0.00  0.00    +0.000 C 
ATOM      9  C   UNL     1       3.484   3.513  17.151  0.00  0.00    +0.000 C 
ATOM     10  C   UNL     1       2.423   4.315  17.329  0.00  0.00    +0.000 C 
ATOM     11  C   UNL     1       2.890   5.725  17.559  0.00  0.00    +0.000 C 
ATOM     12  O   UNL     1       4.283   5.669  17.317  0.00  0.00    +0.000 OA
ATOM     13  C   UNL     1       4.497   4.491  16.642  0.00  0.00    +0.000 C 
ATOM     14  O   UNL     1       5.391   4.232  15.871  0.00  0.00    +0.000 OA
ENDROOT
BRANCH   1  16
ATOM     15  C   UNL     1       2.363   8.551  17.930  0.00  0.00    +0.000 C 
ATOM     16  C   UNL     1       2.170   7.737  18.979  0.00  0.00    +0.000 C 
ATOM     17  C   UNL     1       1.670   8.250  20.304  0.00  0.00    +0.000 C 
ENDBRANCH   1  16
BRANCH   6  18
ATOM     18  O   UNL     1       4.018   1.718  21.699  0.00  0.00    +0.000 OA
ATOM     19  H   UNL     1       3.978   0.833  21.304  0.00  0.00    +0.000 HD
ENDBRANCH   6  18
TORSDOF 2
ENDMDL
MODEL 7
REMARK VINA RESULT:      -6.7      2.924      4.882
REMARK  Name = 
REMARK  4 active torsions:
REMARK  status: ('A' for Active; 'I' for Inactive)
REMARK    1  A    between atoms: C_2  and  C_3
REMARK    2  A    between atoms: C_2  and  C_4
REMARK    3  A    between atoms: C_7  and  C_8
REMARK    4  A    between atoms: C_9  and  O_10
REMARK                            x       y       z     vdW  Elec       q    Type
REMARK                         _______ _______ _______ _____ _____    ______ ____
ROOT
ATOM      1  C   UNL     1       2.501   6.712  18.742  0.00  0.00    +0.000 C 
ATOM      2  C   UNL     1       2.523   6.180  20.200  0.00  0.00    +0.000 C 
ATOM      3  C   UNL     1       1.532   5.039  20.371  0.00  0.00    +0.000 C 
ATOM      4  C   UNL     1       1.779   3.741  20.638  0.00  0.00    +0.000 C 
ATOM      5  C   UNL     1       0.653   2.732  20.657  0.00  0.00    +0.000 C 
ATOM      6  C   UNL     1       3.165   3.193  20.873  0.00  0.00    +0.000 C 
ATOM      7  C   UNL     1       3.772   2.591  19.587  0.00  0.00    +0.000 C 
ATOM      8  C   UNL     1       4.874   3.485  19.004  0.00  0.00    +0.000 C 
ATOM      9  C   UNL     1       4.663   4.251  17.712  0.00  0.00    +0.000 C 
ATOM     10  C   UNL     1       3.560   4.924  17.349  0.00  0.00    +0.000 C 
ATOM     11  C   UNL     1       3.676   6.356  17.789  0.00  0.00    +0.000 C 
ATOM     12  O   UNL     1       5.004   6.463  18.265  0.00  0.00    +0.000 OA
ATOM     13  C   UNL     1       5.665   5.362  17.775  0.00  0.00    +0.000 C 
ATOM     14  O   UNL     1       6.846   5.250  17.544  0.00  0.00    +0.000 OA
ENDROOT
BRANCH   1  16
ATOM     15  C   UNL     1       2.309   8.969  17.615  0.00  0.00    +0.000 C 
ATOM     16  C   UNL     1       2.111   8.182  18.683  0.00  0.00    +0.000 C 
ATOM     17  C   UNL     1       1.428   8.686  19.928  0.00  0.00    +0.000 C 
ENDBRANCH   1  16
BRANCH   6  18
ATOM     18  O   UNL     1       3.124   2.219  21.917  0.00  0.00    +0.000 OA
ATOM     19  H   UNL     1       2.645   1.442  21.591  0.00  0.00    +0.000 HD
ENDBRANCH   6  18
TORSDOF 2
ENDMDL
MODEL 8
REMARK VINA RESULT:      -6.7      2.512      6.104
REMARK  Name = 
REMARK  4 active torsions:
REMARK  status: ('A' for Active; 'I' for Inactive)
REMARK    1  A    between atoms: C_2  and  C_3
REMARK    2  A    between atoms: C_2  and  C_4
REMARK    3  A    between atoms: C_7  and  C_8
REMARK    4  A    between atoms: C_9  and  O_10
REMARK                            x       y       z     vdW  Elec       q    Type
REMARK                         _______ _______ _______ _____ _____    ______ ____
ROOT
ATOM      1  C   UNL     1       2.772   6.270  19.249  0.00  0.00    +0.000 C 
ATOM      2  C   UNL     1       3.360   6.316  17.813  0.00  0.00    +0.000 C 
ATOM      3  C   UNL     1       4.868   6.123  17.843  0.00  0.00    +0.000 C 
ATOM      4  C   UNL     1       5.597   5.101  17.352  0.00  0.00    +0.000 C 
ATOM      5  C   UNL     1       7.089   5.039  17.584  0.00  0.00    +0.000 C 
ATOM      6  C   UNL     1       4.992   3.938  16.604  0.00  0.00    +0.000 C 
ATOM      7  C   UNL     1       4.731   2.731  17.531  0.00  0.00    +0.000 C 
ATOM      8  C   UNL     1       3.235   2.547  17.819  0.00  0.00    +0.000 C 
ATOM      9  C   UNL     1       2.658   2.838  19.192  0.00  0.00    +0.000 C 
ATOM     10  C   UNL     1       2.951   3.884  19.981  0.00  0.00    +0.000 C 
ATOM     11  C   UNL     1       1.990   5.007  19.707  0.00  0.00    +0.000 C 
ATOM     12  O   UNL     1       1.035   4.436  18.833  0.00  0.00    +0.000 OA
ATOM     13  C   UNL     1       1.202   3.075  18.937  0.00  0.00    +0.000 C 
ATOM     14  O   UNL     1       0.377   2.212  18.746  0.00  0.00    +0.000 OA
ENDROOT
BRANCH   1  16
ATOM     15  C   UNL     1       1.575   7.839  20.833  0.00  0.00    +0.000 C 
ATOM     16  C   UNL     1       2.070   7.570  19.615  0.00  0.00    +0.000 C 
ATOM     17  C   UNL     1       2.010   8.572  18.492  0.00  0.00    +0.000 C 
ENDBRANCH   1  16
BRANCH   6  18
ATOM     18  O   UNL     1       5.848   3.568  15.521  0.00  0.00    +0.000 OA
ATOM     19  H   UNL     1       6.643   4.121  15.558  0.00  0.00    +0.000 HD
ENDBRANCH   6  18
TORSDOF 2
ENDMDL
MODEL 9
REMARK VINA RESULT:      -6.6      1.893      5.288
REMARK  Name = 
REMARK  4 active torsions:
REMARK  status: ('A' for Active; 'I' for Inactive)
REMARK    1  A    between atoms: C_2  and  C_3
REMARK    2  A    between atoms: C_2  and  C_4
REMARK    3  A    between atoms: C_7  and  C_8
REMARK    4  A    between atoms: C_9  and  O_10
REMARK                            x       y       z     vdW  Elec       q    Type
REMARK                         _______ _______ _______ _____ _____    ______ ____
ROOT
ATOM      1  C   UNL     1       3.043   3.439  18.183  0.00  0.00    +0.000 C 
ATOM      2  C   UNL     1       4.587   3.565  18.094  0.00  0.00    +0.000 C 
ATOM      3  C   UNL     1       5.035   3.675  16.645  0.00  0.00    +0.000 C 
ATOM      4  C   UNL     1       5.617   4.718  16.020  0.00  0.00    +0.000 C 
ATOM      5  C   UNL     1       5.885   4.671  14.533  0.00  0.00    +0.000 C 
ATOM      6  C   UNL     1       5.982   6.004  16.720  0.00  0.00    +0.000 C 
ATOM      7  C   UNL     1       4.888   7.080  16.556  0.00  0.00    +0.000 C 
ATOM      8  C   UNL     1       4.102   7.297  17.856  0.00  0.00    +0.000 C 
ATOM      9  C   UNL     1       2.659   6.845  17.987  0.00  0.00    +0.000 C 
ATOM     10  C   UNL     1       2.139   5.686  17.557  0.00  0.00    +0.000 C 
ATOM     11  C   UNL     1       2.209   4.663  18.655  0.00  0.00    +0.000 C 
ATOM     12  O   UNL     1       2.645   5.398  19.782  0.00  0.00    +0.000 OA
ATOM     13  C   UNL     1       2.446   6.721  19.464  0.00  0.00    +0.000 C 
ATOM     14  O   UNL     1       2.251   7.643  20.221  0.00  0.00    +0.000 OA
ENDROOT
BRANCH   1  16
ATOM     15  C   UNL     1       1.409   1.930  19.390  0.00  0.00    +0.000 C 
ATOM     16  C   UNL     1       2.619   2.138  18.850  0.00  0.00    +0.000 C 
ATOM     17  C   UNL     1       3.673   1.061  18.819  0.00  0.00    +0.000 C 
ENDBRANCH   1  16
BRANCH   6  18
ATOM     18  O   UNL     1       7.236   6.478  16.226  0.00  0.00    +0.000 OA
ATOM     19  H   UNL     1       7.536   7.201  16.797  0.00  0.00    +0.000 HD
ENDBRANCH   6  18
TORSDOF 2
ENDMDL
