MODEL 1
REMARK VINA RESULT:      -7.1      0.000      0.000
REMARK  Name = 
REMARK  8 active torsions:
REMARK  status: ('A' for Active; 'I' for Inactive)
REMARK    1  A    between atoms: C_1  and  C_2
REMARK    2  A    between atoms: C_6  and  C_7
REMARK    3  A    between atoms: C_8  and  O_9
REMARK    4  A    between atoms: O_9  and  C_10
REMARK    5  A    between atoms: C_10  and  C_11
REMARK    6  A    between atoms: C_11  and  C_12
REMARK    7  A    between atoms: C_12  and  O_13
REMARK    8  A    between atoms: C_17  and  C_18
REMARK                            x       y       z     vdW  Elec       q    Type
REMARK                         _______ _______ _______ _____ _____    ______ ____
ROOT
ATOM      1  C   UNL     1       1.178   7.015  20.637  0.00  0.00    +0.000 C 
ATOM      2  C   UNL     1       2.432   6.622  19.843  0.00  0.00    +0.000 C 
ATOM      3  C   UNL     1       2.486   7.468  18.567  0.00  0.00    +0.000 C 
ATOM      4  C   UNL     1       3.715   7.143  17.734  0.00  0.00    +0.000 C 
ATOM      5  C   UNL     1       3.745   5.662  17.327  0.00  0.00    +0.000 C 
ATOM      6  C   UNL     1       4.979   5.264  16.470  0.00  0.00    +0.000 C 
ATOM      7  C   UNL     1       5.170   6.151  15.239  0.00  0.00    +0.000 C 
ATOM      8  C   UNL     1       6.263   5.160  17.316  0.00  0.00    +0.000 C 
ATOM      9  O   UNL     1       6.075   4.236  18.376  0.00  0.00    +0.000 OA
ATOM     10  C   UNL     1       5.017   4.599  19.265  0.00  0.00    +0.000 C 
ATOM     11  O   UNL     1       5.013   3.635  20.321  0.00  0.00    +0.000 OA
ATOM     12  C   UNL     1       4.155   2.545  19.985  0.00  0.00    +0.000 C 
ATOM     13  C   UNL     1       4.800   1.273  20.530  0.00  0.00    +0.000 C 
ATOM     14  C   UNL     1       2.774   2.771  20.627  0.00  0.00    +0.000 C 
ATOM     15  C   UNL     1       2.423   4.257  20.796  0.00  0.00    +0.000 C 
ATOM     16  C   UNL     1       2.468   5.109  19.507  0.00  0.00    +0.000 C 
ATOM     17  C   UNL     1       3.637   4.715  18.550  0.00  0.00    +0.000 C 
ATOM     18  O   UNL     1       3.217   3.429  18.012  0.00  0.00    +0.000 OA
ATOM     19  O   UNL     1       4.058   2.367  18.565  0.00  0.00    +0.000 OA
ENDROOT
BRANCH   8  20
ATOM     20  O   UNL     1       6.676   6.429  17.805  0.00  0.00    +0.000 OA
BRANCH  20  21
ATOM     21  C   UNL     1       7.807   6.327  18.675  0.00  0.00    +0.000 C 
BRANCH  21  22
ATOM     22  C   UNL     1       8.472   7.689  18.788  0.00  0.00    +0.000 C 
BRANCH  22  23
ATOM     23  C   UNL     1       7.910   8.649  17.750  0.00  0.00    +0.000 C 
BRANCH  23  24
ATOM     24  O   UNL     1       8.310   9.980  18.054  0.00  0.00    +0.000 OA
ATOM     25  H   UNL     1       9.164   9.923  18.511  0.00  0.00    +0.000 HD
ENDBRANCH  23  24
ENDBRANCH  22  23
ENDBRANCH  21  22
ENDBRANCH  20  21
ENDBRANCH   8  20
TORSDOF 5
ENDMDL
MODEL 2
REMARK VINA RESULT:      -7.1      1.322      1.533
REMARK  Name = 
REMARK  8 active torsions:
REMARK  status: ('A' for Active; 'I' for Inactive)
REMARK    1  A    between atoms: C_1  and  C_2
REMARK    2  A    between atoms: C_6  and  C_7
REMARK    3  A    between atoms: C_8  and  O_9
REMARK    4  A    between atoms: O_9  and  C_10
REMARK    5  A    between atoms: C_10  and  C_11
REMARK    6  A    between atoms: C_11  and  C_12
REMARK    7  A    between atoms: C_12  and  O_13
REMARK    8  A    between atoms: C_17  and  C_18
REMARK                            x       y       z     vdW  Elec       q    Type
REMARK                         _______ _______ _______ _____ _____    ______ ____
ROOT
ATOM      1  C   UNL     1       1.378   8.649  19.297  0.00  0.00    +0.000 C 
ATOM      2  C   UNL     1       2.463   7.637  18.901  0.00  0.00    +0.000 C 
ATOM      3  C   UNL     1       2.917   7.944  17.471  0.00  0.00    +0.000 C 
ATOM      4  C   UNL     1       4.007   6.988  17.014  0.00  0.00    +0.000 C 
ATOM      5  C   UNL     1       3.532   5.527  17.063  0.00  0.00    +0.000 C 
ATOM      6  C   UNL     1       4.602   4.496  16.606  0.00  0.00    +0.000 C 
ATOM      7  C   UNL     1       5.194   4.811  15.232  0.00  0.00    +0.000 C 
ATOM      8  C   UNL     1       5.693   4.281  17.673  0.00  0.00    +0.000 C 
ATOM      9  O   UNL     1       5.102   3.875  18.897  0.00  0.00    +0.000 OA
ATOM     10  C   UNL     1       4.180   4.830  19.428  0.00  0.00    +0.000 C 
ATOM     11  O   UNL     1       3.748   4.329  20.696  0.00  0.00    +0.000 OA
ATOM     12  C   UNL     1       2.583   3.520  20.530  0.00  0.00    +0.000 C 
ATOM     13  C   UNL     1       2.681   2.369  21.528  0.00  0.00    +0.000 C 
ATOM     14  C   UNL     1       1.331   4.374  20.806  0.00  0.00    +0.000 C 
ATOM     15  C   UNL     1       1.528   5.860  20.473  0.00  0.00    +0.000 C 
ATOM     16  C   UNL     1       1.977   6.171  19.026  0.00  0.00    +0.000 C 
ATOM     17  C   UNL     1       2.995   5.130  18.462  0.00  0.00    +0.000 C 
ATOM     18  O   UNL     1       2.183   3.942  18.245  0.00  0.00    +0.000 OA
ATOM     19  O   UNL     1       2.538   2.918  19.228  0.00  0.00    +0.000 OA
ENDROOT
BRANCH   8  20
ATOM     20  O   UNL     1       6.496   5.440  17.847  0.00  0.00    +0.000 OA
BRANCH  20  21
ATOM     21  C   UNL     1       7.725   5.146  18.518  0.00  0.00    +0.000 C 
BRANCH  21  22
ATOM     22  C   UNL     1       8.354   6.444  18.997  0.00  0.00    +0.000 C 
BRANCH  22  23
ATOM     23  C   UNL     1       7.886   7.614  18.144  0.00  0.00    +0.000 C 
BRANCH  23  24
ATOM     24  O   UNL     1       8.001   7.285  16.765  0.00  0.00    +0.000 OA
ATOM     25  H   UNL     1       7.111   7.346  16.383  0.00  0.00    +0.000 HD
ENDBRANCH  23  24
ENDBRANCH  22  23
ENDBRANCH  21  22
ENDBRANCH  20  21
ENDBRANCH   8  20
TORSDOF 5
ENDMDL
MODEL 3
REMARK VINA RESULT:      -6.6      0.985      1.484
REMARK  Name = 
REMARK  8 active torsions:
REMARK  status: ('A' for Active; 'I' for Inactive)
REMARK    1  A    between atoms: C_1  and  C_2
REMARK    2  A    between atoms: C_6  and  C_7
REMARK    3  A    between atoms: C_8  and  O_9
REMARK    4  A    between atoms: O_9  and  C_10
REMARK    5  A    between atoms: C_10  and  C_11
REMARK    6  A    between atoms: C_11  and  C_12
REMARK    7  A    between atoms: C_12  and  O_13
REMARK    8  A    between atoms: C_17  and  C_18
REMARK                            x       y       z     vdW  Elec       q    Type
REMARK                         _______ _______ _______ _____ _____    ______ ____
ROOT
ATOM      1  C   UNL     1       1.160   6.873  20.887  0.00  0.00    +0.000 C 
ATOM      2  C   UNL     1       2.360   6.581  19.976  0.00  0.00    +0.000 C 
ATOM      3  C   UNL     1       2.328   7.562  18.799  0.00  0.00    +0.000 C 
ATOM      4  C   UNL     1       3.502   7.342  17.858  0.00  0.00    +0.000 C 
ATOM      5  C   UNL     1       3.508   5.914  17.290  0.00  0.00    +0.000 C 
ATOM      6  C   UNL     1       4.685   5.624  16.317  0.00  0.00    +0.000 C 
ATOM      7  C   UNL     1       4.793   6.642  15.181  0.00  0.00    +0.000 C 
ATOM      8  C   UNL     1       6.022   5.440  17.062  0.00  0.00    +0.000 C 
ATOM      9  O   UNL     1       5.905   4.404  18.023  0.00  0.00    +0.000 OA
ATOM     10  C   UNL     1       4.906   4.657  19.014  0.00  0.00    +0.000 C 
ATOM     11  O   UNL     1       4.974   3.584  19.956  0.00  0.00    +0.000 OA
ATOM     12  C   UNL     1       4.098   2.529  19.558  0.00  0.00    +0.000 C 
ATOM     13  C   UNL     1       4.780   1.211  19.917  0.00  0.00    +0.000 C 
ATOM     14  C   UNL     1       2.761   2.671  20.309  0.00  0.00    +0.000 C 
ATOM     15  C   UNL     1       2.418   4.125  20.662  0.00  0.00    +0.000 C 
ATOM     16  C   UNL     1       2.377   5.114  19.474  0.00  0.00    +0.000 C 
ATOM     17  C   UNL     1       3.482   4.838  18.407  0.00  0.00    +0.000 C 
ATOM     18  O   UNL     1       3.031   3.615  17.758  0.00  0.00    +0.000 OA
ATOM     19  O   UNL     1       3.908   2.507  18.136  0.00  0.00    +0.000 OA
ENDROOT
BRANCH   8  20
ATOM     20  O   UNL     1       6.462   6.652  17.659  0.00  0.00    +0.000 OA
BRANCH  20  21
ATOM     21  C   UNL     1       7.887   6.698  17.792  0.00  0.00    +0.000 C 
BRANCH  21  22
ATOM     22  C   UNL     1       8.249   6.723  19.268  0.00  0.00    +0.000 C 
BRANCH  22  23
ATOM     23  C   UNL     1       8.513   5.315  19.779  0.00  0.00    +0.000 C 
BRANCH  23  24
ATOM     24  O   UNL     1       8.202   5.236  21.166  0.00  0.00    +0.000 OA
ATOM     25  H   UNL     1       7.323   4.831  21.237  0.00  0.00    +0.000 HD
ENDBRANCH  23  24
ENDBRANCH  22  23
ENDBRANCH  21  22
ENDBRANCH  20  21
ENDBRANCH   8  20
TORSDOF 5
ENDMDL
MODEL 4
REMARK VINA RESULT:      -6.5      1.198      1.251
REMARK  Name = 
REMARK  8 active torsions:
REMARK  status: ('A' for Active; 'I' for Inactive)
REMARK    1  A    between atoms: C_1  and  C_2
REMARK    2  A    between atoms: C_6  and  C_7
REMARK    3  A    between atoms: C_8  and  O_9
REMARK    4  A    between atoms: O_9  and  C_10
REMARK    5  A    between atoms: C_10  and  C_11
REMARK    6  A    between atoms: C_11  and  C_12
REMARK    7  A    between atoms: C_12  and  O_13
REMARK    8  A    between atoms: C_17  and  C_18
REMARK                            x       y       z     vdW  Elec       q    Type
REMARK                         _______ _______ _______ _____ _____    ______ ____
ROOT
ATOM      1  C   UNL     1       0.831   7.561  20.832  0.00  0.00    +0.000 C 
ATOM      2  C   UNL     1       2.003   6.918  20.078  0.00  0.00    +0.000 C 
ATOM      3  C   UNL     1       2.487   7.897  19.004  0.00  0.00    +0.000 C 
ATOM      4  C   UNL     1       3.663   7.333  18.223  0.00  0.00    +0.000 C 
ATOM      5  C   UNL     1       3.298   6.009  17.534  0.00  0.00    +0.000 C 
ATOM      6  C   UNL     1       4.459   5.378  16.716  0.00  0.00    +0.000 C 
ATOM      7  C   UNL     1       5.078   6.344  15.704  0.00  0.00    +0.000 C 
ATOM      8  C   UNL     1       5.521   4.728  17.623  0.00  0.00    +0.000 C 
ATOM      9  O   UNL     1       4.917   3.754  18.460  0.00  0.00    +0.000 OA
ATOM     10  C   UNL     1       3.906   4.290  19.317  0.00  0.00    +0.000 C 
ATOM     11  O   UNL     1       3.465   3.220  20.157  0.00  0.00    +0.000 OA
ATOM     12  C   UNL     1       2.371   2.537  19.544  0.00  0.00    +0.000 C 
ATOM     13  C   UNL     1       2.518   1.054  19.874  0.00  0.00    +0.000 C 
ATOM     14  C   UNL     1       1.049   3.091  20.106  0.00  0.00    +0.000 C 
ATOM     15  C   UNL     1       1.145   4.561  20.539  0.00  0.00    +0.000 C 
ATOM     16  C   UNL     1       1.625   5.551  19.452  0.00  0.00    +0.000 C 
ATOM     17  C   UNL     1       2.739   4.962  18.532  0.00  0.00    +0.000 C 
ATOM     18  O   UNL     1       2.028   3.987  17.717  0.00  0.00    +0.000 OA
ATOM     19  O   UNL     1       2.422   2.635  18.113  0.00  0.00    +0.000 OA
ENDROOT
BRANCH   8  20
ATOM     20  O   UNL     1       6.227   5.697  18.385  0.00  0.00    +0.000 OA
BRANCH  20  21
ATOM     21  C   UNL     1       7.588   5.826  17.962  0.00  0.00    +0.000 C 
BRANCH  21  22
ATOM     22  C   UNL     1       8.272   6.893  18.801  0.00  0.00    +0.000 C 
BRANCH  22  23
ATOM     23  C   UNL     1       8.248   8.236  18.086  0.00  0.00    +0.000 C 
BRANCH  23  24
ATOM     24  O   UNL     1       7.205   8.251  17.118  0.00  0.00    +0.000 OA
ATOM     25  H   UNL     1       7.522   8.779  16.367  0.00  0.00    +0.000 HD
ENDBRANCH  23  24
ENDBRANCH  22  23
ENDBRANCH  21  22
ENDBRANCH  20  21
ENDBRANCH   8  20
TORSDOF 5
ENDMDL
MODEL 5
REMARK VINA RESULT:      -6.5      1.929      2.290
REMARK  Name = 
REMARK  8 active torsions:
REMARK  status: ('A' for Active; 'I' for Inactive)
REMARK    1  A    between atoms: C_1  and  C_2
REMARK    2  A    between atoms: C_6  and  C_7
REMARK    3  A    between atoms: C_8  and  O_9
REMARK    4  A    between atoms: O_9  and  C_10
REMARK    5  A    between atoms: C_10  and  C_11
REMARK    6  A    between atoms: C_11  and  C_12
REMARK    7  A    between atoms: C_12  and  O_13
REMARK    8  A    between atoms: C_17  and  C_18
REMARK                            x       y       z     vdW  Elec       q    Type
REMARK                         _______ _______ _______ _____ _____    ______ ____
ROOT
ATOM      1  C   UNL     1       1.578   8.809  19.030  0.00  0.00    +0.000 C 
ATOM      2  C   UNL     1       2.557   7.655  18.775  0.00  0.00    +0.000 C 
ATOM      3  C   UNL     1       3.166   7.831  17.380  0.00  0.00    +0.000 C 
ATOM      4  C   UNL     1       4.162   6.727  17.063  0.00  0.00    +0.000 C 
ATOM      5  C   UNL     1       3.504   5.340  17.126  0.00  0.00    +0.000 C 
ATOM      6  C   UNL     1       4.471   4.164  16.809  0.00  0.00    +0.000 C 
ATOM      7  C   UNL     1       5.213   4.335  15.483  0.00  0.00    +0.000 C 
ATOM      8  C   UNL     1       5.431   3.872  17.979  0.00  0.00    +0.000 C 
ATOM      9  O   UNL     1       4.692   3.603  19.160  0.00  0.00    +0.000 OA
ATOM     10  C   UNL     1       3.856   4.689  19.567  0.00  0.00    +0.000 C 
ATOM     11  O   UNL     1       3.258   4.309  20.808  0.00  0.00    +0.000 OA
ATOM     12  C   UNL     1       2.019   3.641  20.570  0.00  0.00    +0.000 C 
ATOM     13  C   UNL     1       1.886   2.539  21.618  0.00  0.00    +0.000 C 
ATOM     14  C   UNL     1       0.865   4.654  20.697  0.00  0.00    +0.000 C 
ATOM     15  C   UNL     1       1.275   6.086  20.324  0.00  0.00    +0.000 C 
ATOM     16  C   UNL     1       1.881   6.266  18.913  0.00  0.00    +0.000 C 
ATOM     17  C   UNL     1       2.805   5.083  18.486  0.00  0.00    +0.000 C 
ATOM     18  O   UNL     1       1.871   3.992  18.243  0.00  0.00    +0.000 OA
ATOM     19  O   UNL     1       2.010   2.984  19.294  0.00  0.00    +0.000 OA
ENDROOT
BRANCH   8  20
ATOM     20  O   UNL     1       6.356   4.932  18.179  0.00  0.00    +0.000 OA
BRANCH  20  21
ATOM     21  C   UNL     1       7.656   4.613  17.671  0.00  0.00    +0.000 C 
BRANCH  21  22
ATOM     22  C   UNL     1       8.695   4.925  18.736  0.00  0.00    +0.000 C 
BRANCH  22  23
ATOM     23  C   UNL     1       8.102   5.807  19.823  0.00  0.00    +0.000 C 
BRANCH  23  24
ATOM     24  O   UNL     1       8.160   5.137  21.077  0.00  0.00    +0.000 OA
ATOM     25  H   UNL     1       8.668   5.704  21.679  0.00  0.00    +0.000 HD
ENDBRANCH  23  24
ENDBRANCH  22  23
ENDBRANCH  21  22
ENDBRANCH  20  21
ENDBRANCH   8  20
TORSDOF 5
ENDMDL
MODEL 6
REMARK VINA RESULT:      -6.1      2.500      4.659
REMARK  Name = 
REMARK  8 active torsions:
REMARK  status: ('A' for Active; 'I' for Inactive)
REMARK    1  A    between atoms: C_1  and  C_2
REMARK    2  A    between atoms: C_6  and  C_7
REMARK    3  A    between atoms: C_8  and  O_9
REMARK    4  A    between atoms: O_9  and  C_10
REMARK    5  A    between atoms: C_10  and  C_11
REMARK    6  A    between atoms: C_11  and  C_12
REMARK    7  A    between atoms: C_12  and  O_13
REMARK    8  A    between atoms: C_17  and  C_18
REMARK                            x       y       z     vdW  Elec       q    Type
REMARK                         _______ _______ _______ _____ _____    ______ ____
ROOT
ATOM      1  C   UNL     1       1.372   1.604  19.010  0.00  0.00    +0.000 C 
ATOM      2  C   UNL     1       2.315   2.632  18.371  0.00  0.00    +0.000 C 
ATOM      3  C   UNL     1       3.609   1.920  17.963  0.00  0.00    +0.000 C 
ATOM      4  C   UNL     1       4.589   2.877  17.306  0.00  0.00    +0.000 C 
ATOM      5  C   UNL     1       4.958   4.038  18.242  0.00  0.00    +0.000 C 
ATOM      6  C   UNL     1       5.961   5.055  17.629  0.00  0.00    +0.000 C 
ATOM      7  C   UNL     1       7.229   4.396  17.084  0.00  0.00    +0.000 C 
ATOM      8  C   UNL     1       5.291   5.974  16.589  0.00  0.00    +0.000 C 
ATOM      9  O   UNL     1       4.192   6.653  17.176  0.00  0.00    +0.000 OA
ATOM     10  C   UNL     1       3.179   5.774  17.670  0.00  0.00    +0.000 C 
ATOM     11  O   UNL     1       2.108   6.597  18.137  0.00  0.00    +0.000 OA
ATOM     12  C   UNL     1       2.297   6.910  19.517  0.00  0.00    +0.000 C 
ATOM     13  C   UNL     1       1.811   8.342  19.730  0.00  0.00    +0.000 C 
ATOM     14  C   UNL     1       1.483   5.926  20.377  0.00  0.00    +0.000 C 
ATOM     15  C   UNL     1       1.308   4.550  19.716  0.00  0.00    +0.000 C 
ATOM     16  C   UNL     1       2.613   3.826  19.313  0.00  0.00    +0.000 C 
ATOM     17  C   UNL     1       3.707   4.794  18.761  0.00  0.00    +0.000 C 
ATOM     18  O   UNL     1       4.151   5.517  19.943  0.00  0.00    +0.000 OA
ATOM     19  O   UNL     1       3.687   6.903  19.874  0.00  0.00    +0.000 OA
ENDROOT
BRANCH   8  20
ATOM     20  O   UNL     1       4.895   5.257  15.429  0.00  0.00    +0.000 OA
BRANCH  20  21
ATOM     21  C   UNL     1       5.965   5.124  14.488  0.00  0.00    +0.000 C 
BRANCH  21  22
ATOM     22  C   UNL     1       5.821   3.801  13.754  0.00  0.00    +0.000 C 
BRANCH  22  23
ATOM     23  C   UNL     1       6.688   3.784  12.504  0.00  0.00    +0.000 C 
BRANCH  23  24
ATOM     24  O   UNL     1       6.631   2.501  11.892  0.00  0.00    +0.000 OA
ATOM     25  H   UNL     1       5.867   2.038  12.272  0.00  0.00    +0.000 HD
ENDBRANCH  23  24
ENDBRANCH  22  23
ENDBRANCH  21  22
ENDBRANCH  20  21
ENDBRANCH   8  20
TORSDOF 5
ENDMDL
MODEL 7
REMARK VINA RESULT:      -6.0      6.759      9.404
REMARK  Name = 
REMARK  8 active torsions:
REMARK  status: ('A' for Active; 'I' for Inactive)
REMARK    1  A    between atoms: C_1  and  C_2
REMARK    2  A    between atoms: C_6  and  C_7
REMARK    3  A    between atoms: C_8  and  O_9
REMARK    4  A    between atoms: O_9  and  C_10
REMARK    5  A    between atoms: C_10  and  C_11
REMARK    6  A    between atoms: C_11  and  C_12
REMARK    7  A    between atoms: C_12  and  O_13
REMARK    8  A    between atoms: C_17  and  C_18
REMARK                            x       y       z     vdW  Elec       q    Type
REMARK                         _______ _______ _______ _____ _____    ______ ____
ROOT
ATOM      1  C   UNL     1      -4.480  13.124  21.863  0.00  0.00    +0.000 C 
ATOM      2  C   UNL     1      -3.131  12.562  21.392  0.00  0.00    +0.000 C 
ATOM      3  C   UNL     1      -2.010  13.326  22.103  0.00  0.00    +0.000 C 
ATOM      4  C   UNL     1      -0.639  12.811  21.696  0.00  0.00    +0.000 C 
ATOM      5  C   UNL     1      -0.417  12.936  20.181  0.00  0.00    +0.000 C 
ATOM      6  C   UNL     1       0.970  12.427  19.699  0.00  0.00    +0.000 C 
ATOM      7  C   UNL     1       2.140  13.058  20.455  0.00  0.00    +0.000 C 
ATOM      8  C   UNL     1       1.050  10.889  19.684  0.00  0.00    +0.000 C 
ATOM      9  O   UNL     1       0.016  10.355  18.872  0.00  0.00    +0.000 OA
ATOM     10  C   UNL     1      -1.296  10.702  19.323  0.00  0.00    +0.000 C 
ATOM     11  O   UNL     1      -2.221  10.020  18.473  0.00  0.00    +0.000 OA
ATOM     12  C   UNL     1      -2.552  10.841  17.353  0.00  0.00    +0.000 C 
ATOM     13  C   UNL     1      -2.707   9.921  16.144  0.00  0.00    +0.000 C 
ATOM     14  C   UNL     1      -3.869  11.585  17.642  0.00  0.00    +0.000 C 
ATOM     15  C   UNL     1      -4.092  11.858  19.137  0.00  0.00    +0.000 C 
ATOM     16  C   UNL     1      -2.965  12.638  19.853  0.00  0.00    +0.000 C 
ATOM     17  C   UNL     1      -1.536  12.241  19.364  0.00  0.00    +0.000 C 
ATOM     18  O   UNL     1      -1.460  12.817  18.029  0.00  0.00    +0.000 OA
ATOM     19  O   UNL     1      -1.489  11.749  17.031  0.00  0.00    +0.000 OA
ENDROOT
BRANCH   8  20
ATOM     20  O   UNL     1       1.008  10.346  20.996  0.00  0.00    +0.000 OA
BRANCH  20  21
ATOM     21  C   UNL     1       1.082   8.917  20.989  0.00  0.00    +0.000 C 
BRANCH  21  22
ATOM     22  C   UNL     1      -0.061   8.356  21.820  0.00  0.00    +0.000 C 
BRANCH  22  23
ATOM     23  C   UNL     1      -0.551   9.388  22.825  0.00  0.00    +0.000 C 
BRANCH  23  24
ATOM     24  O   UNL     1       0.489   9.703  23.743  0.00  0.00    +0.000 OA
ATOM     25  H   UNL     1       0.786  10.604  23.538  0.00  0.00    +0.000 HD
ENDBRANCH  23  24
ENDBRANCH  22  23
ENDBRANCH  21  22
ENDBRANCH  20  21
ENDBRANCH   8  20
TORSDOF 5
ENDMDL
MODEL 8
REMARK VINA RESULT:      -6.0      1.863      2.160
REMARK  Name = 
REMARK  8 active torsions:
REMARK  status: ('A' for Active; 'I' for Inactive)
REMARK    1  A    between atoms: C_1  and  C_2
REMARK    2  A    between atoms: C_6  and  C_7
REMARK    3  A    between atoms: C_8  and  O_9
REMARK    4  A    between atoms: O_9  and  C_10
REMARK    5  A    between atoms: C_10  and  C_11
REMARK    6  A    between atoms: C_11  and  C_12
REMARK    7  A    between atoms: C_12  and  O_13
REMARK    8  A    between atoms: C_17  and  C_18
REMARK                            x       y       z     vdW  Elec       q    Type
REMARK                         _______ _______ _______ _____ _____    ______ ____
ROOT
ATOM      1  C   UNL     1       1.338   7.472  20.785  0.00  0.00    +0.000 C 
ATOM      2  C   UNL     1       2.331   6.618  19.985  0.00  0.00    +0.000 C 
ATOM      3  C   UNL     1       3.055   7.522  18.982  0.00  0.00    +0.000 C 
ATOM      4  C   UNL     1       4.071   6.744  18.162  0.00  0.00    +0.000 C 
ATOM      5  C   UNL     1       3.406   5.600  17.381  0.00  0.00    +0.000 C 
ATOM      6  C   UNL     1       4.393   4.764  16.518  0.00  0.00    +0.000 C 
ATOM      7  C   UNL     1       5.243   5.618  15.577  0.00  0.00    +0.000 C 
ATOM      8  C   UNL     1       5.251   3.814  17.375  0.00  0.00    +0.000 C 
ATOM      9  O   UNL     1       4.416   2.961  18.141  0.00  0.00    +0.000 OA
ATOM     10  C   UNL     1       3.551   3.665  19.036  0.00  0.00    +0.000 C 
ATOM     11  O   UNL     1       2.851   2.679  19.798  0.00  0.00    +0.000 OA
ATOM     12  C   UNL     1       1.634   2.326  19.140  0.00  0.00    +0.000 C 
ATOM     13  C   UNL     1       1.412   0.832  19.364  0.00  0.00    +0.000 C 
ATOM     14  C   UNL     1       0.477   3.144  19.742  0.00  0.00    +0.000 C 
ATOM     15  C   UNL     1       0.920   4.514  20.278  0.00  0.00    +0.000 C 
ATOM     16  C   UNL     1       1.642   5.431  19.264  0.00  0.00    +0.000 C 
ATOM     17  C   UNL     1       2.595   4.653  18.303  0.00  0.00    +0.000 C 
ATOM     18  O   UNL     1       1.682   3.940  17.422  0.00  0.00    +0.000 OA
ATOM     19  O   UNL     1       1.730   2.508  17.720  0.00  0.00    +0.000 OA
ENDROOT
BRANCH   8  20
ATOM     20  O   UNL     1       6.159   4.527  18.203  0.00  0.00    +0.000 OA
BRANCH  20  21
ATOM     21  C   UNL     1       7.430   4.712  17.572  0.00  0.00    +0.000 C 
BRANCH  21  22
ATOM     22  C   UNL     1       8.243   5.716  18.374  0.00  0.00    +0.000 C 
BRANCH  22  23
ATOM     23  C   UNL     1       7.602   5.963  19.731  0.00  0.00    +0.000 C 
BRANCH  23  24
ATOM     24  O   UNL     1       8.272   5.202  20.730  0.00  0.00    +0.000 OA
ATOM     25  H   UNL     1       9.218   5.222  20.515  0.00  0.00    +0.000 HD
ENDBRANCH  23  24
ENDBRANCH  22  23
ENDBRANCH  21  22
ENDBRANCH  20  21
ENDBRANCH   8  20
TORSDOF 5
ENDMDL
MODEL 9
REMARK VINA RESULT:      -5.9      6.866      9.521
REMARK  Name = 
REMARK  8 active torsions:
REMARK  status: ('A' for Active; 'I' for Inactive)
REMARK    1  A    between atoms: C_1  and  C_2
REMARK    2  A    between atoms: C_6  and  C_7
REMARK    3  A    between atoms: C_8  and  O_9
REMARK    4  A    between atoms: O_9  and  C_10
REMARK    5  A    between atoms: C_10  and  C_11
REMARK    6  A    between atoms: C_11  and  C_12
REMARK    7  A    between atoms: C_12  and  O_13
REMARK    8  A    between atoms: C_17  and  C_18
REMARK                            x       y       z     vdW  Elec       q    Type
REMARK                         _______ _______ _______ _____ _____    ______ ____
ROOT
ATOM      1  C   UNL     1      -5.343  12.856  20.906  0.00  0.00    +0.000 C 
ATOM      2  C   UNL     1      -4.007  12.181  20.569  0.00  0.00    +0.000 C 
ATOM      3  C   UNL     1      -2.912  12.801  21.443  0.00  0.00    +0.000 C 
ATOM      4  C   UNL     1      -1.557  12.167  21.175  0.00  0.00    +0.000 C 
ATOM      5  C   UNL     1      -1.142  12.328  19.704  0.00  0.00    +0.000 C 
ATOM      6  C   UNL     1       0.239  11.701  19.362  0.00  0.00    +0.000 C 
ATOM      7  C   UNL     1       1.363  12.182  20.281  0.00  0.00    +0.000 C 
ATOM      8  C   UNL     1       0.174  10.164  19.280  0.00  0.00    +0.000 C 
ATOM      9  O   UNL     1      -0.800   9.768  18.327  0.00  0.00    +0.000 OA
ATOM     10  C   UNL     1      -2.118  10.227  18.638  0.00  0.00    +0.000 C 
ATOM     11  O   UNL     1      -2.993   9.674  17.652  0.00  0.00    +0.000 OA
ATOM     12  C   UNL     1      -3.107  10.566  16.543  0.00  0.00    +0.000 C 
ATOM     13  C   UNL     1      -3.201   9.714  15.280  0.00  0.00    +0.000 C 
ATOM     14  C   UNL     1      -4.373  11.427  16.714  0.00  0.00    +0.000 C 
ATOM     15  C   UNL     1      -4.748  11.664  18.184  0.00  0.00    +0.000 C 
ATOM     16  C   UNL     1      -3.648  12.299  19.065  0.00  0.00    +0.000 C 
ATOM     17  C   UNL     1      -2.215  11.780  18.727  0.00  0.00    +0.000 C 
ATOM     18  O   UNL     1      -1.923  12.396  17.442  0.00  0.00    +0.000 OA
ATOM     19  O   UNL     1      -1.931  11.375  16.394  0.00  0.00    +0.000 OA
ENDROOT
BRANCH   8  20
ATOM     20  O   UNL     1      -0.078   9.578  20.549  0.00  0.00    +0.000 OA
BRANCH  20  21
ATOM     21  C   UNL     1       0.995   8.731  20.973  0.00  0.00    +0.000 C 
BRANCH  21  22
ATOM     22  C   UNL     1       1.345   9.056  22.416  0.00  0.00    +0.000 C 
BRANCH  22  23
ATOM     23  C   UNL     1       0.115   9.535  23.172  0.00  0.00    +0.000 C 
BRANCH  23  24
ATOM     24  O   UNL     1      -0.952   8.610  22.999  0.00  0.00    +0.000 OA
ATOM     25  H   UNL     1      -1.773   9.079  23.219  0.00  0.00    +0.000 HD
ENDBRANCH  23  24
ENDBRANCH  22  23
ENDBRANCH  21  22
ENDBRANCH  20  21
ENDBRANCH   8  20
TORSDOF 5
ENDMDL
