MODEL 1
REMARK VINA RESULT:      -7.1      0.000      0.000
REMARK  Name = 
REMARK  6 active torsions:
REMARK  status: ('A' for Active; 'I' for Inactive)
REMARK    1  A    between atoms: C_1  and  C_2
REMARK    2  A    between atoms: C_5  and  S_6
REMARK    3  A    between atoms: S_6  and  N_9
REMARK    4  A    between atoms: N_9  and  C_10
REMARK    5  A    between atoms: N_14  and  C_15
REMARK    6  A    between atoms: N_14  and  C_16
REMARK                            x       y       z     vdW  Elec       q    Type
REMARK                         _______ _______ _______ _____ _____    ______ ____
ROOT
ATOM      1  N   UNL     1       3.271   4.648  18.818  0.00  0.00    +0.000 N 
ATOM      2  H   UNL     1       2.700   3.886  19.178  0.00  0.00    +0.000 HD
ENDROOT
BRANCH   1   3
ATOM      3  C   UNL     1       2.805   5.974  19.041  0.00  0.00    +0.000 A 
ATOM      4  C   UNL     1       2.865   6.918  18.035  0.00  0.00    +0.000 A 
ATOM      5  C   UNL     1       2.295   8.178  18.246  0.00  0.00    +0.000 A 
ATOM      6  C   UNL     1       1.682   8.502  19.460  0.00  0.00    +0.000 A 
ATOM      7  N   UNL     1       1.106   9.731  19.702  0.00  0.00    +0.000 N 
ATOM      8  C   UNL     1       0.492   9.991  21.000  0.00  0.00    +0.000 C 
ATOM      9  C   UNL     1       1.014  10.818  18.742  0.00  0.00    +0.000 C 
ATOM     10  N   UNL     1       1.646   7.569  20.439  0.00  0.00    +0.000 NA
ATOM     11  C   UNL     1       2.180   6.340  20.219  0.00  0.00    +0.000 A 
ENDBRANCH   1   3
BRANCH   1  12
ATOM     12  S   UNL     1       4.924   4.350  19.038  0.00  0.00    +0.000 S 
ATOM     13  O   UNL     1       5.102   3.011  19.555  0.00  0.00    +0.000 OA
ATOM     14  O   UNL     1       5.445   5.505  19.744  0.00  0.00    +0.000 OA
BRANCH  12  19
ATOM     15  C   UNL     1       7.125   4.629  13.371  0.00  0.00    +0.000 C 
ATOM     16  C   UNL     1       6.582   4.543  14.770  0.00  0.00    +0.000 A 
ATOM     17  C   UNL     1       5.234   4.244  14.995  0.00  0.00    +0.000 A 
ATOM     18  C   UNL     1       4.730   4.177  16.298  0.00  0.00    +0.000 A 
ATOM     19  C   UNL     1       5.583   4.404  17.383  0.00  0.00    +0.000 A 
ATOM     20  C   UNL     1       6.928   4.727  17.170  0.00  0.00    +0.000 A 
ATOM     21  C   UNL     1       7.423   4.784  15.866  0.00  0.00    +0.000 A 
ENDBRANCH  12  19
ENDBRANCH   1  12
TORSDOF 3
ENDMDL
MODEL 2
REMARK VINA RESULT:      -7.1      0.055      1.084
REMARK  Name = 
REMARK  6 active torsions:
REMARK  status: ('A' for Active; 'I' for Inactive)
REMARK    1  A    between atoms: C_1  and  C_2
REMARK    2  A    between atoms: C_5  and  S_6
REMARK    3  A    between atoms: S_6  and  N_9
REMARK    4  A    between atoms: N_9  and  C_10
REMARK    5  A    between atoms: N_14  and  C_15
REMARK    6  A    between atoms: N_14  and  C_16
REMARK                            x       y       z     vdW  Elec       q    Type
REMARK                         _______ _______ _______ _____ _____    ______ ____
ROOT
ATOM      1  N   UNL     1       3.298   4.616  18.861  0.00  0.00    +0.000 N 
ATOM      2  H   UNL     1       2.750   3.853  19.254  0.00  0.00    +0.000 HD
ENDROOT
BRANCH   1   3
ATOM      3  C   UNL     1       2.821   5.940  19.075  0.00  0.00    +0.000 A 
ATOM      4  C   UNL     1       2.868   6.875  18.060  0.00  0.00    +0.000 A 
ATOM      5  C   UNL     1       2.288   8.132  18.263  0.00  0.00    +0.000 A 
ATOM      6  C   UNL     1       1.679   8.462  19.477  0.00  0.00    +0.000 A 
ATOM      7  N   UNL     1       1.093   9.688  19.710  0.00  0.00    +0.000 N 
ATOM      8  C   UNL     1       0.484   9.954  21.010  0.00  0.00    +0.000 C 
ATOM      9  C   UNL     1       0.986  10.765  18.741  0.00  0.00    +0.000 C 
ATOM     10  N   UNL     1       1.656   7.538  20.465  0.00  0.00    +0.000 NA
ATOM     11  C   UNL     1       2.199   6.311  20.253  0.00  0.00    +0.000 A 
ENDBRANCH   1   3
BRANCH   1  12
ATOM     12  S   UNL     1       4.961   4.343  19.035  0.00  0.00    +0.000 S 
ATOM     13  O   UNL     1       5.175   2.998  19.521  0.00  0.00    +0.000 OA
ATOM     14  O   UNL     1       5.479   5.494  19.749  0.00  0.00    +0.000 OA
BRANCH  12  19
ATOM     15  C   UNL     1       7.118   4.588  13.349  0.00  0.00    +0.000 C 
ATOM     16  C   UNL     1       6.584   4.545  14.753  0.00  0.00    +0.000 A 
ATOM     17  C   UNL     1       7.409   4.852  15.841  0.00  0.00    +0.000 A 
ATOM     18  C   UNL     1       6.911   4.799  17.146  0.00  0.00    +0.000 A 
ATOM     19  C   UNL     1       5.577   4.441  17.365  0.00  0.00    +0.000 A 
ATOM     20  C   UNL     1       4.748   4.108  16.288  0.00  0.00    +0.000 A 
ATOM     21  C   UNL     1       5.253   4.173  14.987  0.00  0.00    +0.000 A 
ENDBRANCH  12  19
ENDBRANCH   1  12
TORSDOF 3
ENDMDL
MODEL 3
REMARK VINA RESULT:      -6.8      0.612      1.328
REMARK  Name = 
REMARK  6 active torsions:
REMARK  status: ('A' for Active; 'I' for Inactive)
REMARK    1  A    between atoms: C_1  and  C_2
REMARK    2  A    between atoms: C_5  and  S_6
REMARK    3  A    between atoms: S_6  and  N_9
REMARK    4  A    between atoms: N_9  and  C_10
REMARK    5  A    between atoms: N_14  and  C_15
REMARK    6  A    between atoms: N_14  and  C_16
REMARK                            x       y       z     vdW  Elec       q    Type
REMARK                         _______ _______ _______ _____ _____    ______ ____
ROOT
ATOM      1  N   UNL     1       3.183   4.456  18.818  0.00  0.00    +0.000 N 
ATOM      2  H   UNL     1       2.674   3.630  19.126  0.00  0.00    +0.000 HD
ENDROOT
BRANCH   1   3
ATOM      3  C   UNL     1       2.593   5.723  19.084  0.00  0.00    +0.000 A 
ATOM      4  C   UNL     1       2.048   5.998  20.324  0.00  0.00    +0.000 A 
ATOM      5  C   UNL     1       1.578   7.288  20.592  0.00  0.00    +0.000 A 
ATOM      6  C   UNL     1       1.637   8.297  19.627  0.00  0.00    +0.000 A 
ATOM      7  N   UNL     1       1.189   9.580  19.858  0.00  0.00    +0.000 N 
ATOM      8  C   UNL     1       1.281  10.573  18.792  0.00  0.00    +0.000 C 
ATOM      9  C   UNL     1       0.651  10.067  21.117  0.00  0.00    +0.000 C 
ATOM     10  N   UNL     1       2.161   8.005  18.414  0.00  0.00    +0.000 NA
ATOM     11  C   UNL     1       2.637   6.757  18.167  0.00  0.00    +0.000 A 
ENDBRANCH   1   3
BRANCH   1  12
ATOM     12  S   UNL     1       4.849   4.296  19.079  0.00  0.00    +0.000 S 
ATOM     13  O   UNL     1       5.123   2.982  19.617  0.00  0.00    +0.000 OA
ATOM     14  O   UNL     1       5.258   5.497  19.780  0.00  0.00    +0.000 OA
BRANCH  12  19
ATOM     15  C   UNL     1       7.157   4.694  13.462  0.00  0.00    +0.000 C 
ATOM     16  C   UNL     1       6.587   4.579  14.848  0.00  0.00    +0.000 A 
ATOM     17  C   UNL     1       5.236   4.274  15.041  0.00  0.00    +0.000 A 
ATOM     18  C   UNL     1       4.708   4.179  16.333  0.00  0.00    +0.000 A 
ATOM     19  C   UNL     1       5.539   4.385  17.438  0.00  0.00    +0.000 A 
ATOM     20  C   UNL     1       6.887   4.714  17.258  0.00  0.00    +0.000 A 
ATOM     21  C   UNL     1       7.407   4.798  15.964  0.00  0.00    +0.000 A 
ENDBRANCH  12  19
ENDBRANCH   1  12
TORSDOF 3
ENDMDL
MODEL 4
REMARK VINA RESULT:      -6.8      0.610      1.716
REMARK  Name = 
REMARK  6 active torsions:
REMARK  status: ('A' for Active; 'I' for Inactive)
REMARK    1  A    between atoms: C_1  and  C_2
REMARK    2  A    between atoms: C_5  and  S_6
REMARK    3  A    between atoms: S_6  and  N_9
REMARK    4  A    between atoms: N_9  and  C_10
REMARK    5  A    between atoms: N_14  and  C_15
REMARK    6  A    between atoms: N_14  and  C_16
REMARK                            x       y       z     vdW  Elec       q    Type
REMARK                         _______ _______ _______ _____ _____    ______ ____
ROOT
ATOM      1  N   UNL     1       3.193   4.441  18.858  0.00  0.00    +0.000 N 
ATOM      2  H   UNL     1       2.702   3.612  19.187  0.00  0.00    +0.000 HD
ENDROOT
BRANCH   1   3
ATOM      3  C   UNL     1       2.595   5.704  19.129  0.00  0.00    +0.000 A 
ATOM      4  C   UNL     1       2.050   5.972  20.369  0.00  0.00    +0.000 A 
ATOM      5  C   UNL     1       1.574   7.258  20.642  0.00  0.00    +0.000 A 
ATOM      6  C   UNL     1       1.624   8.269  19.679  0.00  0.00    +0.000 A 
ATOM      7  N   UNL     1       1.169   9.549  19.914  0.00  0.00    +0.000 N 
ATOM      8  C   UNL     1       1.253  10.546  18.850  0.00  0.00    +0.000 C 
ATOM      9  C   UNL     1       0.630  10.030  21.175  0.00  0.00    +0.000 C 
ATOM     10  N   UNL     1       2.149   7.984  18.464  0.00  0.00    +0.000 NA
ATOM     11  C   UNL     1       2.632   6.740  18.214  0.00  0.00    +0.000 A 
ENDBRANCH   1   3
BRANCH   1  12
ATOM     12  S   UNL     1       4.868   4.302  19.077  0.00  0.00    +0.000 S 
ATOM     13  O   UNL     1       5.174   2.985  19.590  0.00  0.00    +0.000 OA
ATOM     14  O   UNL     1       5.276   5.500  19.785  0.00  0.00    +0.000 OA
BRANCH  12  19
ATOM     15  C   UNL     1       7.131   4.625  13.437  0.00  0.00    +0.000 C 
ATOM     16  C   UNL     1       6.572   4.563  14.831  0.00  0.00    +0.000 A 
ATOM     17  C   UNL     1       7.395   4.781  15.941  0.00  0.00    +0.000 A 
ATOM     18  C   UNL     1       6.873   4.710  17.236  0.00  0.00    +0.000 A 
ATOM     19  C   UNL     1       5.516   4.424  17.421  0.00  0.00    +0.000 A 
ATOM     20  C   UNL     1       4.688   4.180  16.320  0.00  0.00    +0.000 A 
ATOM     21  C   UNL     1       5.218   4.262  15.030  0.00  0.00    +0.000 A 
ENDBRANCH  12  19
ENDBRANCH   1  12
TORSDOF 3
ENDMDL
MODEL 5
REMARK VINA RESULT:      -6.7      3.192      4.036
REMARK  Name = 
REMARK  6 active torsions:
REMARK  status: ('A' for Active; 'I' for Inactive)
REMARK    1  A    between atoms: C_1  and  C_2
REMARK    2  A    between atoms: C_5  and  S_6
REMARK    3  A    between atoms: S_6  and  N_9
REMARK    4  A    between atoms: N_9  and  C_10
REMARK    5  A    between atoms: N_14  and  C_15
REMARK    6  A    between atoms: N_14  and  C_16
REMARK                            x       y       z     vdW  Elec       q    Type
REMARK                         _______ _______ _______ _____ _____    ______ ____
ROOT
ATOM      1  N   UNL     1       5.500   6.674  17.447  0.00  0.00    +0.000 N 
ATOM      2  H   UNL     1       5.165   7.284  16.704  0.00  0.00    +0.000 HD
ENDROOT
BRANCH   1   3
ATOM      3  C   UNL     1       4.535   5.868  18.114  0.00  0.00    +0.000 A 
ATOM      4  C   UNL     1       3.393   5.451  17.457  0.00  0.00    +0.000 A 
ATOM      5  C   UNL     1       2.521   4.567  18.099  0.00  0.00    +0.000 A 
ATOM      6  C   UNL     1       2.775   4.111  19.396  0.00  0.00    +0.000 A 
ATOM      7  N   UNL     1       1.940   3.235  20.057  0.00  0.00    +0.000 N 
ATOM      8  C   UNL     1       2.276   2.813  21.414  0.00  0.00    +0.000 C 
ATOM      9  C   UNL     1       0.737   2.641  19.501  0.00  0.00    +0.000 C 
ATOM     10  N   UNL     1       3.891   4.541  20.029  0.00  0.00    +0.000 NA
ATOM     11  C   UNL     1       4.747   5.381  19.390  0.00  0.00    +0.000 A 
ENDBRANCH   1   3
BRANCH   1  12
ATOM     12  S   UNL     1       6.981   5.955  17.046  0.00  0.00    +0.000 S 
ATOM     13  O   UNL     1       7.326   4.980  18.056  0.00  0.00    +0.000 OA
ATOM     14  O   UNL     1       7.875   7.048  16.717  0.00  0.00    +0.000 OA
BRANCH  12  19
ATOM     15  C   UNL     1       5.867   2.948  11.874  0.00  0.00    +0.000 C 
ATOM     16  C   UNL     1       6.133   3.704  13.145  0.00  0.00    +0.000 A 
ATOM     17  C   UNL     1       7.090   4.724  13.183  0.00  0.00    +0.000 A 
ATOM     18  C   UNL     1       7.342   5.417  14.371  0.00  0.00    +0.000 A 
ATOM     19  C   UNL     1       6.628   5.090  15.529  0.00  0.00    +0.000 A 
ATOM     20  C   UNL     1       5.686   4.056  15.510  0.00  0.00    +0.000 A 
ATOM     21  C   UNL     1       5.435   3.376  14.316  0.00  0.00    +0.000 A 
ENDBRANCH  12  19
ENDBRANCH   1  12
TORSDOF 3
ENDMDL
MODEL 6
REMARK VINA RESULT:      -6.6      3.174      3.915
REMARK  Name = 
REMARK  6 active torsions:
REMARK  status: ('A' for Active; 'I' for Inactive)
REMARK    1  A    between atoms: C_1  and  C_2
REMARK    2  A    between atoms: C_5  and  S_6
REMARK    3  A    between atoms: S_6  and  N_9
REMARK    4  A    between atoms: N_9  and  C_10
REMARK    5  A    between atoms: N_14  and  C_15
REMARK    6  A    between atoms: N_14  and  C_16
REMARK                            x       y       z     vdW  Elec       q    Type
REMARK                         _______ _______ _______ _____ _____    ______ ____
ROOT
ATOM      1  N   UNL     1       5.467   6.698  17.345  0.00  0.00    +0.000 N 
ATOM      2  H   UNL     1       5.128   7.255  16.563  0.00  0.00    +0.000 HD
ENDROOT
BRANCH   1   3
ATOM      3  C   UNL     1       4.511   5.916  18.052  0.00  0.00    +0.000 A 
ATOM      4  C   UNL     1       3.367   5.466  17.421  0.00  0.00    +0.000 A 
ATOM      5  C   UNL     1       2.503   4.605  18.106  0.00  0.00    +0.000 A 
ATOM      6  C   UNL     1       2.769   4.205  19.419  0.00  0.00    +0.000 A 
ATOM      7  N   UNL     1       1.943   3.354  20.122  0.00  0.00    +0.000 N 
ATOM      8  C   UNL     1       2.290   2.991  21.493  0.00  0.00    +0.000 C 
ATOM      9  C   UNL     1       0.739   2.731  19.600  0.00  0.00    +0.000 C 
ATOM     10  N   UNL     1       3.886   4.668  20.025  0.00  0.00    +0.000 NA
ATOM     11  C   UNL     1       4.733   5.484  19.346  0.00  0.00    +0.000 A 
ENDBRANCH   1   3
BRANCH   1  12
ATOM     12  S   UNL     1       6.965   5.985  17.001  0.00  0.00    +0.000 S 
ATOM     13  O   UNL     1       7.291   5.036  18.042  0.00  0.00    +0.000 OA
ATOM     14  O   UNL     1       7.858   7.078  16.671  0.00  0.00    +0.000 OA
BRANCH  12  19
ATOM     15  C   UNL     1       5.838   2.958  11.843  0.00  0.00    +0.000 C 
ATOM     16  C   UNL     1       6.124   3.692  13.122  0.00  0.00    +0.000 A 
ATOM     17  C   UNL     1       5.392   3.417  14.283  0.00  0.00    +0.000 A 
ATOM     18  C   UNL     1       5.655   4.110  15.468  0.00  0.00    +0.000 A 
ATOM     19  C   UNL     1       6.661   5.082  15.494  0.00  0.00    +0.000 A 
ATOM     20  C   UNL     1       7.383   5.384  14.335  0.00  0.00    +0.000 A 
ATOM     21  C   UNL     1       7.119   4.679  13.158  0.00  0.00    +0.000 A 
ENDBRANCH  12  19
ENDBRANCH   1  12
TORSDOF 3
ENDMDL
MODEL 7
REMARK VINA RESULT:      -6.5      3.274      4.200
REMARK  Name = 
REMARK  6 active torsions:
REMARK  status: ('A' for Active; 'I' for Inactive)
REMARK    1  A    between atoms: C_1  and  C_2
REMARK    2  A    between atoms: C_5  and  S_6
REMARK    3  A    between atoms: S_6  and  N_9
REMARK    4  A    between atoms: N_9  and  C_10
REMARK    5  A    between atoms: N_14  and  C_15
REMARK    6  A    between atoms: N_14  and  C_16
REMARK                            x       y       z     vdW  Elec       q    Type
REMARK                         _______ _______ _______ _____ _____    ______ ____
ROOT
ATOM      1  N   UNL     1       5.403   6.457  17.408  0.00  0.00    +0.000 N 
ATOM      2  H   UNL     1       5.030   7.042  16.663  0.00  0.00    +0.000 HD
ENDROOT
BRANCH   1   3
ATOM      3  C   UNL     1       4.502   5.558  18.044  0.00  0.00    +0.000 A 
ATOM      4  C   UNL     1       4.453   5.469  19.421  0.00  0.00    +0.000 A 
ATOM      5  C   UNL     1       3.479   4.661  20.019  0.00  0.00    +0.000 A 
ATOM      6  C   UNL     1       2.569   3.933  19.249  0.00  0.00    +0.000 A 
ATOM      7  N   UNL     1       1.593   3.132  19.804  0.00  0.00    +0.000 N 
ATOM      8  C   UNL     1       0.684   2.399  18.927  0.00  0.00    +0.000 C 
ATOM      9  C   UNL     1       1.349   2.971  21.227  0.00  0.00    +0.000 C 
ATOM     10  N   UNL     1       2.641   4.022  17.901  0.00  0.00    +0.000 NA
ATOM     11  C   UNL     1       3.573   4.826  17.327  0.00  0.00    +0.000 A 
ENDBRANCH   1   3
BRANCH   1  12
ATOM     12  S   UNL     1       6.953   5.883  17.036  0.00  0.00    +0.000 S 
ATOM     13  O   UNL     1       7.337   4.884  18.008  0.00  0.00    +0.000 OA
ATOM     14  O   UNL     1       7.766   7.060  16.804  0.00  0.00    +0.000 OA
BRANCH  12  19
ATOM     15  C   UNL     1       6.295   3.085  11.672  0.00  0.00    +0.000 C 
ATOM     16  C   UNL     1       6.449   3.789  12.990  0.00  0.00    +0.000 A 
ATOM     17  C   UNL     1       7.353   4.847  13.135  0.00  0.00    +0.000 A 
ATOM     18  C   UNL     1       7.500   5.491  14.367  0.00  0.00    +0.000 A 
ATOM     19  C   UNL     1       6.733   5.078  15.461  0.00  0.00    +0.000 A 
ATOM     20  C   UNL     1       5.843   4.006  15.336  0.00  0.00    +0.000 A 
ATOM     21  C   UNL     1       5.697   3.375  14.099  0.00  0.00    +0.000 A 
ENDBRANCH  12  19
ENDBRANCH   1  12
TORSDOF 3
ENDMDL
MODEL 8
REMARK VINA RESULT:      -6.5      3.116      5.832
REMARK  Name = 
REMARK  6 active torsions:
REMARK  status: ('A' for Active; 'I' for Inactive)
REMARK    1  A    between atoms: C_1  and  C_2
REMARK    2  A    between atoms: C_5  and  S_6
REMARK    3  A    between atoms: S_6  and  N_9
REMARK    4  A    between atoms: N_9  and  C_10
REMARK    5  A    between atoms: N_14  and  C_15
REMARK    6  A    between atoms: N_14  and  C_16
REMARK                            x       y       z     vdW  Elec       q    Type
REMARK                         _______ _______ _______ _____ _____    ______ ____
ROOT
ATOM      1  N   UNL     1       2.762   2.020  19.620  0.00  0.00    +0.000 N 
ATOM      2  H   UNL     1       2.625   1.040  19.381  0.00  0.00    +0.000 HD
ENDROOT
BRANCH   1   3
ATOM      3  C   UNL     1       3.795   2.721  18.936  0.00  0.00    +0.000 A 
ATOM      4  C   UNL     1       3.852   2.715  17.556  0.00  0.00    +0.000 A 
ATOM      5  C   UNL     1       4.809   3.506  16.910  0.00  0.00    +0.000 A 
ATOM      6  C   UNL     1       5.714   4.286  17.634  0.00  0.00    +0.000 A 
ATOM      7  N   UNL     1       6.666   5.080  17.031  0.00  0.00    +0.000 N 
ATOM      8  C   UNL     1       7.579   5.860  17.862  0.00  0.00    +0.000 C 
ATOM      9  C   UNL     1       6.830   5.252  15.598  0.00  0.00    +0.000 C 
ATOM     10  N   UNL     1       5.652   4.267  18.986  0.00  0.00    +0.000 NA
ATOM     11  C   UNL     1       4.705   3.517  19.607  0.00  0.00    +0.000 A 
ENDBRANCH   1   3
BRANCH   1  12
ATOM     12  S   UNL     1       1.285   2.821  19.844  0.00  0.00    +0.000 S 
ATOM     13  O   UNL     1       0.957   2.830  21.252  0.00  0.00    +0.000 OA
ATOM     14  O   UNL     1       0.378   2.260  18.862  0.00  0.00    +0.000 OA
BRANCH  12  19
ATOM     15  C   UNL     1       2.587   8.515  18.135  0.00  0.00    +0.000 C 
ATOM     16  C   UNL     1       2.250   7.114  18.562  0.00  0.00    +0.000 A 
ATOM     17  C   UNL     1       2.299   6.748  19.912  0.00  0.00    +0.000 A 
ATOM     18  C   UNL     1       1.996   5.440  20.303  0.00  0.00    +0.000 A 
ATOM     19  C   UNL     1       1.636   4.493  19.338  0.00  0.00    +0.000 A 
ATOM     20  C   UNL     1       1.607   4.841  17.983  0.00  0.00    +0.000 A 
ATOM     21  C   UNL     1       1.903   6.152  17.603  0.00  0.00    +0.000 A 
ENDBRANCH  12  19
ENDBRANCH   1  12
TORSDOF 3
ENDMDL
MODEL 9
REMARK VINA RESULT:      -6.5      3.280      4.090
REMARK  Name = 
REMARK  6 active torsions:
REMARK  status: ('A' for Active; 'I' for Inactive)
REMARK    1  A    between atoms: C_1  and  C_2
REMARK    2  A    between atoms: C_5  and  S_6
REMARK    3  A    between atoms: S_6  and  N_9
REMARK    4  A    between atoms: N_9  and  C_10
REMARK    5  A    between atoms: N_14  and  C_15
REMARK    6  A    between atoms: N_14  and  C_16
REMARK                            x       y       z     vdW  Elec       q    Type
REMARK                         _______ _______ _______ _____ _____    ______ ____
ROOT
ATOM      1  N   UNL     1       5.438   6.516  17.462  0.00  0.00    +0.000 N 
ATOM      2  H   UNL     1       5.061   7.110  16.725  0.00  0.00    +0.000 HD
ENDROOT
BRANCH   1   3
ATOM      3  C   UNL     1       4.540   5.611  18.094  0.00  0.00    +0.000 A 
ATOM      4  C   UNL     1       4.583   5.418  19.460  0.00  0.00    +0.000 A 
ATOM      5  C   UNL     1       3.615   4.610  20.067  0.00  0.00    +0.000 A 
ATOM      6  C   UNL     1       2.618   3.985  19.314  0.00  0.00    +0.000 A 
ATOM      7  N   UNL     1       1.645   3.187  19.878  0.00  0.00    +0.000 N 
ATOM      8  C   UNL     1       0.642   2.565  19.018  0.00  0.00    +0.000 C 
ATOM      9  C   UNL     1       1.493   2.927  21.299  0.00  0.00    +0.000 C 
ATOM     10  N   UNL     1       2.600   4.174  17.974  0.00  0.00    +0.000 NA
ATOM     11  C   UNL     1       3.528   4.978  17.394  0.00  0.00    +0.000 A 
ENDBRANCH   1   3
BRANCH   1  12
ATOM     12  S   UNL     1       6.985   5.945  17.073  0.00  0.00    +0.000 S 
ATOM     13  O   UNL     1       7.405   4.988  18.073  0.00  0.00    +0.000 OA
ATOM     14  O   UNL     1       7.779   7.121  16.775  0.00  0.00    +0.000 OA
BRANCH  12  19
ATOM     15  C   UNL     1       6.040   3.029  11.816  0.00  0.00    +0.000 C 
ATOM     16  C   UNL     1       6.282   3.736  13.119  0.00  0.00    +0.000 A 
ATOM     17  C   UNL     1       5.580   3.368  14.272  0.00  0.00    +0.000 A 
ATOM     18  C   UNL     1       5.802   4.037  15.481  0.00  0.00    +0.000 A 
ATOM     19  C   UNL     1       6.736   5.076  15.537  0.00  0.00    +0.000 A 
ATOM     20  C   UNL     1       7.426   5.469  14.385  0.00  0.00    +0.000 A 
ATOM     21  C   UNL     1       7.205   4.790  13.185  0.00  0.00    +0.000 A 
ENDBRANCH  12  19
ENDBRANCH   1  12
TORSDOF 3
ENDMDL
