MODEL 1
REMARK VINA RESULT:      -7.1      0.000      0.000
REMARK  Name = 
REMARK  6 active torsions:
REMARK  status: ('A' for Active; 'I' for Inactive)
REMARK    1  A    between atoms: C_1  and  C_2
REMARK    2  A    between atoms: N_4  and  C_5
REMARK    3  A    between atoms: N_4  and  C_6
REMARK    4  A    between atoms: C_6  and  C_7
REMARK    5  A    between atoms: N_9  and  C_10
REMARK    6  A    between atoms: C_15  and  N_16
REMARK                            x       y       z     vdW  Elec       q    Type
REMARK                         _______ _______ _______ _____ _____    ______ ____
ROOT
ATOM      1  C   UNL     1       3.860   3.533  18.452  0.00  0.00    +0.000 A 
ATOM      2  C   UNL     1       3.467   2.198  18.279  0.00  0.00    +0.000 A 
ATOM      3  C   UNL     1       2.123   1.847  18.325  0.00  0.00    +0.000 A 
ATOM      4  C   UNL     1       1.167   2.834  18.525  0.00  0.00    +0.000 A 
ATOM      5  C   UNL     1       1.555   4.171  18.697  0.00  0.00    +0.000 A 
ATOM      6  C   UNL     1       2.907   4.560  18.684  0.00  0.00    +0.000 A 
ENDROOT
BRANCH   6   7
ATOM      7  N   UNL     1       3.323   5.904  18.826  0.00  0.00    +0.000 N 
ATOM      8  C   UNL     1       2.575   6.826  19.703  0.00  0.00    +0.000 C 
ATOM      9  C   UNL     1       2.069   7.929  18.780  0.00  0.00    +0.000 C 
ATOM     10  C   UNL     1       3.166   8.030  17.742  0.00  0.00    +0.000 C 
ATOM     11  C   UNL     1       3.590   6.581  17.534  0.00  0.00    +0.000 C 
ENDBRANCH   6   7
BRANCH   1  14
ATOM     12  C   UNL     1       5.978   4.046  17.299  0.00  0.00    +0.000 C 
ATOM     13  O   UNL     1       5.555   3.902  16.151  0.00  0.00    +0.000 OA
ATOM     14  N   UNL     1       5.232   3.874  18.450  0.00  0.00    +0.000 N 
ATOM     15  H   UNL     1       5.542   4.310  19.312  0.00  0.00    +0.000 HD
BRANCH  12  16
ATOM     16  C   UNL     1       7.444   4.402  17.560  0.00  0.00    +0.000 C 
BRANCH  16  20
ATOM     17  C   UNL     1       7.672   8.187  17.806  0.00  0.00    +0.000 C 
ATOM     18  C   UNL     1       7.643   6.792  17.235  0.00  0.00    +0.000 C 
ATOM     19  O   UNL     1       7.529   6.621  16.020  0.00  0.00    +0.000 OA
ATOM     20  N   UNL     1       7.702   5.728  18.125  0.00  0.00    +0.000 N 
ATOM     21  C   UNL     1       7.739   5.877  19.576  0.00  0.00    +0.000 C 
ENDBRANCH  16  20
ENDBRANCH  12  16
ENDBRANCH   1  14
TORSDOF 4
ENDMDL
MODEL 2
REMARK VINA RESULT:      -6.9      1.223      1.268
REMARK  Name = 
REMARK  6 active torsions:
REMARK  status: ('A' for Active; 'I' for Inactive)
REMARK    1  A    between atoms: C_1  and  C_2
REMARK    2  A    between atoms: N_4  and  C_5
REMARK    3  A    between atoms: N_4  and  C_6
REMARK    4  A    between atoms: C_6  and  C_7
REMARK    5  A    between atoms: N_9  and  C_10
REMARK    6  A    between atoms: C_15  and  N_16
REMARK                            x       y       z     vdW  Elec       q    Type
REMARK                         _______ _______ _______ _____ _____    ______ ____
ROOT
ATOM      1  C   UNL     1       2.954   3.977  18.614  0.00  0.00    +0.000 A 
ATOM      2  C   UNL     1       2.487   2.654  18.630  0.00  0.00    +0.000 A 
ATOM      3  C   UNL     1       1.350   2.317  19.352  0.00  0.00    +0.000 A 
ATOM      4  C   UNL     1       0.663   3.305  20.044  0.00  0.00    +0.000 A 
ATOM      5  C   UNL     1       1.125   4.629  20.030  0.00  0.00    +0.000 A 
ATOM      6  C   UNL     1       2.289   5.004  19.333  0.00  0.00    +0.000 A 
ENDROOT
BRANCH   6   7
ATOM      7  N   UNL     1       2.758   6.336  19.280  0.00  0.00    +0.000 N 
ATOM      8  C   UNL     1       2.164   7.371  20.148  0.00  0.00    +0.000 C 
ATOM      9  C   UNL     1       1.570   8.398  19.193  0.00  0.00    +0.000 C 
ATOM     10  C   UNL     1       2.517   8.351  18.013  0.00  0.00    +0.000 C 
ATOM     11  C   UNL     1       2.866   6.871  17.901  0.00  0.00    +0.000 C 
ENDBRANCH   6   7
BRANCH   1  14
ATOM     12  C   UNL     1       5.407   4.156  18.444  0.00  0.00    +0.000 C 
ATOM     13  O   UNL     1       5.659   3.756  19.580  0.00  0.00    +0.000 OA
ATOM     14  N   UNL     1       4.139   4.302  17.914  0.00  0.00    +0.000 N 
ATOM     15  H   UNL     1       4.021   4.322  16.907  0.00  0.00    +0.000 HD
BRANCH  12  16
ATOM     16  C   UNL     1       6.527   4.588  17.494  0.00  0.00    +0.000 C 
BRANCH  16  20
ATOM     17  C   UNL     1       7.602   8.228  17.674  0.00  0.00    +0.000 C 
ATOM     18  C   UNL     1       7.018   6.935  17.164  0.00  0.00    +0.000 C 
ATOM     19  O   UNL     1       6.297   6.930  16.166  0.00  0.00    +0.000 OA
ATOM     20  N   UNL     1       7.288   5.778  17.883  0.00  0.00    +0.000 N 
ATOM     21  C   UNL     1       8.055   5.746  19.123  0.00  0.00    +0.000 C 
ENDBRANCH  16  20
ENDBRANCH  12  16
ENDBRANCH   1  14
TORSDOF 4
ENDMDL
MODEL 3
REMARK VINA RESULT:      -6.8      1.552      1.757
REMARK  Name = 
REMARK  6 active torsions:
REMARK  status: ('A' for Active; 'I' for Inactive)
REMARK    1  A    between atoms: C_1  and  C_2
REMARK    2  A    between atoms: N_4  and  C_5
REMARK    3  A    between atoms: N_4  and  C_6
REMARK    4  A    between atoms: C_6  and  C_7
REMARK    5  A    between atoms: N_9  and  C_10
REMARK    6  A    between atoms: C_15  and  N_16
REMARK                            x       y       z     vdW  Elec       q    Type
REMARK                         _______ _______ _______ _____ _____    ______ ____
ROOT
ATOM      1  C   UNL     1       3.387   4.197  19.709  0.00  0.00    +0.000 A 
ATOM      2  C   UNL     1       3.113   2.856  20.015  0.00  0.00    +0.000 A 
ATOM      3  C   UNL     1       1.877   2.491  20.535  0.00  0.00    +0.000 A 
ATOM      4  C   UNL     1       0.906   3.463  20.732  0.00  0.00    +0.000 A 
ATOM      5  C   UNL     1       1.175   4.804  20.427  0.00  0.00    +0.000 A 
ATOM      6  C   UNL     1       2.423   5.217  19.925  0.00  0.00    +0.000 A 
ENDROOT
BRANCH   6   7
ATOM      7  N   UNL     1       2.710   6.558  19.582  0.00  0.00    +0.000 N 
ATOM      8  C   UNL     1       2.057   7.667  20.304  0.00  0.00    +0.000 C 
ATOM      9  C   UNL     1       1.260   8.417  19.244  0.00  0.00    +0.000 C 
ATOM     10  C   UNL     1       2.108   8.249  18.001  0.00  0.00    +0.000 C 
ATOM     11  C   UNL     1       2.637   6.825  18.125  0.00  0.00    +0.000 C 
ENDBRANCH   6   7
BRANCH   1  14
ATOM     12  C   UNL     1       5.154   4.186  17.990  0.00  0.00    +0.000 C 
ATOM     13  O   UNL     1       4.563   3.469  17.182  0.00  0.00    +0.000 OA
ATOM     14  N   UNL     1       4.663   4.566  19.224  0.00  0.00    +0.000 N 
ATOM     15  H   UNL     1       5.046   5.389  19.679  0.00  0.00    +0.000 HD
BRANCH  12  16
ATOM     16  C   UNL     1       6.566   4.703  17.699  0.00  0.00    +0.000 C 
BRANCH  16  20
ATOM     17  C   UNL     1       7.955   8.240  17.702  0.00  0.00    +0.000 C 
ATOM     18  C   UNL     1       7.636   6.830  18.131  0.00  0.00    +0.000 C 
ATOM     19  O   UNL     1       8.237   6.319  19.077  0.00  0.00    +0.000 OA
ATOM     20  N   UNL     1       6.686   6.132  17.399  0.00  0.00    +0.000 N 
ATOM     21  C   UNL     1       6.017   6.659  16.214  0.00  0.00    +0.000 C 
ENDBRANCH  16  20
ENDBRANCH  12  16
ENDBRANCH   1  14
TORSDOF 4
ENDMDL
MODEL 4
REMARK VINA RESULT:      -6.7      2.455      5.693
REMARK  Name = 
REMARK  6 active torsions:
REMARK  status: ('A' for Active; 'I' for Inactive)
REMARK    1  A    between atoms: C_1  and  C_2
REMARK    2  A    between atoms: N_4  and  C_5
REMARK    3  A    between atoms: N_4  and  C_6
REMARK    4  A    between atoms: C_6  and  C_7
REMARK    5  A    between atoms: N_9  and  C_10
REMARK    6  A    between atoms: C_15  and  N_16
REMARK                            x       y       z     vdW  Elec       q    Type
REMARK                         _______ _______ _______ _____ _____    ______ ____
ROOT
ATOM      1  C   UNL     1       5.092   4.664  15.661  0.00  0.00    +0.000 A 
ATOM      2  C   UNL     1       4.963   4.028  14.418  0.00  0.00    +0.000 A 
ATOM      3  C   UNL     1       6.056   3.914  13.567  0.00  0.00    +0.000 A 
ATOM      4  C   UNL     1       7.286   4.419  13.967  0.00  0.00    +0.000 A 
ATOM      5  C   UNL     1       7.421   5.054  15.209  0.00  0.00    +0.000 A 
ATOM      6  C   UNL     1       6.331   5.213  16.085  0.00  0.00    +0.000 A 
ENDROOT
BRANCH   6   7
ATOM      7  N   UNL     1       6.447   5.823  17.355  0.00  0.00    +0.000 N 
ATOM      8  C   UNL     1       6.716   7.270  17.465  0.00  0.00    +0.000 C 
ATOM      9  C   UNL     1       8.051   7.372  18.192  0.00  0.00    +0.000 C 
ATOM     10  C   UNL     1       8.023   6.176  19.120  0.00  0.00    +0.000 C 
ATOM     11  C   UNL     1       7.348   5.096  18.281  0.00  0.00    +0.000 C 
ENDBRANCH   6   7
BRANCH   1  14
ATOM     12  C   UNL     1       3.524   3.843  17.377  0.00  0.00    +0.000 C 
ATOM     13  O   UNL     1       4.034   2.731  17.518  0.00  0.00    +0.000 OA
ATOM     14  N   UNL     1       3.965   4.816  16.500  0.00  0.00    +0.000 N 
ATOM     15  H   UNL     1       3.711   5.785  16.664  0.00  0.00    +0.000 HD
BRANCH  12  16
ATOM     16  C   UNL     1       2.274   4.243  18.167  0.00  0.00    +0.000 C 
BRANCH  16  20
ATOM     17  C   UNL     1       1.468   2.720  21.554  0.00  0.00    +0.000 C 
ATOM     18  C   UNL     1       2.126   3.551  20.481  0.00  0.00    +0.000 C 
ATOM     19  O   UNL     1       2.895   4.463  20.788  0.00  0.00    +0.000 OA
ATOM     20  N   UNL     1       1.797   3.278  19.161  0.00  0.00    +0.000 N 
ATOM     21  C   UNL     1       0.819   2.275  18.752  0.00  0.00    +0.000 C 
ENDBRANCH  16  20
ENDBRANCH  12  16
ENDBRANCH   1  14
TORSDOF 4
ENDMDL
MODEL 5
REMARK VINA RESULT:      -6.7      2.222      5.483
REMARK  Name = 
REMARK  6 active torsions:
REMARK  status: ('A' for Active; 'I' for Inactive)
REMARK    1  A    between atoms: C_1  and  C_2
REMARK    2  A    between atoms: N_4  and  C_5
REMARK    3  A    between atoms: N_4  and  C_6
REMARK    4  A    between atoms: C_6  and  C_7
REMARK    5  A    between atoms: N_9  and  C_10
REMARK    6  A    between atoms: C_15  and  N_16
REMARK                            x       y       z     vdW  Elec       q    Type
REMARK                         _______ _______ _______ _____ _____    ______ ____
ROOT
ATOM      1  C   UNL     1       5.209   4.886  16.492  0.00  0.00    +0.000 A 
ATOM      2  C   UNL     1       4.968   3.978  15.452  0.00  0.00    +0.000 A 
ATOM      3  C   UNL     1       5.878   3.841  14.410  0.00  0.00    +0.000 A 
ATOM      4  C   UNL     1       7.041   4.599  14.418  0.00  0.00    +0.000 A 
ATOM      5  C   UNL     1       7.287   5.508  15.457  0.00  0.00    +0.000 A 
ATOM      6  C   UNL     1       6.376   5.693  16.513  0.00  0.00    +0.000 A 
ENDROOT
BRANCH   6   7
ATOM      7  N   UNL     1       6.614   6.582  17.588  0.00  0.00    +0.000 N 
ATOM      8  C   UNL     1       6.697   8.035  17.348  0.00  0.00    +0.000 C 
ATOM      9  C   UNL     1       8.107   8.429  17.773  0.00  0.00    +0.000 C 
ATOM     10  C   UNL     1       8.396   7.474  18.911  0.00  0.00    +0.000 C 
ATOM     11  C   UNL     1       7.747   6.173  18.453  0.00  0.00    +0.000 C 
ENDBRANCH   6   7
BRANCH   1  14
ATOM     12  C   UNL     1       4.345   4.436  18.757  0.00  0.00    +0.000 C 
ATOM     13  O   UNL     1       5.237   3.659  19.099  0.00  0.00    +0.000 OA
ATOM     14  N   UNL     1       4.256   5.052  17.523  0.00  0.00    +0.000 N 
ATOM     15  H   UNL     1       3.701   5.896  17.429  0.00  0.00    +0.000 HD
BRANCH  12  16
ATOM     16  C   UNL     1       3.183   4.765  19.699  0.00  0.00    +0.000 C 
BRANCH  16  20
ATOM     17  C   UNL     1       0.527   2.158  18.929  0.00  0.00    +0.000 C 
ATOM     18  C   UNL     1       1.391   3.391  18.829  0.00  0.00    +0.000 C 
ATOM     19  O   UNL     1       1.395   4.063  17.798  0.00  0.00    +0.000 OA
ATOM     20  N   UNL     1       2.199   3.701  19.914  0.00  0.00    +0.000 N 
ATOM     21  C   UNL     1       2.302   2.884  21.118  0.00  0.00    +0.000 C 
ENDBRANCH  16  20
ENDBRANCH  12  16
ENDBRANCH   1  14
TORSDOF 4
ENDMDL
MODEL 6
REMARK VINA RESULT:      -6.7      1.962      2.579
REMARK  Name = 
REMARK  6 active torsions:
REMARK  status: ('A' for Active; 'I' for Inactive)
REMARK    1  A    between atoms: C_1  and  C_2
REMARK    2  A    between atoms: N_4  and  C_5
REMARK    3  A    between atoms: N_4  and  C_6
REMARK    4  A    between atoms: C_6  and  C_7
REMARK    5  A    between atoms: N_9  and  C_10
REMARK    6  A    between atoms: C_15  and  N_16
REMARK                            x       y       z     vdW  Elec       q    Type
REMARK                         _______ _______ _______ _____ _____    ______ ____
ROOT
ATOM      1  C   UNL     1       3.177   4.896  19.104  0.00  0.00    +0.000 A 
ATOM      2  C   UNL     1       3.039   3.501  19.138  0.00  0.00    +0.000 A 
ATOM      3  C   UNL     1       2.041   2.909  19.903  0.00  0.00    +0.000 A 
ATOM      4  C   UNL     1       1.166   3.713  20.621  0.00  0.00    +0.000 A 
ATOM      5  C   UNL     1       1.300   5.109  20.589  0.00  0.00    +0.000 A 
ATOM      6  C   UNL     1       2.314   5.742  19.848  0.00  0.00    +0.000 A 
ENDROOT
BRANCH   6   7
ATOM      7  N   UNL     1       2.452   7.148  19.776  0.00  0.00    +0.000 N 
ATOM      8  C   UNL     1       1.744   8.015  20.737  0.00  0.00    +0.000 C 
ATOM      9  C   UNL     1       0.815   8.875  19.888  0.00  0.00    +0.000 C 
ATOM     10  C   UNL     1       1.597   9.049  18.603  0.00  0.00    +0.000 C 
ATOM     11  C   UNL     1       2.264   7.691  18.410  0.00  0.00    +0.000 C 
ENDBRANCH   6   7
BRANCH   1  14
ATOM     12  C   UNL     1       5.547   5.482  18.758  0.00  0.00    +0.000 C 
ATOM     13  O   UNL     1       5.970   4.994  19.807  0.00  0.00    +0.000 OA
ATOM     14  N   UNL     1       4.224   5.487  18.359  0.00  0.00    +0.000 N 
ATOM     15  H   UNL     1       4.002   5.608  17.376  0.00  0.00    +0.000 HD
BRANCH  12  16
ATOM     16  C   UNL     1       6.489   6.197  17.786  0.00  0.00    +0.000 C 
BRANCH  16  20
ATOM     17  C   UNL     1       6.692   4.357  14.467  0.00  0.00    +0.000 C 
ATOM     18  C   UNL     1       7.025   4.836  15.857  0.00  0.00    +0.000 C 
ATOM     19  O   UNL     1       7.887   4.260  16.522  0.00  0.00    +0.000 OA
ATOM     20  N   UNL     1       6.298   5.905  16.363  0.00  0.00    +0.000 N 
ATOM     21  C   UNL     1       5.203   6.558  15.654  0.00  0.00    +0.000 C 
ENDBRANCH  16  20
ENDBRANCH  12  16
ENDBRANCH   1  14
TORSDOF 4
ENDMDL
MODEL 7
REMARK VINA RESULT:      -6.7      3.388      5.848
REMARK  Name = 
REMARK  6 active torsions:
REMARK  status: ('A' for Active; 'I' for Inactive)
REMARK    1  A    between atoms: C_1  and  C_2
REMARK    2  A    between atoms: N_4  and  C_5
REMARK    3  A    between atoms: N_4  and  C_6
REMARK    4  A    between atoms: C_6  and  C_7
REMARK    5  A    between atoms: N_9  and  C_10
REMARK    6  A    between atoms: C_15  and  N_16
REMARK                            x       y       z     vdW  Elec       q    Type
REMARK                         _______ _______ _______ _____ _____    ______ ____
ROOT
ATOM      1  C   UNL     1       2.772   5.611  18.271  0.00  0.00    +0.000 A 
ATOM      2  C   UNL     1       1.685   4.754  18.046  0.00  0.00    +0.000 A 
ATOM      3  C   UNL     1       1.893   3.451  17.613  0.00  0.00    +0.000 A 
ATOM      4  C   UNL     1       3.191   2.994  17.424  0.00  0.00    +0.000 A 
ATOM      5  C   UNL     1       4.281   3.846  17.649  0.00  0.00    +0.000 A 
ATOM      6  C   UNL     1       4.109   5.181  18.061  0.00  0.00    +0.000 A 
ENDROOT
BRANCH   6   7
ATOM      7  N   UNL     1       5.192   6.051  18.322  0.00  0.00    +0.000 N 
ATOM      8  C   UNL     1       5.806   6.827  17.227  0.00  0.00    +0.000 C 
ATOM      9  C   UNL     1       7.253   6.354  17.168  0.00  0.00    +0.000 C 
ATOM     10  C   UNL     1       7.566   6.040  18.616  0.00  0.00    +0.000 C 
ATOM     11  C   UNL     1       6.267   5.430  19.132  0.00  0.00    +0.000 C 
ENDBRANCH   6   7
BRANCH   1  14
ATOM     12  C   UNL     1       1.993   7.309  19.880  0.00  0.00    +0.000 C 
ATOM     13  O   UNL     1       1.605   6.522  20.743  0.00  0.00    +0.000 OA
ATOM     14  N   UNL     1       2.550   6.950  18.667  0.00  0.00    +0.000 N 
ATOM     15  H   UNL     1       3.123   7.621  18.166  0.00  0.00    +0.000 HD
BRANCH  12  16
ATOM     16  C   UNL     1       1.844   8.822  20.069  0.00  0.00    +0.000 C 
BRANCH  16  20
ATOM     17  C   UNL     1      -0.439  10.265  22.741  0.00  0.00    +0.000 C 
ATOM     18  C   UNL     1       0.729   9.579  22.078  0.00  0.00    +0.000 C 
ATOM     19  O   UNL     1       1.752   9.338  22.719  0.00  0.00    +0.000 OA
ATOM     20  N   UNL     1       0.618   9.277  20.728  0.00  0.00    +0.000 N 
ATOM     21  C   UNL     1      -0.533   9.629  19.903  0.00  0.00    +0.000 C 
ENDBRANCH  16  20
ENDBRANCH  12  16
ENDBRANCH   1  14
TORSDOF 4
ENDMDL
MODEL 8
REMARK VINA RESULT:      -6.6      3.654      6.294
REMARK  Name = 
REMARK  6 active torsions:
REMARK  status: ('A' for Active; 'I' for Inactive)
REMARK    1  A    between atoms: C_1  and  C_2
REMARK    2  A    between atoms: N_4  and  C_5
REMARK    3  A    between atoms: N_4  and  C_6
REMARK    4  A    between atoms: C_6  and  C_7
REMARK    5  A    between atoms: N_9  and  C_10
REMARK    6  A    between atoms: C_15  and  N_16
REMARK                            x       y       z     vdW  Elec       q    Type
REMARK                         _______ _______ _______ _____ _____    ______ ____
ROOT
ATOM      1  C   UNL     1       3.161   6.645  18.249  0.00  0.00    +0.000 A 
ATOM      2  C   UNL     1       4.128   7.063  17.323  0.00  0.00    +0.000 A 
ATOM      3  C   UNL     1       4.894   6.132  16.635  0.00  0.00    +0.000 A 
ATOM      4  C   UNL     1       4.682   4.777  16.855  0.00  0.00    +0.000 A 
ATOM      5  C   UNL     1       3.715   4.354  17.778  0.00  0.00    +0.000 A 
ATOM      6  C   UNL     1       2.939   5.268  18.515  0.00  0.00    +0.000 A 
ENDROOT
BRANCH   6   7
ATOM      7  N   UNL     1       1.939   4.866  19.429  0.00  0.00    +0.000 N 
ATOM      8  C   UNL     1       2.220   4.841  20.878  0.00  0.00    +0.000 C 
ATOM      9  C   UNL     1       2.043   3.385  21.292  0.00  0.00    +0.000 C 
ATOM     10  C   UNL     1       0.947   2.902  20.366  0.00  0.00    +0.000 C 
ATOM     11  C   UNL     1       1.263   3.602  19.050  0.00  0.00    +0.000 C 
ENDBRANCH   6   7
BRANCH   1  14
ATOM     12  C   UNL     1       1.860   8.732  18.415  0.00  0.00    +0.000 C 
ATOM     13  O   UNL     1       1.959   9.058  17.232  0.00  0.00    +0.000 OA
ATOM     14  N   UNL     1       2.418   7.601  18.979  0.00  0.00    +0.000 N 
ATOM     15  H   UNL     1       2.037   7.239  19.847  0.00  0.00    +0.000 HD
BRANCH  12  16
ATOM     16  C   UNL     1       1.112   9.618  19.416  0.00  0.00    +0.000 C 
BRANCH  16  20
ATOM     17  C   UNL     1      -1.208  12.435  18.356  0.00  0.00    +0.000 C 
ATOM     18  C   UNL     1      -0.676  11.053  18.640  0.00  0.00    +0.000 C 
ATOM     19  O   UNL     1      -1.437  10.085  18.652  0.00  0.00    +0.000 OA
ATOM     20  N   UNL     1       0.677  10.929  18.927  0.00  0.00    +0.000 N 
ATOM     21  C   UNL     1       1.600  12.054  19.020  0.00  0.00    +0.000 C 
ENDBRANCH  16  20
ENDBRANCH  12  16
ENDBRANCH   1  14
TORSDOF 4
ENDMDL
MODEL 9
REMARK VINA RESULT:      -6.6      2.685      6.008
REMARK  Name = 
REMARK  6 active torsions:
REMARK  status: ('A' for Active; 'I' for Inactive)
REMARK    1  A    between atoms: C_1  and  C_2
REMARK    2  A    between atoms: N_4  and  C_5
REMARK    3  A    between atoms: N_4  and  C_6
REMARK    4  A    between atoms: C_6  and  C_7
REMARK    5  A    between atoms: N_9  and  C_10
REMARK    6  A    between atoms: C_15  and  N_16
REMARK                            x       y       z     vdW  Elec       q    Type
REMARK                         _______ _______ _______ _____ _____    ______ ____
ROOT
ATOM      1  C   UNL     1       6.694   5.174  18.534  0.00  0.00    +0.000 A 
ATOM      2  C   UNL     1       7.503   5.838  19.467  0.00  0.00    +0.000 A 
ATOM      3  C   UNL     1       8.226   6.965  19.097  0.00  0.00    +0.000 A 
ATOM      4  C   UNL     1       8.126   7.442  17.797  0.00  0.00    +0.000 A 
ATOM      5  C   UNL     1       7.318   6.782  16.861  0.00  0.00    +0.000 A 
ATOM      6  C   UNL     1       6.593   5.622  17.191  0.00  0.00    +0.000 A 
ENDROOT
BRANCH   6   7
ATOM      7  N   UNL     1       5.748   4.955  16.274  0.00  0.00    +0.000 N 
ATOM      8  C   UNL     1       6.125   3.632  15.741  0.00  0.00    +0.000 C 
ATOM      9  C   UNL     1       6.252   3.831  14.236  0.00  0.00    +0.000 C 
ATOM     10  C   UNL     1       5.207   4.887  13.945  0.00  0.00    +0.000 C 
ATOM     11  C   UNL     1       5.298   5.814  15.152  0.00  0.00    +0.000 C 
ENDBRANCH   6   7
BRANCH   1  14
ATOM     12  C   UNL     1       4.746   4.005  19.493  0.00  0.00    +0.000 C 
ATOM     13  O   UNL     1       4.102   5.013  19.782  0.00  0.00    +0.000 OA
ATOM     14  N   UNL     1       5.998   4.001  18.907  0.00  0.00    +0.000 N 
ATOM     15  H   UNL     1       6.314   3.170  18.418  0.00  0.00    +0.000 HD
BRANCH  12  16
ATOM     16  C   UNL     1       4.209   2.607  19.814  0.00  0.00    +0.000 C 
BRANCH  16  20
ATOM     17  C   UNL     1       0.533   2.138  18.972  0.00  0.00    +0.000 C 
ATOM     18  C   UNL     1       1.805   2.338  19.758  0.00  0.00    +0.000 C 
ATOM     19  O   UNL     1       1.755   2.662  20.945  0.00  0.00    +0.000 OA
ATOM     20  N   UNL     1       3.010   2.188  19.085  0.00  0.00    +0.000 N 
ATOM     21  C   UNL     1       3.120   1.901  17.659  0.00  0.00    +0.000 C 
ENDBRANCH  16  20
ENDBRANCH  12  16
ENDBRANCH   1  14
TORSDOF 4
ENDMDL
