MODEL 1
REMARK VINA RESULT:      -7.0      0.000      0.000
REMARK  Name = 
REMARK  8 active torsions:
REMARK  status: ('A' for Active; 'I' for Inactive)
REMARK    1  A    between atoms: C_2  and  C_3
REMARK    2  A    between atoms: C_3  and  O_4
REMARK    3  A    between atoms: O_4  and  C_5
REMARK    4  A    between atoms: C_7  and  O_8
REMARK    5  A    between atoms: O_8  and  C_9
REMARK    6  A    between atoms: C_9  and  C_10
REMARK    7  A    between atoms: C_10  and  C_11
REMARK    8  A    between atoms: C_11  and  C_12
REMARK                            x       y       z     vdW  Elec       q    Type
REMARK                         _______ _______ _______ _____ _____    ______ ____
ROOT
ATOM      1  C   UNL     1       5.131   4.393  16.406  0.00  0.00    +0.000 A 
ATOM      2  C   UNL     1       4.315   3.444  17.023  0.00  0.00    +0.000 A 
ATOM      3  C   UNL     1       4.366   3.286  18.377  0.00  0.00    +0.000 A 
ATOM      4  N   UNL     1       5.245   3.941  19.172  0.00  0.00    +0.000 NA
ATOM      5  C   UNL     1       6.064   4.835  18.589  0.00  0.00    +0.000 A 
ATOM      6  C   UNL     1       6.950   5.535  19.417  0.00  0.00    +0.000 A 
ATOM      7  C   UNL     1       7.841   6.489  18.918  0.00  0.00    +0.000 A 
ATOM      8  C   UNL     1       7.813   6.814  17.577  0.00  0.00    +0.000 A 
ATOM      9  C   UNL     1       6.896   6.178  16.741  0.00  0.00    +0.000 A 
ATOM     10  C   UNL     1       6.047   5.136  17.213  0.00  0.00    +0.000 A 
ENDROOT
BRANCH   1  11
ATOM     11  O   UNL     1       5.042   4.600  15.040  0.00  0.00    +0.000 OA
BRANCH  11  12
ATOM     12  C   UNL     1       6.085   3.946  14.276  0.00  0.00    +0.000 C 
BRANCH  12  14
ATOM     13  C   UNL     1       5.076   3.203  11.746  0.00  0.00    +0.000 C 
ATOM     14  C   UNL     1       5.541   3.547  12.914  0.00  0.00    +0.000 C 
ENDBRANCH  12  14
ENDBRANCH  11  12
ENDBRANCH   1  11
BRANCH   3  15
ATOM     15  O   UNL     1       3.472   2.386  18.941  0.00  0.00    +0.000 OA
BRANCH  15  16
ATOM     16  C   UNL     1       2.371   2.033  18.092  0.00  0.00    +0.000 C 
BRANCH  16  17
ATOM     17  C   UNL     1       1.064   2.494  18.763  0.00  0.00    +0.000 C 
BRANCH  17  18
ATOM     18  C   UNL     1       1.242   2.854  20.242  0.00  0.00    +0.000 C 
ATOM     19  C   UNL     1       1.115   4.354  20.484  0.00  0.00    +0.000 C 
ENDBRANCH  17  18
ENDBRANCH  16  17
ENDBRANCH  15  16
ENDBRANCH   3  15
TORSDOF 7
ENDMDL
MODEL 2
REMARK VINA RESULT:      -7.0      1.722      5.816
REMARK  Name = 
REMARK  8 active torsions:
REMARK  status: ('A' for Active; 'I' for Inactive)
REMARK    1  A    between atoms: C_2  and  C_3
REMARK    2  A    between atoms: C_3  and  O_4
REMARK    3  A    between atoms: O_4  and  C_5
REMARK    4  A    between atoms: C_7  and  O_8
REMARK    5  A    between atoms: O_8  and  C_9
REMARK    6  A    between atoms: C_9  and  C_10
REMARK    7  A    between atoms: C_10  and  C_11
REMARK    8  A    between atoms: C_11  and  C_12
REMARK                            x       y       z     vdW  Elec       q    Type
REMARK                         _______ _______ _______ _____ _____    ______ ____
ROOT
ATOM      1  C   UNL     1       5.824   4.757  18.506  0.00  0.00    +0.000 A 
ATOM      2  C   UNL     1       6.407   4.358  17.303  0.00  0.00    +0.000 A 
ATOM      3  C   UNL     1       5.615   3.946  16.272  0.00  0.00    +0.000 A 
ATOM      4  N   UNL     1       4.272   3.808  16.372  0.00  0.00    +0.000 NA
ATOM      5  C   UNL     1       3.696   4.154  17.537  0.00  0.00    +0.000 A 
ATOM      6  C   UNL     1       2.303   4.040  17.628  0.00  0.00    +0.000 A 
ATOM      7  C   UNL     1       1.602   4.377  18.789  0.00  0.00    +0.000 A 
ATOM      8  C   UNL     1       2.281   4.906  19.869  0.00  0.00    +0.000 A 
ATOM      9  C   UNL     1       3.660   5.090  19.781  0.00  0.00    +0.000 A 
ATOM     10  C   UNL     1       4.404   4.664  18.643  0.00  0.00    +0.000 A 
ENDROOT
BRANCH   1  11
ATOM     11  O   UNL     1       6.617   5.232  19.537  0.00  0.00    +0.000 OA
BRANCH  11  12
ATOM     12  C   UNL     1       7.949   5.623  19.123  0.00  0.00    +0.000 C 
BRANCH  12  14
ATOM     13  C   UNL     1       7.822   8.072  17.724  0.00  0.00    +0.000 C 
ATOM     14  C   UNL     1       7.880   6.941  18.370  0.00  0.00    +0.000 C 
ENDBRANCH  12  14
ENDBRANCH  11  12
ENDBRANCH   1  11
BRANCH   3  15
ATOM     15  O   UNL     1       6.247   3.642  15.074  0.00  0.00    +0.000 OA
BRANCH  15  16
ATOM     16  C   UNL     1       5.572   4.133  13.907  0.00  0.00    +0.000 C 
BRANCH  16  17
ATOM     17  C   UNL     1       6.335   3.653  12.658  0.00  0.00    +0.000 C 
BRANCH  17  18
ATOM     18  C   UNL     1       5.544   2.639  11.823  0.00  0.00    +0.000 C 
ATOM     19  C   UNL     1       4.240   3.228  11.297  0.00  0.00    +0.000 C 
ENDBRANCH  17  18
ENDBRANCH  16  17
ENDBRANCH  15  16
ENDBRANCH   3  15
TORSDOF 7
ENDMDL
MODEL 3
REMARK VINA RESULT:      -6.8      2.763      6.077
REMARK  Name = 
REMARK  8 active torsions:
REMARK  status: ('A' for Active; 'I' for Inactive)
REMARK    1  A    between atoms: C_2  and  C_3
REMARK    2  A    between atoms: C_3  and  O_4
REMARK    3  A    between atoms: O_4  and  C_5
REMARK    4  A    between atoms: C_7  and  O_8
REMARK    5  A    between atoms: O_8  and  C_9
REMARK    6  A    between atoms: C_9  and  C_10
REMARK    7  A    between atoms: C_10  and  C_11
REMARK    8  A    between atoms: C_11  and  C_12
REMARK                            x       y       z     vdW  Elec       q    Type
REMARK                         _______ _______ _______ _____ _____    ______ ____
ROOT
ATOM      1  C   UNL     1       3.055   5.940  18.519  0.00  0.00    +0.000 A 
ATOM      2  C   UNL     1       3.990   5.806  17.492  0.00  0.00    +0.000 A 
ATOM      3  C   UNL     1       4.355   4.563  17.068  0.00  0.00    +0.000 A 
ATOM      4  N   UNL     1       3.928   3.419  17.654  0.00  0.00    +0.000 NA
ATOM      5  C   UNL     1       3.053   3.530  18.669  0.00  0.00    +0.000 A 
ATOM      6  C   UNL     1       2.588   2.346  19.253  0.00  0.00    +0.000 A 
ATOM      7  C   UNL     1       1.674   2.345  20.311  0.00  0.00    +0.000 A 
ATOM      8  C   UNL     1       1.150   3.539  20.762  0.00  0.00    +0.000 A 
ATOM      9  C   UNL     1       1.547   4.730  20.155  0.00  0.00    +0.000 A 
ATOM     10  C   UNL     1       2.548   4.758  19.141  0.00  0.00    +0.000 A 
ENDROOT
BRANCH   1  11
ATOM     11  O   UNL     1       2.637   7.199  18.915  0.00  0.00    +0.000 OA
BRANCH  11  12
ATOM     12  C   UNL     1       2.634   8.181  17.850  0.00  0.00    +0.000 C 
BRANCH  12  14
ATOM     13  C   UNL     1       0.522  10.010  18.259  0.00  0.00    +0.000 C 
ATOM     14  C   UNL     1       1.497   9.165  18.070  0.00  0.00    +0.000 C 
ENDBRANCH  12  14
ENDBRANCH  11  12
ENDBRANCH   1  11
BRANCH   3  15
ATOM     15  O   UNL     1       5.225   4.494  15.987  0.00  0.00    +0.000 OA
BRANCH  15  16
ATOM     16  C   UNL     1       6.399   5.308  16.119  0.00  0.00    +0.000 C 
BRANCH  16  17
ATOM     17  C   UNL     1       7.351   4.638  17.127  0.00  0.00    +0.000 C 
BRANCH  17  18
ATOM     18  C   UNL     1       7.623   5.502  18.364  0.00  0.00    +0.000 C 
ATOM     19  C   UNL     1       7.729   6.982  18.013  0.00  0.00    +0.000 C 
ENDBRANCH  17  18
ENDBRANCH  16  17
ENDBRANCH  15  16
ENDBRANCH   3  15
TORSDOF 7
ENDMDL
MODEL 4
REMARK VINA RESULT:      -6.8      2.566      6.158
REMARK  Name = 
REMARK  8 active torsions:
REMARK  status: ('A' for Active; 'I' for Inactive)
REMARK    1  A    between atoms: C_2  and  C_3
REMARK    2  A    between atoms: C_3  and  O_4
REMARK    3  A    between atoms: O_4  and  C_5
REMARK    4  A    between atoms: C_7  and  O_8
REMARK    5  A    between atoms: O_8  and  C_9
REMARK    6  A    between atoms: C_9  and  C_10
REMARK    7  A    between atoms: C_10  and  C_11
REMARK    8  A    between atoms: C_11  and  C_12
REMARK                            x       y       z     vdW  Elec       q    Type
REMARK                         _______ _______ _______ _____ _____    ______ ____
ROOT
ATOM      1  C   UNL     1       3.587   5.563  18.319  0.00  0.00    +0.000 A 
ATOM      2  C   UNL     1       4.540   5.144  17.389  0.00  0.00    +0.000 A 
ATOM      3  C   UNL     1       4.619   3.825  17.050  0.00  0.00    +0.000 A 
ATOM      4  N   UNL     1       3.876   2.857  17.637  0.00  0.00    +0.000 NA
ATOM      5  C   UNL     1       2.977   3.239  18.562  0.00  0.00    +0.000 A 
ATOM      6  C   UNL     1       2.188   2.241  19.146  0.00  0.00    +0.000 A 
ATOM      7  C   UNL     1       1.220   2.526  20.113  0.00  0.00    +0.000 A 
ATOM      8  C   UNL     1       0.972   3.837  20.466  0.00  0.00    +0.000 A 
ATOM      9  C   UNL     1       1.699   4.856  19.853  0.00  0.00    +0.000 A 
ATOM     10  C   UNL     1       2.755   4.579  18.937  0.00  0.00    +0.000 A 
ENDROOT
BRANCH   1  11
ATOM     11  O   UNL     1       3.462   6.907  18.625  0.00  0.00    +0.000 OA
BRANCH  11  12
ATOM     12  C   UNL     1       3.175   7.747  17.481  0.00  0.00    +0.000 C 
BRANCH  12  14
ATOM     13  C   UNL     1       1.036   9.484  18.099  0.00  0.00    +0.000 C 
ATOM     14  C   UNL     1       2.024   8.682  17.813  0.00  0.00    +0.000 C 
ENDBRANCH  12  14
ENDBRANCH  11  12
ENDBRANCH   1  11
BRANCH   3  15
ATOM     15  O   UNL     1       5.529   3.482  16.059  0.00  0.00    +0.000 OA
BRANCH  15  16
ATOM     16  C   UNL     1       6.606   4.416  15.894  0.00  0.00    +0.000 C 
BRANCH  16  17
ATOM     17  C   UNL     1       6.749   4.744  14.396  0.00  0.00    +0.000 C 
BRANCH  17  18
ATOM     18  C   UNL     1       5.905   3.831  13.498  0.00  0.00    +0.000 C 
ATOM     19  C   UNL     1       6.599   3.536  12.173  0.00  0.00    +0.000 C 
ENDBRANCH  17  18
ENDBRANCH  16  17
ENDBRANCH  15  16
ENDBRANCH   3  15
TORSDOF 7
ENDMDL
MODEL 5
REMARK VINA RESULT:      -6.8      2.431      6.054
REMARK  Name = 
REMARK  8 active torsions:
REMARK  status: ('A' for Active; 'I' for Inactive)
REMARK    1  A    between atoms: C_2  and  C_3
REMARK    2  A    between atoms: C_3  and  O_4
REMARK    3  A    between atoms: O_4  and  C_5
REMARK    4  A    between atoms: C_7  and  O_8
REMARK    5  A    between atoms: O_8  and  C_9
REMARK    6  A    between atoms: C_9  and  C_10
REMARK    7  A    between atoms: C_10  and  C_11
REMARK    8  A    between atoms: C_11  and  C_12
REMARK                            x       y       z     vdW  Elec       q    Type
REMARK                         _______ _______ _______ _____ _____    ______ ____
ROOT
ATOM      1  C   UNL     1       3.329   5.676  18.285  0.00  0.00    +0.000 A 
ATOM      2  C   UNL     1       4.662   5.931  18.610  0.00  0.00    +0.000 A 
ATOM      3  C   UNL     1       5.434   4.932  19.126  0.00  0.00    +0.000 A 
ATOM      4  N   UNL     1       4.957   3.703  19.437  0.00  0.00    +0.000 NA
ATOM      5  C   UNL     1       3.664   3.451  19.163  0.00  0.00    +0.000 A 
ATOM      6  C   UNL     1       3.180   2.170  19.455  0.00  0.00    +0.000 A 
ATOM      7  C   UNL     1       1.856   1.799  19.206  0.00  0.00    +0.000 A 
ATOM      8  C   UNL     1       1.001   2.690  18.589  0.00  0.00    +0.000 A 
ATOM      9  C   UNL     1       1.475   3.950  18.229  0.00  0.00    +0.000 A 
ATOM     10  C   UNL     1       2.793   4.380  18.560  0.00  0.00    +0.000 A 
ENDROOT
BRANCH   1  11
ATOM     11  O   UNL     1       2.555   6.667  17.707  0.00  0.00    +0.000 OA
BRANCH  11  12
ATOM     12  C   UNL     1       2.646   7.950  18.374  0.00  0.00    +0.000 C 
BRANCH  12  14
ATOM     13  C   UNL     1       1.362   7.800  20.884  0.00  0.00    +0.000 C 
ATOM     14  C   UNL     1       1.955   7.869  19.725  0.00  0.00    +0.000 C 
ENDBRANCH  12  14
ENDBRANCH  11  12
ENDBRANCH   1  11
BRANCH   3  15
ATOM     15  O   UNL     1       6.773   5.223  19.351  0.00  0.00    +0.000 OA
BRANCH  15  16
ATOM     16  C   UNL     1       7.485   5.673  18.190  0.00  0.00    +0.000 C 
BRANCH  16  17
ATOM     17  C   UNL     1       7.569   4.512  17.183  0.00  0.00    +0.000 C 
BRANCH  17  18
ATOM     18  C   UNL     1       6.984   4.863  15.810  0.00  0.00    +0.000 C 
ATOM     19  C   UNL     1       5.738   4.044  15.493  0.00  0.00    +0.000 C 
ENDBRANCH  17  18
ENDBRANCH  16  17
ENDBRANCH  15  16
ENDBRANCH   3  15
TORSDOF 7
ENDMDL
MODEL 6
REMARK VINA RESULT:      -6.7      2.098      5.643
REMARK  Name = 
REMARK  8 active torsions:
REMARK  status: ('A' for Active; 'I' for Inactive)
REMARK    1  A    between atoms: C_2  and  C_3
REMARK    2  A    between atoms: C_3  and  O_4
REMARK    3  A    between atoms: O_4  and  C_5
REMARK    4  A    between atoms: C_7  and  O_8
REMARK    5  A    between atoms: O_8  and  C_9
REMARK    6  A    between atoms: C_9  and  C_10
REMARK    7  A    between atoms: C_10  and  C_11
REMARK    8  A    between atoms: C_11  and  C_12
REMARK                            x       y       z     vdW  Elec       q    Type
REMARK                         _______ _______ _______ _____ _____    ______ ____
ROOT
ATOM      1  C   UNL     1       4.646   4.225  18.539  0.00  0.00    +0.000 A 
ATOM      2  C   UNL     1       5.629   4.003  17.573  0.00  0.00    +0.000 A 
ATOM      3  C   UNL     1       5.931   4.986  16.678  0.00  0.00    +0.000 A 
ATOM      4  N   UNL     1       5.260   6.160  16.603  0.00  0.00    +0.000 NA
ATOM      5  C   UNL     1       4.285   6.377  17.504  0.00  0.00    +0.000 A 
ATOM      6  C   UNL     1       3.614   7.604  17.445  0.00  0.00    +0.000 A 
ATOM      7  C   UNL     1       2.588   7.936  18.335  0.00  0.00    +0.000 A 
ATOM      8  C   UNL     1       2.259   7.065  19.354  0.00  0.00    +0.000 A 
ATOM      9  C   UNL     1       2.956   5.864  19.475  0.00  0.00    +0.000 A 
ATOM     10  C   UNL     1       3.938   5.466  18.521  0.00  0.00    +0.000 A 
ENDROOT
BRANCH   1  11
ATOM     11  O   UNL     1       4.375   3.255  19.487  0.00  0.00    +0.000 OA
BRANCH  11  12
ATOM     12  C   UNL     1       3.752   2.063  18.949  0.00  0.00    +0.000 C 
BRANCH  12  14
ATOM     13  C   UNL     1       0.956   2.439  18.817  0.00  0.00    +0.000 C 
ATOM     14  C   UNL     1       2.247   2.265  18.878  0.00  0.00    +0.000 C 
ENDBRANCH  12  14
ENDBRANCH  11  12
ENDBRANCH   1  11
BRANCH   3  15
ATOM     15  O   UNL     1       6.975   4.738  15.796  0.00  0.00    +0.000 OA
BRANCH  15  16
ATOM     16  C   UNL     1       6.641   4.927  14.414  0.00  0.00    +0.000 C 
BRANCH  16  17
ATOM     17  C   UNL     1       5.838   3.706  13.930  0.00  0.00    +0.000 C 
BRANCH  17  18
ATOM     18  C   UNL     1       6.014   3.426  12.433  0.00  0.00    +0.000 C 
ATOM     19  C   UNL     1       4.675   3.287  11.717  0.00  0.00    +0.000 C 
ENDBRANCH  17  18
ENDBRANCH  16  17
ENDBRANCH  15  16
ENDBRANCH   3  15
TORSDOF 7
ENDMDL
MODEL 7
REMARK VINA RESULT:      -6.7      2.755      5.993
REMARK  Name = 
REMARK  8 active torsions:
REMARK  status: ('A' for Active; 'I' for Inactive)
REMARK    1  A    between atoms: C_2  and  C_3
REMARK    2  A    between atoms: C_3  and  O_4
REMARK    3  A    between atoms: O_4  and  C_5
REMARK    4  A    between atoms: C_7  and  O_8
REMARK    5  A    between atoms: O_8  and  C_9
REMARK    6  A    between atoms: C_9  and  C_10
REMARK    7  A    between atoms: C_10  and  C_11
REMARK    8  A    between atoms: C_11  and  C_12
REMARK                            x       y       z     vdW  Elec       q    Type
REMARK                         _______ _______ _______ _____ _____    ______ ____
ROOT
ATOM      1  C   UNL     1       3.629   5.843  19.270  0.00  0.00    +0.000 A 
ATOM      2  C   UNL     1       4.926   5.710  18.773  0.00  0.00    +0.000 A 
ATOM      3  C   UNL     1       5.528   4.486  18.773  0.00  0.00    +0.000 A 
ATOM      4  N   UNL     1       4.970   3.380  19.319  0.00  0.00    +0.000 NA
ATOM      5  C   UNL     1       3.733   3.497  19.835  0.00  0.00    +0.000 A 
ATOM      6  C   UNL     1       3.145   2.345  20.371  0.00  0.00    +0.000 A 
ATOM      7  C   UNL     1       1.863   2.353  20.928  0.00  0.00    +0.000 A 
ATOM      8  C   UNL     1       1.110   3.509  20.895  0.00  0.00    +0.000 A 
ATOM      9  C   UNL     1       1.647   4.654  20.308  0.00  0.00    +0.000 A 
ATOM     10  C   UNL     1       2.986   4.692  19.822  0.00  0.00    +0.000 A 
ENDROOT
BRANCH   1  11
ATOM     11  O   UNL     1       2.990   7.070  19.221  0.00  0.00    +0.000 OA
BRANCH  11  12
ATOM     12  C   UNL     1       2.908   7.638  17.891  0.00  0.00    +0.000 C 
BRANCH  12  14
ATOM     13  C   UNL     1       1.251   9.924  17.943  0.00  0.00    +0.000 C 
ATOM     14  C   UNL     1       2.017   8.869  17.919  0.00  0.00    +0.000 C 
ENDBRANCH  12  14
ENDBRANCH  11  12
ENDBRANCH   1  11
BRANCH   3  15
ATOM     15  O   UNL     1       6.785   4.402  18.190  0.00  0.00    +0.000 OA
BRANCH  15  16
ATOM     16  C   UNL     1       6.856   4.924  16.855  0.00  0.00    +0.000 C 
BRANCH  16  17
ATOM     17  C   UNL     1       6.277   3.877  15.885  0.00  0.00    +0.000 C 
BRANCH  17  18
ATOM     18  C   UNL     1       5.641   4.501  14.638  0.00  0.00    +0.000 C 
ATOM     19  C   UNL     1       6.098   3.809  13.358  0.00  0.00    +0.000 C 
ENDBRANCH  17  18
ENDBRANCH  16  17
ENDBRANCH  15  16
ENDBRANCH   3  15
TORSDOF 7
ENDMDL
MODEL 8
REMARK VINA RESULT:      -6.7      2.365      6.200
REMARK  Name = 
REMARK  8 active torsions:
REMARK  status: ('A' for Active; 'I' for Inactive)
REMARK    1  A    between atoms: C_2  and  C_3
REMARK    2  A    between atoms: C_3  and  O_4
REMARK    3  A    between atoms: O_4  and  C_5
REMARK    4  A    between atoms: C_7  and  O_8
REMARK    5  A    between atoms: O_8  and  C_9
REMARK    6  A    between atoms: C_9  and  C_10
REMARK    7  A    between atoms: C_10  and  C_11
REMARK    8  A    between atoms: C_11  and  C_12
REMARK                            x       y       z     vdW  Elec       q    Type
REMARK                         _______ _______ _______ _____ _____    ______ ____
ROOT
ATOM      1  C   UNL     1       3.144   5.604  18.459  0.00  0.00    +0.000 A 
ATOM      2  C   UNL     1       4.472   5.644  18.032  0.00  0.00    +0.000 A 
ATOM      3  C   UNL     1       5.339   4.671  18.431  0.00  0.00    +0.000 A 
ATOM      4  N   UNL     1       5.013   3.694  19.311  0.00  0.00    +0.000 NA
ATOM      5  C   UNL     1       3.746   3.661  19.761  0.00  0.00    +0.000 A 
ATOM      6  C   UNL     1       3.402   2.632  20.645  0.00  0.00    +0.000 A 
ATOM      7  C   UNL     1       2.113   2.500  21.170  0.00  0.00    +0.000 A 
ATOM      8  C   UNL     1       1.117   3.364  20.761  0.00  0.00    +0.000 A 
ATOM      9  C   UNL     1       1.417   4.358  19.831  0.00  0.00    +0.000 A 
ATOM     10  C   UNL     1       2.745   4.568  19.358  0.00  0.00    +0.000 A 
ENDROOT
BRANCH   1  11
ATOM     11  O   UNL     1       2.243   6.555  18.011  0.00  0.00    +0.000 OA
BRANCH  11  12
ATOM     12  C   UNL     1       2.481   7.885  18.534  0.00  0.00    +0.000 C 
BRANCH  12  14
ATOM     13  C   UNL     1       1.267   8.132  21.071  0.00  0.00    +0.000 C 
ATOM     14  C   UNL     1       1.828   8.018  19.899  0.00  0.00    +0.000 C 
ENDBRANCH  12  14
ENDBRANCH  11  12
ENDBRANCH   1  11
BRANCH   3  15
ATOM     15  O   UNL     1       6.624   4.718  17.907  0.00  0.00    +0.000 OA
BRANCH  15  16
ATOM     16  C   UNL     1       6.700   5.226  16.567  0.00  0.00    +0.000 C 
BRANCH  16  17
ATOM     17  C   UNL     1       6.637   4.041  15.586  0.00  0.00    +0.000 C 
BRANCH  17  18
ATOM     18  C   UNL     1       5.637   4.259  14.444  0.00  0.00    +0.000 C 
ATOM     19  C   UNL     1       6.161   3.721  13.117  0.00  0.00    +0.000 C 
ENDBRANCH  17  18
ENDBRANCH  16  17
ENDBRANCH  15  16
ENDBRANCH   3  15
TORSDOF 7
ENDMDL
MODEL 9
REMARK VINA RESULT:      -6.7      2.154      5.523
REMARK  Name = 
REMARK  8 active torsions:
REMARK  status: ('A' for Active; 'I' for Inactive)
REMARK    1  A    between atoms: C_2  and  C_3
REMARK    2  A    between atoms: C_3  and  O_4
REMARK    3  A    between atoms: O_4  and  C_5
REMARK    4  A    between atoms: C_7  and  O_8
REMARK    5  A    between atoms: O_8  and  C_9
REMARK    6  A    between atoms: C_9  and  C_10
REMARK    7  A    between atoms: C_10  and  C_11
REMARK    8  A    between atoms: C_11  and  C_12
REMARK                            x       y       z     vdW  Elec       q    Type
REMARK                         _______ _______ _______ _____ _____    ______ ____
ROOT
ATOM      1  C   UNL     1       5.947   4.364  15.978  0.00  0.00    +0.000 A 
ATOM      2  C   UNL     1       6.858   5.420  15.939  0.00  0.00    +0.000 A 
ATOM      3  C   UNL     1       6.926   6.292  16.985  0.00  0.00    +0.000 A 
ATOM      4  N   UNL     1       6.084   6.255  18.045  0.00  0.00    +0.000 NA
ATOM      5  C   UNL     1       5.176   5.264  18.082  0.00  0.00    +0.000 A 
ATOM      6  C   UNL     1       4.327   5.207  19.194  0.00  0.00    +0.000 A 
ATOM      7  C   UNL     1       3.351   4.217  19.338  0.00  0.00    +0.000 A 
ATOM      8  C   UNL     1       3.251   3.214  18.395  0.00  0.00    +0.000 A 
ATOM      9  C   UNL     1       4.127   3.210  17.310  0.00  0.00    +0.000 A 
ATOM     10  C   UNL     1       5.064   4.262  17.097  0.00  0.00    +0.000 A 
ENDROOT
BRANCH   1  11
ATOM     11  O   UNL     1       5.912   3.440  14.948  0.00  0.00    +0.000 OA
BRANCH  11  12
ATOM     12  C   UNL     1       6.373   3.958  13.676  0.00  0.00    +0.000 C 
BRANCH  12  14
ATOM     13  C   UNL     1       4.574   3.194  11.638  0.00  0.00    +0.000 C 
ATOM     14  C   UNL     1       5.404   3.547  12.579  0.00  0.00    +0.000 C 
ENDBRANCH  12  14
ENDBRANCH  11  12
ENDBRANCH   1  11
BRANCH   3  15
ATOM     15  O   UNL     1       7.908   7.272  16.926  0.00  0.00    +0.000 OA
BRANCH  15  16
ATOM     16  C   UNL     1       7.549   8.510  17.555  0.00  0.00    +0.000 C 
BRANCH  16  17
ATOM     17  C   UNL     1       8.659   8.897  18.550  0.00  0.00    +0.000 C 
BRANCH  17  18
ATOM     18  C   UNL     1       9.083  10.366  18.436  0.00  0.00    +0.000 C 
ATOM     19  C   UNL     1       9.636  10.903  19.752  0.00  0.00    +0.000 C 
ENDBRANCH  17  18
ENDBRANCH  16  17
ENDBRANCH  15  16
ENDBRANCH   3  15
TORSDOF 7
ENDMDL
