MODEL 1
REMARK VINA RESULT:      -6.8      0.000      0.000
REMARK  Name = 
REMARK  7 active torsions:
REMARK  status: ('A' for Active; 'I' for Inactive)
REMARK    1  A    between atoms: C_1  and  C_2
REMARK    2  A    between atoms: C_2  and  C_14
REMARK    3  A    between atoms: N_3  and  N_4
REMARK    4  A    between atoms: N_4  and  C_5
REMARK    5  A    between atoms: C_5  and  C_6
REMARK    6  A    between atoms: C_7  and  C_8
REMARK    7  A    between atoms: C_14  and  O_16
REMARK                            x       y       z     vdW  Elec       q    Type
REMARK                         _______ _______ _______ _____ _____    ______ ____
ROOT
ATOM      1  N   UNL     1       7.292   4.319  17.887  0.00  0.00    +0.000 N 
ATOM      2  H   UNL     1       6.561   3.602  17.907  0.00  0.00    +0.000 HD
ENDROOT
BRANCH   1   5
ATOM      3  C   UNL     1       5.404   3.824  15.813  0.00  0.00    +0.000 C 
ATOM      4  C   UNL     1       6.772   4.435  15.685  0.00  0.00    +0.000 C 
ATOM      5  N   UNL     1       7.649   4.665  16.628  0.00  0.00    +0.000 NA
BRANCH   4   6
ATOM      6  C   UNL     1       7.195   4.826  14.266  0.00  0.00    +0.000 C 
ATOM      7  O   UNL     1       8.056   5.648  14.034  0.00  0.00    +0.000 OA
BRANCH   6   8
ATOM      8  O   UNL     1       6.499   4.133  13.348  0.00  0.00    +0.000 OA
ATOM      9  H   UNL     1       7.143   3.640  12.786  0.00  0.00    +0.000 HD
ENDBRANCH   6   8
ENDBRANCH   4   6
ENDBRANCH   1   5
BRANCH   1  10
ATOM     10  C   UNL     1       6.879   5.400  18.787  0.00  0.00    +0.000 C 
BRANCH  10  11
ATOM     11  C   UNL     1       5.459   5.173  19.208  0.00  0.00    +0.000 C 
ATOM     12  C   UNL     1       4.838   3.982  19.215  0.00  0.00    +0.000 C 
BRANCH  12  13
ATOM     13  C   UNL     1       3.438   3.801  19.637  0.00  0.00    +0.000 A 
ATOM     14  C   UNL     1       2.699   4.843  20.213  0.00  0.00    +0.000 A 
ATOM     15  C   UNL     1       1.371   4.649  20.603  0.00  0.00    +0.000 A 
ATOM     16  C   UNL     1       0.761   3.414  20.406  0.00  0.00    +0.000 A 
ATOM     17  C   UNL     1       1.474   2.376  19.808  0.00  0.00    +0.000 A 
ATOM     18  C   UNL     1       2.804   2.571  19.420  0.00  0.00    +0.000 A 
ENDBRANCH  12  13
ENDBRANCH  10  11
ENDBRANCH   1  10
TORSDOF 6
ENDMDL
MODEL 2
REMARK VINA RESULT:      -6.7      2.282      3.084
REMARK  Name = 
REMARK  7 active torsions:
REMARK  status: ('A' for Active; 'I' for Inactive)
REMARK    1  A    between atoms: C_1  and  C_2
REMARK    2  A    between atoms: C_2  and  C_14
REMARK    3  A    between atoms: N_3  and  N_4
REMARK    4  A    between atoms: N_4  and  C_5
REMARK    5  A    between atoms: C_5  and  C_6
REMARK    6  A    between atoms: C_7  and  C_8
REMARK    7  A    between atoms: C_14  and  O_16
REMARK                            x       y       z     vdW  Elec       q    Type
REMARK                         _______ _______ _______ _____ _____    ______ ____
ROOT
ATOM      1  N   UNL     1       6.779   4.634  16.042  0.00  0.00    +0.000 N 
ATOM      2  H   UNL     1       7.410   4.150  15.398  0.00  0.00    +0.000 HD
ENDROOT
BRANCH   1   5
ATOM      3  C   UNL     1       7.267   5.263  18.776  0.00  0.00    +0.000 C 
ATOM      4  C   UNL     1       7.410   6.169  17.583  0.00  0.00    +0.000 C 
ATOM      5  N   UNL     1       7.187   5.894  16.324  0.00  0.00    +0.000 NA
BRANCH   4   6
ATOM      6  C   UNL     1       7.864   7.599  17.887  0.00  0.00    +0.000 C 
ATOM      7  O   UNL     1       7.556   8.552  17.202  0.00  0.00    +0.000 OA
BRANCH   6   8
ATOM      8  O   UNL     1       8.621   7.640  18.997  0.00  0.00    +0.000 OA
ATOM      9  H   UNL     1       8.074   8.021  19.725  0.00  0.00    +0.000 HD
ENDBRANCH   6   8
ENDBRANCH   4   6
ENDBRANCH   1   5
BRANCH   1  10
ATOM     10  C   UNL     1       5.414   4.471  15.532  0.00  0.00    +0.000 C 
BRANCH  10  11
ATOM     11  C   UNL     1       4.504   4.119  16.669  0.00  0.00    +0.000 C 
ATOM     12  C   UNL     1       3.757   4.998  17.359  0.00  0.00    +0.000 C 
BRANCH  12  13
ATOM     13  C   UNL     1       2.873   4.610  18.472  0.00  0.00    +0.000 A 
ATOM     14  C   UNL     1       3.020   5.152  19.756  0.00  0.00    +0.000 A 
ATOM     15  C   UNL     1       2.167   4.772  20.796  0.00  0.00    +0.000 A 
ATOM     16  C   UNL     1       1.145   3.856  20.558  0.00  0.00    +0.000 A 
ATOM     17  C   UNL     1       0.969   3.331  19.279  0.00  0.00    +0.000 A 
ATOM     18  C   UNL     1       1.825   3.710  18.240  0.00  0.00    +0.000 A 
ENDBRANCH  12  13
ENDBRANCH  10  11
ENDBRANCH   1  10
TORSDOF 6
ENDMDL
MODEL 3
REMARK VINA RESULT:      -6.6      1.255      1.318
REMARK  Name = 
REMARK  7 active torsions:
REMARK  status: ('A' for Active; 'I' for Inactive)
REMARK    1  A    between atoms: C_1  and  C_2
REMARK    2  A    between atoms: C_2  and  C_14
REMARK    3  A    between atoms: N_3  and  N_4
REMARK    4  A    between atoms: N_4  and  C_5
REMARK    5  A    between atoms: C_5  and  C_6
REMARK    6  A    between atoms: C_7  and  C_8
REMARK    7  A    between atoms: C_14  and  O_16
REMARK                            x       y       z     vdW  Elec       q    Type
REMARK                         _______ _______ _______ _____ _____    ______ ____
ROOT
ATOM      1  N   UNL     1       7.016   6.317  17.903  0.00  0.00    +0.000 N 
ATOM      2  H   UNL     1       7.598   7.145  18.053  0.00  0.00    +0.000 HD
ENDROOT
BRANCH   1   5
ATOM      3  C   UNL     1       5.119   6.245  15.780  0.00  0.00    +0.000 C 
ATOM      4  C   UNL     1       6.482   5.609  15.818  0.00  0.00    +0.000 C 
ATOM      5  N   UNL     1       7.360   5.631  16.787  0.00  0.00    +0.000 NA
BRANCH   4   6
ATOM      6  C   UNL     1       6.884   4.824  14.567  0.00  0.00    +0.000 C 
ATOM      7  O   UNL     1       7.567   5.292  13.682  0.00  0.00    +0.000 OA
BRANCH   6   8
ATOM      8  O   UNL     1       6.390   3.574  14.603  0.00  0.00    +0.000 OA
ATOM      9  H   UNL     1       6.904   3.062  15.273  0.00  0.00    +0.000 HD
ENDBRANCH   6   8
ENDBRANCH   4   6
ENDBRANCH   1   5
BRANCH   1  10
ATOM     10  C   UNL     1       6.975   5.568  19.162  0.00  0.00    +0.000 C 
BRANCH  10  11
ATOM     11  C   UNL     1       5.664   4.852  19.266  0.00  0.00    +0.000 C 
ATOM     12  C   UNL     1       4.461   5.449  19.316  0.00  0.00    +0.000 C 
BRANCH  12  13
ATOM     13  C   UNL     1       3.192   4.708  19.419  0.00  0.00    +0.000 A 
ATOM     14  C   UNL     1       2.527   4.545  20.641  0.00  0.00    +0.000 A 
ATOM     15  C   UNL     1       1.323   3.840  20.714  0.00  0.00    +0.000 A 
ATOM     16  C   UNL     1       0.760   3.303  19.558  0.00  0.00    +0.000 A 
ATOM     17  C   UNL     1       1.395   3.482  18.331  0.00  0.00    +0.000 A 
ATOM     18  C   UNL     1       2.602   4.185  18.260  0.00  0.00    +0.000 A 
ENDBRANCH  12  13
ENDBRANCH  10  11
ENDBRANCH   1  10
TORSDOF 6
ENDMDL
MODEL 4
REMARK VINA RESULT:      -6.6      1.504      2.047
REMARK  Name = 
REMARK  7 active torsions:
REMARK  status: ('A' for Active; 'I' for Inactive)
REMARK    1  A    between atoms: C_1  and  C_2
REMARK    2  A    between atoms: C_2  and  C_14
REMARK    3  A    between atoms: N_3  and  N_4
REMARK    4  A    between atoms: N_4  and  C_5
REMARK    5  A    between atoms: C_5  and  C_6
REMARK    6  A    between atoms: C_7  and  C_8
REMARK    7  A    between atoms: C_14  and  O_16
REMARK                            x       y       z     vdW  Elec       q    Type
REMARK                         _______ _______ _______ _____ _____    ______ ____
ROOT
ATOM      1  N   UNL     1       6.674   5.408  16.482  0.00  0.00    +0.000 N 
ATOM      2  H   UNL     1       6.096   4.563  16.495  0.00  0.00    +0.000 HD
ENDROOT
BRANCH   1   5
ATOM      3  C   UNL     1       5.682   4.053  14.182  0.00  0.00    +0.000 C 
ATOM      4  C   UNL     1       6.908   4.919  14.283  0.00  0.00    +0.000 C 
ATOM      5  N   UNL     1       7.376   5.544  15.332  0.00  0.00    +0.000 NA
BRANCH   4   6
ATOM      6  C   UNL     1       7.718   5.076  12.993  0.00  0.00    +0.000 C 
ATOM      7  O   UNL     1       7.445   4.495  11.964  0.00  0.00    +0.000 OA
BRANCH   6   8
ATOM      8  O   UNL     1       8.735   5.938  13.165  0.00  0.00    +0.000 OA
ATOM      9  H   UNL     1       9.558   5.510  12.828  0.00  0.00    +0.000 HD
ENDBRANCH   6   8
ENDBRANCH   4   6
ENDBRANCH   1   5
BRANCH   1  10
ATOM     10  C   UNL     1       5.824   6.533  16.884  0.00  0.00    +0.000 C 
BRANCH  10  11
ATOM     11  C   UNL     1       4.747   6.034  17.798  0.00  0.00    +0.000 C 
ATOM     12  C   UNL     1       3.926   5.004  17.531  0.00  0.00    +0.000 C 
BRANCH  12  13
ATOM     13  C   UNL     1       2.878   4.543  18.457  0.00  0.00    +0.000 A 
ATOM     14  C   UNL     1       1.888   3.634  18.062  0.00  0.00    +0.000 A 
ATOM     15  C   UNL     1       0.905   3.208  18.959  0.00  0.00    +0.000 A 
ATOM     16  C   UNL     1       0.912   3.676  20.270  0.00  0.00    +0.000 A 
ATOM     17  C   UNL     1       1.907   4.558  20.687  0.00  0.00    +0.000 A 
ATOM     18  C   UNL     1       2.888   4.985  19.787  0.00  0.00    +0.000 A 
ENDBRANCH  12  13
ENDBRANCH  10  11
ENDBRANCH   1  10
TORSDOF 6
ENDMDL
MODEL 5
REMARK VINA RESULT:      -6.5      2.682      3.688
REMARK  Name = 
REMARK  7 active torsions:
REMARK  status: ('A' for Active; 'I' for Inactive)
REMARK    1  A    between atoms: C_1  and  C_2
REMARK    2  A    between atoms: C_2  and  C_14
REMARK    3  A    between atoms: N_3  and  N_4
REMARK    4  A    between atoms: N_4  and  C_5
REMARK    5  A    between atoms: C_5  and  C_6
REMARK    6  A    between atoms: C_7  and  C_8
REMARK    7  A    between atoms: C_14  and  O_16
REMARK                            x       y       z     vdW  Elec       q    Type
REMARK                         _______ _______ _______ _____ _____    ______ ____
ROOT
ATOM      1  N   UNL     1       7.318   5.447  15.549  0.00  0.00    +0.000 N 
ATOM      2  H   UNL     1       7.274   6.457  15.385  0.00  0.00    +0.000 HD
ENDROOT
BRANCH   1   5
ATOM      3  C   UNL     1       7.381   7.606  17.405  0.00  0.00    +0.000 C 
ATOM      4  C   UNL     1       7.370   6.133  17.707  0.00  0.00    +0.000 C 
ATOM      5  N   UNL     1       7.344   5.132  16.865  0.00  0.00    +0.000 NA
BRANCH   4   6
ATOM      6  C   UNL     1       7.406   5.759  19.192  0.00  0.00    +0.000 C 
ATOM      7  O   UNL     1       6.531   5.120  19.736  0.00  0.00    +0.000 OA
BRANCH   6   8
ATOM      8  O   UNL     1       8.524   6.221  19.777  0.00  0.00    +0.000 OA
ATOM      9  H   UNL     1       8.284   6.548  20.677  0.00  0.00    +0.000 HD
ENDBRANCH   6   8
ENDBRANCH   4   6
ENDBRANCH   1   5
BRANCH   1  10
ATOM     10  C   UNL     1       6.278   4.819  14.730  0.00  0.00    +0.000 C 
BRANCH  10  11
ATOM     11  C   UNL     1       5.329   4.080  15.623  0.00  0.00    +0.000 C 
ATOM     12  C   UNL     1       4.329   4.646  16.322  0.00  0.00    +0.000 C 
BRANCH  12  13
ATOM     13  C   UNL     1       3.416   3.883  17.190  0.00  0.00    +0.000 A 
ATOM     14  C   UNL     1       2.176   4.396  17.592  0.00  0.00    +0.000 A 
ATOM     15  C   UNL     1       1.325   3.653  18.414  0.00  0.00    +0.000 A 
ATOM     16  C   UNL     1       1.698   2.378  18.830  0.00  0.00    +0.000 A 
ATOM     17  C   UNL     1       2.915   1.842  18.415  0.00  0.00    +0.000 A 
ATOM     18  C   UNL     1       3.768   2.588  17.595  0.00  0.00    +0.000 A 
ENDBRANCH  12  13
ENDBRANCH  10  11
ENDBRANCH   1  10
TORSDOF 6
ENDMDL
MODEL 6
REMARK VINA RESULT:      -6.4      2.723      3.517
REMARK  Name = 
REMARK  7 active torsions:
REMARK  status: ('A' for Active; 'I' for Inactive)
REMARK    1  A    between atoms: C_1  and  C_2
REMARK    2  A    between atoms: C_2  and  C_14
REMARK    3  A    between atoms: N_3  and  N_4
REMARK    4  A    between atoms: N_4  and  C_5
REMARK    5  A    between atoms: C_5  and  C_6
REMARK    6  A    between atoms: C_7  and  C_8
REMARK    7  A    between atoms: C_14  and  O_16
REMARK                            x       y       z     vdW  Elec       q    Type
REMARK                         _______ _______ _______ _____ _____    ______ ____
ROOT
ATOM      1  N   UNL     1       6.668   5.632  15.187  0.00  0.00    +0.000 N 
ATOM      2  H   UNL     1       5.726   6.032  15.213  0.00  0.00    +0.000 HD
ENDROOT
BRANCH   1   5
ATOM      3  C   UNL     1       5.466   7.145  17.279  0.00  0.00    +0.000 C 
ATOM      4  C   UNL     1       6.930   6.874  17.064  0.00  0.00    +0.000 C 
ATOM      5  N   UNL     1       7.495   6.184  16.107  0.00  0.00    +0.000 NA
BRANCH   4   6
ATOM      6  C   UNL     1       7.880   7.498  18.090  0.00  0.00    +0.000 C 
ATOM      7  O   UNL     1       8.228   8.659  18.052  0.00  0.00    +0.000 OA
BRANCH   6   8
ATOM      8  O   UNL     1       8.247   6.596  19.017  0.00  0.00    +0.000 OA
ATOM      9  H   UNL     1       9.233   6.587  19.061  0.00  0.00    +0.000 HD
ENDBRANCH   6   8
ENDBRANCH   4   6
ENDBRANCH   1   5
BRANCH   1  10
ATOM     10  C   UNL     1       6.532   4.173  15.201  0.00  0.00    +0.000 C 
BRANCH  10  11
ATOM     11  C   UNL     1       5.203   3.809  15.790  0.00  0.00    +0.000 C 
ATOM     12  C   UNL     1       4.939   3.725  17.105  0.00  0.00    +0.000 C 
BRANCH  12  13
ATOM     13  C   UNL     1       3.618   3.364  17.644  0.00  0.00    +0.000 A 
ATOM     14  C   UNL     1       3.375   2.116  18.235  0.00  0.00    +0.000 A 
ATOM     15  C   UNL     1       2.114   1.796  18.742  0.00  0.00    +0.000 A 
ATOM     16  C   UNL     1       1.082   2.729  18.680  0.00  0.00    +0.000 A 
ATOM     17  C   UNL     1       1.315   3.984  18.122  0.00  0.00    +0.000 A 
ATOM     18  C   UNL     1       2.578   4.302  17.612  0.00  0.00    +0.000 A 
ENDBRANCH  12  13
ENDBRANCH  10  11
ENDBRANCH   1  10
TORSDOF 6
ENDMDL
MODEL 7
REMARK VINA RESULT:      -6.4      1.255      1.544
REMARK  Name = 
REMARK  7 active torsions:
REMARK  status: ('A' for Active; 'I' for Inactive)
REMARK    1  A    between atoms: C_1  and  C_2
REMARK    2  A    between atoms: C_2  and  C_14
REMARK    3  A    between atoms: N_3  and  N_4
REMARK    4  A    between atoms: N_4  and  C_5
REMARK    5  A    between atoms: C_5  and  C_6
REMARK    6  A    between atoms: C_7  and  C_8
REMARK    7  A    between atoms: C_14  and  O_16
REMARK                            x       y       z     vdW  Elec       q    Type
REMARK                         _______ _______ _______ _____ _____    ______ ____
ROOT
ATOM      1  N   UNL     1       6.883   5.953  17.037  0.00  0.00    +0.000 N 
ATOM      2  H   UNL     1       6.552   5.050  17.388  0.00  0.00    +0.000 HD
ENDROOT
BRANCH   1   5
ATOM      3  C   UNL     1       5.963   3.749  15.486  0.00  0.00    +0.000 C 
ATOM      4  C   UNL     1       6.850   4.881  15.042  0.00  0.00    +0.000 C 
ATOM      5  N   UNL     1       7.282   5.896  15.744  0.00  0.00    +0.000 NA
BRANCH   4   6
ATOM      6  C   UNL     1       7.316   4.827  13.584  0.00  0.00    +0.000 C 
ATOM      7  O   UNL     1       6.823   4.090  12.758  0.00  0.00    +0.000 OA
BRANCH   6   8
ATOM      8  O   UNL     1       8.312   5.702  13.365  0.00  0.00    +0.000 OA
ATOM      9  H   UNL     1       8.305   5.938  12.406  0.00  0.00    +0.000 HD
ENDBRANCH   6   8
ENDBRANCH   4   6
ENDBRANCH   1   5
BRANCH   1  10
ATOM     10  C   UNL     1       5.878   6.961  17.384  0.00  0.00    +0.000 C 
BRANCH  10  11
ATOM     11  C   UNL     1       4.606   6.273  17.774  0.00  0.00    +0.000 C 
ATOM     12  C   UNL     1       4.496   5.343  18.738  0.00  0.00    +0.000 C 
BRANCH  12  13
ATOM     13  C   UNL     1       3.225   4.689  19.091  0.00  0.00    +0.000 A 
ATOM     14  C   UNL     1       2.604   4.898  20.330  0.00  0.00    +0.000 A 
ATOM     15  C   UNL     1       1.396   4.270  20.642  0.00  0.00    +0.000 A 
ATOM     16  C   UNL     1       0.785   3.436  19.710  0.00  0.00    +0.000 A 
ATOM     17  C   UNL     1       1.374   3.241  18.462  0.00  0.00    +0.000 A 
ATOM     18  C   UNL     1       2.585   3.869  18.153  0.00  0.00    +0.000 A 
ENDBRANCH  12  13
ENDBRANCH  10  11
ENDBRANCH   1  10
TORSDOF 6
ENDMDL
MODEL 8
REMARK VINA RESULT:      -6.4      2.519      3.278
REMARK  Name = 
REMARK  7 active torsions:
REMARK  status: ('A' for Active; 'I' for Inactive)
REMARK    1  A    between atoms: C_1  and  C_2
REMARK    2  A    between atoms: C_2  and  C_14
REMARK    3  A    between atoms: N_3  and  N_4
REMARK    4  A    between atoms: N_4  and  C_5
REMARK    5  A    between atoms: C_5  and  C_6
REMARK    6  A    between atoms: C_7  and  C_8
REMARK    7  A    between atoms: C_14  and  O_16
REMARK                            x       y       z     vdW  Elec       q    Type
REMARK                         _______ _______ _______ _____ _____    ______ ____
ROOT
ATOM      1  N   UNL     1       6.644   4.540  15.853  0.00  0.00    +0.000 N 
ATOM      2  H   UNL     1       6.729   5.436  15.367  0.00  0.00    +0.000 HD
ENDROOT
BRANCH   1   5
ATOM      3  C   UNL     1       6.949   7.136  16.982  0.00  0.00    +0.000 C 
ATOM      4  C   UNL     1       7.160   5.808  17.658  0.00  0.00    +0.000 C 
ATOM      5  N   UNL     1       7.027   4.610  17.150  0.00  0.00    +0.000 NA
BRANCH   4   6
ATOM      6  C   UNL     1       7.601   5.871  19.123  0.00  0.00    +0.000 C 
ATOM      7  O   UNL     1       7.154   5.140  19.981  0.00  0.00    +0.000 OA
BRANCH   6   8
ATOM      8  O   UNL     1       8.535   6.820  19.305  0.00  0.00    +0.000 OA
ATOM      9  H   UNL     1       9.359   6.379  19.624  0.00  0.00    +0.000 HD
ENDBRANCH   6   8
ENDBRANCH   4   6
ENDBRANCH   1   5
BRANCH   1  10
ATOM     10  C   UNL     1       5.306   4.010  15.578  0.00  0.00    +0.000 C 
BRANCH  10  11
ATOM     11  C   UNL     1       4.569   3.840  16.871  0.00  0.00    +0.000 C 
ATOM     12  C   UNL     1       3.336   4.311  17.124  0.00  0.00    +0.000 C 
BRANCH  12  13
ATOM     13  C   UNL     1       2.645   4.123  18.411  0.00  0.00    +0.000 A 
ATOM     14  C   UNL     1       3.052   4.790  19.574  0.00  0.00    +0.000 A 
ATOM     15  C   UNL     1       2.380   4.597  20.783  0.00  0.00    +0.000 A 
ATOM     16  C   UNL     1       1.279   3.746  20.840  0.00  0.00    +0.000 A 
ATOM     17  C   UNL     1       0.844   3.099  19.685  0.00  0.00    +0.000 A 
ATOM     18  C   UNL     1       1.520   3.290  18.476  0.00  0.00    +0.000 A 
ENDBRANCH  12  13
ENDBRANCH  10  11
ENDBRANCH   1  10
TORSDOF 6
ENDMDL
MODEL 9
REMARK VINA RESULT:      -6.3      1.308      1.824
REMARK  Name = 
REMARK  7 active torsions:
REMARK  status: ('A' for Active; 'I' for Inactive)
REMARK    1  A    between atoms: C_1  and  C_2
REMARK    2  A    between atoms: C_2  and  C_14
REMARK    3  A    between atoms: N_3  and  N_4
REMARK    4  A    between atoms: N_4  and  C_5
REMARK    5  A    between atoms: C_5  and  C_6
REMARK    6  A    between atoms: C_7  and  C_8
REMARK    7  A    between atoms: C_14  and  O_16
REMARK                            x       y       z     vdW  Elec       q    Type
REMARK                         _______ _______ _______ _____ _____    ______ ____
ROOT
ATOM      1  N   UNL     1       7.145   6.350  18.024  0.00  0.00    +0.000 N 
ATOM      2  H   UNL     1       7.856   7.038  18.284  0.00  0.00    +0.000 HD
ENDROOT
BRANCH   1   5
ATOM      3  C   UNL     1       5.224   6.282  15.924  0.00  0.00    +0.000 C 
ATOM      4  C   UNL     1       6.582   5.636  15.949  0.00  0.00    +0.000 C 
ATOM      5  N   UNL     1       7.472   5.657  16.908  0.00  0.00    +0.000 NA
BRANCH   4   6
ATOM      6  C   UNL     1       6.965   4.843  14.697  0.00  0.00    +0.000 C 
ATOM      7  O   UNL     1       6.425   3.805  14.380  0.00  0.00    +0.000 OA
BRANCH   6   8
ATOM      8  O   UNL     1       7.948   5.459  14.018  0.00  0.00    +0.000 OA
ATOM      9  H   UNL     1       8.246   6.235  14.550  0.00  0.00    +0.000 HD
ENDBRANCH   6   8
ENDBRANCH   4   6
ENDBRANCH   1   5
BRANCH   1  10
ATOM     10  C   UNL     1       6.821   5.572  19.223  0.00  0.00    +0.000 C 
BRANCH  10  11
ATOM     11  C   UNL     1       5.394   5.123  19.147  0.00  0.00    +0.000 C 
ATOM     12  C   UNL     1       4.994   3.854  18.952  0.00  0.00    +0.000 C 
BRANCH  12  13
ATOM     13  C   UNL     1       3.579   3.453  18.883  0.00  0.00    +0.000 A 
ATOM     14  C   UNL     1       3.099   2.315  19.546  0.00  0.00    +0.000 A 
ATOM     15  C   UNL     1       1.751   1.956  19.468  0.00  0.00    +0.000 A 
ATOM     16  C   UNL     1       0.862   2.742  18.740  0.00  0.00    +0.000 A 
ATOM     17  C   UNL     1       1.318   3.892  18.099  0.00  0.00    +0.000 A 
ATOM     18  C   UNL     1       2.669   4.249  18.175  0.00  0.00    +0.000 A 
ENDBRANCH  12  13
ENDBRANCH  10  11
ENDBRANCH   1  10
TORSDOF 6
ENDMDL
