MODEL 1
REMARK VINA RESULT:      -7.1      0.000      0.000
REMARK  Name = 
REMARK  14 active torsions:
REMARK  status: ('A' for Active; 'I' for Inactive)
REMARK    1  A    between atoms: C_1  and  C_2
REMARK    2  A    between atoms: C_2  and  C_3
REMARK    3  A    between atoms: C_3  and  S_4
REMARK    4  A    between atoms: S_4  and  C_5
REMARK    5  A    between atoms: C_9  and  C_10
REMARK    6  A    between atoms: C_12  and  S_13
REMARK    7  A    between atoms: S_13  and  N_16
REMARK    8  A    between atoms: C_20  and  O_21
REMARK    9  A    between atoms: O_21  and  C_22
REMARK   10  A    between atoms: C_22  and  C_23
REMARK   11  A    between atoms: C_23  and  C_24
REMARK   12  A    between atoms: C_24  and  N_25
REMARK   13  A    between atoms: N_25  and  C_26
REMARK   14  A    between atoms: N_25  and  C_27
REMARK                            x       y       z     vdW  Elec       q    Type
REMARK                         _______ _______ _______ _____ _____    ______ ____
ROOT
ATOM      1  S   UNL     1       4.140   4.760  18.184  0.00  0.00    +0.000 S 
ATOM      2  O   UNL     1       4.657   3.721  19.192  0.00  0.00    +0.000 OA
ATOM      3  O   UNL     1       3.540   3.902  17.063  0.00  0.00    +0.000 OA
ENDROOT
BRANCH   1  11
ATOM      4  C   UNL     1       2.386   5.833  20.166  0.00  0.00    +0.000 A 
ATOM      5  C   UNL     1       1.604   6.882  20.675  0.00  0.00    +0.000 A 
ATOM      6  C   UNL     1       1.430   8.070  19.958  0.00  0.00    +0.000 A 
ATOM      7 CL   UNL     1       0.447   9.337  20.689  0.00  0.00    +0.000 Cl
ATOM      8  C   UNL     1       2.046   8.225  18.700  0.00  0.00    +0.000 A 
ATOM      9  C   UNL     1       1.923   9.487  17.885  0.00  0.00    +0.000 C 
ATOM     10  C   UNL     1       2.828   7.180  18.190  0.00  0.00    +0.000 A 
ATOM     11  C   UNL     1       3.017   5.989  18.908  0.00  0.00    +0.000 A 
BRANCH   4  12
ATOM     12  S   UNL     1       2.613   4.356  21.179  0.00  0.00    +0.000 S 
BRANCH  12  13
ATOM     13  C   UNL     1       1.004   3.555  20.829  0.00  0.00    +0.000 C 
BRANCH  13  15
ATOM     14  C   UNL     1       0.861   2.659  18.461  0.00  0.00    +0.000 C 
ATOM     15  C   UNL     1       1.248   2.358  19.906  0.00  0.00    +0.000 C 
ENDBRANCH  13  15
ENDBRANCH  12  13
ENDBRANCH   4  12
ENDBRANCH   1  11
BRANCH   1  16
ATOM     16  N   UNL     1       5.635   5.466  17.532  0.00  0.00    +0.000 N 
ATOM     17  C   UNL     1       6.539   6.108  18.288  0.00  0.00    +0.000 A 
ATOM     18  C   UNL     1       7.575   6.503  17.472  0.00  0.00    +0.000 A 
ATOM     19  N   UNL     1       7.326   6.100  16.210  0.00  0.00    +0.000 NA
ATOM     20  C   UNL     1       6.133   5.471  16.275  0.00  0.00    +0.000 A 
BRANCH  20  21
ATOM     21  O   UNL     1       5.530   4.910  15.193  0.00  0.00    +0.000 OA
BRANCH  21  22
ATOM     22  C   UNL     1       6.184   3.953  14.431  0.00  0.00    +0.000 C 
BRANCH  22  23
ATOM     23  C   UNL     1       6.854   4.568  13.200  0.00  0.00    +0.000 C 
BRANCH  23  24
ATOM     24  C   UNL     1       6.766   3.587  12.005  0.00  0.00    +0.000 C 
BRANCH  24  25
ATOM     25  N   UNL     1       5.577   2.704  12.055  0.00  0.00    +0.000 NA
ATOM     26  C   UNL     1       4.399   3.329  11.429  0.00  0.00    +0.000 C 
ATOM     27  C   UNL     1       5.876   1.439  11.358  0.00  0.00    +0.000 C 
ENDBRANCH  24  25
ENDBRANCH  23  24
ENDBRANCH  22  23
ENDBRANCH  21  22
ENDBRANCH  20  21
ENDBRANCH   1  16
TORSDOF 10
ENDMDL
MODEL 2
REMARK VINA RESULT:      -6.9      3.126      5.564
REMARK  Name = 
REMARK  14 active torsions:
REMARK  status: ('A' for Active; 'I' for Inactive)
REMARK    1  A    between atoms: C_1  and  C_2
REMARK    2  A    between atoms: C_2  and  C_3
REMARK    3  A    between atoms: C_3  and  S_4
REMARK    4  A    between atoms: S_4  and  C_5
REMARK    5  A    between atoms: C_9  and  C_10
REMARK    6  A    between atoms: C_12  and  S_13
REMARK    7  A    between atoms: S_13  and  N_16
REMARK    8  A    between atoms: C_20  and  O_21
REMARK    9  A    between atoms: O_21  and  C_22
REMARK   10  A    between atoms: C_22  and  C_23
REMARK   11  A    between atoms: C_23  and  C_24
REMARK   12  A    between atoms: C_24  and  N_25
REMARK   13  A    between atoms: N_25  and  C_26
REMARK   14  A    between atoms: N_25  and  C_27
REMARK                            x       y       z     vdW  Elec       q    Type
REMARK                         _______ _______ _______ _____ _____    ______ ____
ROOT
ATOM      1  S   UNL     1       4.614   6.098  16.939  0.00  0.00    +0.000 S 
ATOM      2  O   UNL     1       4.248   4.671  16.501  0.00  0.00    +0.000 OA
ATOM      3  O   UNL     1       4.878   6.821  15.612  0.00  0.00    +0.000 OA
ENDROOT
BRANCH   1  11
ATOM      4  C   UNL     1       2.895   6.292  19.212  0.00  0.00    +0.000 A 
ATOM      5  C   UNL     1       2.002   7.017  20.017  0.00  0.00    +0.000 A 
ATOM      6  C   UNL     1       1.571   8.295  19.652  0.00  0.00    +0.000 A 
ATOM      7 CL   UNL     1       0.465   9.133  20.739  0.00  0.00    +0.000 Cl
ATOM      8  C   UNL     1       2.037   8.876  18.455  0.00  0.00    +0.000 A 
ATOM      9  C   UNL     1       1.635  10.260  18.013  0.00  0.00    +0.000 C 
ATOM     10  C   UNL     1       2.929   8.156  17.650  0.00  0.00    +0.000 A 
ATOM     11  C   UNL     1       3.375   6.876  18.015  0.00  0.00    +0.000 A 
BRANCH   4  12
ATOM     12  S   UNL     1       3.453   4.672  19.782  0.00  0.00    +0.000 S 
BRANCH  12  13
ATOM     13  C   UNL     1       2.057   3.679  19.136  0.00  0.00    +0.000 C 
BRANCH  13  15
ATOM     14  C   UNL     1       1.480   2.755  21.426  0.00  0.00    +0.000 C 
ATOM     15  C   UNL     1       0.992   3.569  20.230  0.00  0.00    +0.000 C 
ENDBRANCH  13  15
ENDBRANCH  12  13
ENDBRANCH   4  12
ENDBRANCH   1  11
BRANCH   1  16
ATOM     16  N   UNL     1       6.196   5.886  17.720  0.00  0.00    +0.000 N 
ATOM     17  C   UNL     1       6.689   4.690  18.075  0.00  0.00    +0.000 A 
ATOM     18  C   UNL     1       7.934   4.888  18.628  0.00  0.00    +0.000 A 
ATOM     19  N   UNL     1       8.224   6.203  18.611  0.00  0.00    +0.000 NA
ATOM     20  C   UNL     1       7.143   6.790  18.053  0.00  0.00    +0.000 A 
BRANCH  20  21
ATOM     21  O   UNL     1       7.049   8.133  17.853  0.00  0.00    +0.000 OA
BRANCH  21  22
ATOM     22  C   UNL     1       8.175   8.889  17.566  0.00  0.00    +0.000 C 
BRANCH  22  23
ATOM     23  C   UNL     1       8.809   9.468  18.833  0.00  0.00    +0.000 C 
BRANCH  23  24
ATOM     24  C   UNL     1       9.504  10.813  18.510  0.00  0.00    +0.000 C 
BRANCH  24  25
ATOM     25  N   UNL     1      10.232  11.392  19.663  0.00  0.00    +0.000 NA
ATOM     26  C   UNL     1      10.734  12.747  19.376  0.00  0.00    +0.000 C 
ATOM     27  C   UNL     1       9.332  11.452  20.831  0.00  0.00    +0.000 C 
ENDBRANCH  24  25
ENDBRANCH  23  24
ENDBRANCH  22  23
ENDBRANCH  21  22
ENDBRANCH  20  21
ENDBRANCH   1  16
TORSDOF 10
ENDMDL
MODEL 3
REMARK VINA RESULT:      -6.9      1.178      1.553
REMARK  Name = 
REMARK  14 active torsions:
REMARK  status: ('A' for Active; 'I' for Inactive)
REMARK    1  A    between atoms: C_1  and  C_2
REMARK    2  A    between atoms: C_2  and  C_3
REMARK    3  A    between atoms: C_3  and  S_4
REMARK    4  A    between atoms: S_4  and  C_5
REMARK    5  A    between atoms: C_9  and  C_10
REMARK    6  A    between atoms: C_12  and  S_13
REMARK    7  A    between atoms: S_13  and  N_16
REMARK    8  A    between atoms: C_20  and  O_21
REMARK    9  A    between atoms: O_21  and  C_22
REMARK   10  A    between atoms: C_22  and  C_23
REMARK   11  A    between atoms: C_23  and  C_24
REMARK   12  A    between atoms: C_24  and  N_25
REMARK   13  A    between atoms: N_25  and  C_26
REMARK   14  A    between atoms: N_25  and  C_27
REMARK                            x       y       z     vdW  Elec       q    Type
REMARK                         _______ _______ _______ _____ _____    ______ ____
ROOT
ATOM      1  S   UNL     1       4.410   5.899  17.006  0.00  0.00    +0.000 S 
ATOM      2  O   UNL     1       3.920   4.557  16.438  0.00  0.00    +0.000 OA
ATOM      3  O   UNL     1       4.720   6.725  15.751  0.00  0.00    +0.000 OA
ENDROOT
BRANCH   1  11
ATOM      4  C   UNL     1       2.787   6.031  19.352  0.00  0.00    +0.000 A 
ATOM      5  C   UNL     1       1.963   6.746  20.236  0.00  0.00    +0.000 A 
ATOM      6  C   UNL     1       1.589   8.066  19.971  0.00  0.00    +0.000 A 
ATOM      7 CL   UNL     1       0.570   8.887  21.151  0.00  0.00    +0.000 Cl
ATOM      8  C   UNL     1       2.043   8.700  18.796  0.00  0.00    +0.000 A 
ATOM      9  C   UNL     1       1.700  10.129  18.460  0.00  0.00    +0.000 C 
ATOM     10  C   UNL     1       2.865   7.989  17.912  0.00  0.00    +0.000 A 
ATOM     11  C   UNL     1       3.254   6.667  18.177  0.00  0.00    +0.000 A 
BRANCH   4  12
ATOM     12  S   UNL     1       3.276   4.350  19.796  0.00  0.00    +0.000 S 
BRANCH  12  13
ATOM     13  C   UNL     1       1.766   3.486  19.226  0.00  0.00    +0.000 C 
BRANCH  13  15
ATOM     14  C   UNL     1       1.930   2.993  21.709  0.00  0.00    +0.000 C 
ATOM     15  C   UNL     1       1.139   2.765  20.423  0.00  0.00    +0.000 C 
ENDBRANCH  13  15
ENDBRANCH  12  13
ENDBRANCH   4  12
ENDBRANCH   1  11
BRANCH   1  16
ATOM     16  N   UNL     1       5.977   5.480  17.731  0.00  0.00    +0.000 N 
ATOM     17  C   UNL     1       6.202   5.480  19.054  0.00  0.00    +0.000 A 
ATOM     18  C   UNL     1       7.505   5.089  19.266  0.00  0.00    +0.000 A 
ATOM     19  N   UNL     1       8.092   4.834  18.080  0.00  0.00    +0.000 NA
ATOM     20  C   UNL     1       7.136   5.084  17.159  0.00  0.00    +0.000 A 
BRANCH  20  21
ATOM     21  O   UNL     1       7.339   4.938  15.822  0.00  0.00    +0.000 OA
BRANCH  21  22
ATOM     22  C   UNL     1       6.746   3.896  15.123  0.00  0.00    +0.000 C 
BRANCH  22  23
ATOM     23  C   UNL     1       6.073   4.384  13.838  0.00  0.00    +0.000 C 
BRANCH  23  24
ATOM     24  C   UNL     1       6.528   3.517  12.640  0.00  0.00    +0.000 C 
BRANCH  24  25
ATOM     25  N   UNL     1       5.487   2.577  12.164  0.00  0.00    +0.000 NA
ATOM     26  C   UNL     1       4.407   3.270  11.440  0.00  0.00    +0.000 C 
ATOM     27  C   UNL     1       6.100   1.578  11.268  0.00  0.00    +0.000 C 
ENDBRANCH  24  25
ENDBRANCH  23  24
ENDBRANCH  22  23
ENDBRANCH  21  22
ENDBRANCH  20  21
ENDBRANCH   1  16
TORSDOF 10
ENDMDL
MODEL 4
REMARK VINA RESULT:      -6.8      3.168      5.459
REMARK  Name = 
REMARK  14 active torsions:
REMARK  status: ('A' for Active; 'I' for Inactive)
REMARK    1  A    between atoms: C_1  and  C_2
REMARK    2  A    between atoms: C_2  and  C_3
REMARK    3  A    between atoms: C_3  and  S_4
REMARK    4  A    between atoms: S_4  and  C_5
REMARK    5  A    between atoms: C_9  and  C_10
REMARK    6  A    between atoms: C_12  and  S_13
REMARK    7  A    between atoms: S_13  and  N_16
REMARK    8  A    between atoms: C_20  and  O_21
REMARK    9  A    between atoms: O_21  and  C_22
REMARK   10  A    between atoms: C_22  and  C_23
REMARK   11  A    between atoms: C_23  and  C_24
REMARK   12  A    between atoms: C_24  and  N_25
REMARK   13  A    between atoms: N_25  and  C_26
REMARK   14  A    between atoms: N_25  and  C_27
REMARK                            x       y       z     vdW  Elec       q    Type
REMARK                         _______ _______ _______ _____ _____    ______ ____
ROOT
ATOM      1  S   UNL     1       4.678   6.188  16.933  0.00  0.00    +0.000 S 
ATOM      2  O   UNL     1       4.342   4.749  16.509  0.00  0.00    +0.000 OA
ATOM      3  O   UNL     1       4.954   6.896  15.600  0.00  0.00    +0.000 OA
ENDROOT
BRANCH   1  11
ATOM      4  C   UNL     1       2.868   6.357  19.136  0.00  0.00    +0.000 A 
ATOM      5  C   UNL     1       1.955   7.077  19.922  0.00  0.00    +0.000 A 
ATOM      6  C   UNL     1       1.565   8.373  19.574  0.00  0.00    +0.000 A 
ATOM      7 CL   UNL     1       0.430   9.204  20.636  0.00  0.00    +0.000 Cl
ATOM      8  C   UNL     1       2.092   8.976  18.415  0.00  0.00    +0.000 A 
ATOM      9  C   UNL     1       1.736  10.379  17.994  0.00  0.00    +0.000 C 
ATOM     10  C   UNL     1       3.004   8.259  17.628  0.00  0.00    +0.000 A 
ATOM     11  C   UNL     1       3.410   6.962  17.976  0.00  0.00    +0.000 A 
BRANCH   4  12
ATOM     12  S   UNL     1       3.370   4.710  19.685  0.00  0.00    +0.000 S 
BRANCH  12  13
ATOM     13  C   UNL     1       2.176   4.525  21.061  0.00  0.00    +0.000 C 
BRANCH  13  15
ATOM     14  C   UNL     1       1.191   3.122  19.191  0.00  0.00    +0.000 C 
ATOM     15  C   UNL     1       1.168   3.435  20.685  0.00  0.00    +0.000 C 
ENDBRANCH  13  15
ENDBRANCH  12  13
ENDBRANCH   4  12
ENDBRANCH   1  11
BRANCH   1  16
ATOM     16  N   UNL     1       6.250   6.012  17.744  0.00  0.00    +0.000 N 
ATOM     17  C   UNL     1       6.730   4.835  18.174  0.00  0.00    +0.000 A 
ATOM     18  C   UNL     1       7.970   5.056  18.729  0.00  0.00    +0.000 A 
ATOM     19  N   UNL     1       8.271   6.367  18.637  0.00  0.00    +0.000 NA
ATOM     20  C   UNL     1       7.201   6.927  18.033  0.00  0.00    +0.000 A 
BRANCH  20  21
ATOM     21  O   UNL     1       7.118   8.256  17.753  0.00  0.00    +0.000 OA
BRANCH  21  22
ATOM     22  C   UNL     1       8.261   9.003  17.509  0.00  0.00    +0.000 C 
BRANCH  22  23
ATOM     23  C   UNL     1       8.715   9.771  18.753  0.00  0.00    +0.000 C 
BRANCH  23  24
ATOM     24  C   UNL     1       9.704  10.891  18.351  0.00  0.00    +0.000 C 
BRANCH  24  25
ATOM     25  N   UNL     1       9.136  12.253  18.482  0.00  0.00    +0.000 NA
ATOM     26  C   UNL     1       9.198  12.748  19.868  0.00  0.00    +0.000 C 
ATOM     27  C   UNL     1       9.879  13.181  17.608  0.00  0.00    +0.000 C 
ENDBRANCH  24  25
ENDBRANCH  23  24
ENDBRANCH  22  23
ENDBRANCH  21  22
ENDBRANCH  20  21
ENDBRANCH   1  16
TORSDOF 10
ENDMDL
MODEL 5
REMARK VINA RESULT:      -6.8      3.393      7.616
REMARK  Name = 
REMARK  14 active torsions:
REMARK  status: ('A' for Active; 'I' for Inactive)
REMARK    1  A    between atoms: C_1  and  C_2
REMARK    2  A    between atoms: C_2  and  C_3
REMARK    3  A    between atoms: C_3  and  S_4
REMARK    4  A    between atoms: S_4  and  C_5
REMARK    5  A    between atoms: C_9  and  C_10
REMARK    6  A    between atoms: C_12  and  S_13
REMARK    7  A    between atoms: S_13  and  N_16
REMARK    8  A    between atoms: C_20  and  O_21
REMARK    9  A    between atoms: O_21  and  C_22
REMARK   10  A    between atoms: C_22  and  C_23
REMARK   11  A    between atoms: C_23  and  C_24
REMARK   12  A    between atoms: C_24  and  N_25
REMARK   13  A    between atoms: N_25  and  C_26
REMARK   14  A    between atoms: N_25  and  C_27
REMARK                            x       y       z     vdW  Elec       q    Type
REMARK                         _______ _______ _______ _____ _____    ______ ____
ROOT
ATOM      1  S   UNL     1       4.914   4.437  18.596  0.00  0.00    +0.000 S 
ATOM      2  O   UNL     1       5.594   3.335  19.424  0.00  0.00    +0.000 OA
ATOM      3  O   UNL     1       4.835   5.618  19.573  0.00  0.00    +0.000 OA
ENDROOT
BRANCH   1  11
ATOM      4  C   UNL     1       6.909   5.580  16.902  0.00  0.00    +0.000 A 
ATOM      5  C   UNL     1       7.521   5.717  15.646  0.00  0.00    +0.000 A 
ATOM      6  C   UNL     1       6.991   5.096  14.511  0.00  0.00    +0.000 A 
ATOM      7 CL   UNL     1       7.843   5.311  12.983  0.00  0.00    +0.000 Cl
ATOM      8  C   UNL     1       5.823   4.317  14.620  0.00  0.00    +0.000 A 
ATOM      9  C   UNL     1       5.212   3.598  13.443  0.00  0.00    +0.000 C 
ATOM     10  C   UNL     1       5.211   4.177  15.872  0.00  0.00    +0.000 A 
ATOM     11  C   UNL     1       5.741   4.788  17.019  0.00  0.00    +0.000 A 
BRANCH   4  12
ATOM     12  S   UNL     1       7.687   6.362  18.332  0.00  0.00    +0.000 S 
BRANCH  12  13
ATOM     13  C   UNL     1       7.801   8.062  17.663  0.00  0.00    +0.000 C 
BRANCH  13  15
ATOM     14  C   UNL     1       8.802  10.344  18.136  0.00  0.00    +0.000 C 
ATOM     15  C   UNL     1       8.659   8.902  18.614  0.00  0.00    +0.000 C 
ENDBRANCH  13  15
ENDBRANCH  12  13
ENDBRANCH   4  12
ENDBRANCH   1  11
BRANCH   1  16
ATOM     16  N   UNL     1       3.255   3.831  18.405  0.00  0.00    +0.000 N 
ATOM     17  C   UNL     1       2.962   2.540  18.182  0.00  0.00    +0.000 A 
ATOM     18  C   UNL     1       1.593   2.419  18.108  0.00  0.00    +0.000 A 
ATOM     19  N   UNL     1       1.028   3.629  18.296  0.00  0.00    +0.000 NA
ATOM     20  C   UNL     1       2.067   4.473  18.473  0.00  0.00    +0.000 A 
BRANCH  20  21
ATOM     21  O   UNL     1       1.910   5.805  18.699  0.00  0.00    +0.000 OA
BRANCH  21  22
ATOM     22  C   UNL     1       2.158   6.730  17.695  0.00  0.00    +0.000 C 
BRANCH  22  23
ATOM     23  C   UNL     1       2.574   8.089  18.264  0.00  0.00    +0.000 C 
BRANCH  23  24
ATOM     24  C   UNL     1       1.564   9.177  17.824  0.00  0.00    +0.000 C 
BRANCH  24  25
ATOM     25  N   UNL     1       1.123  10.054  18.934  0.00  0.00    +0.000 NA
ATOM     26  C   UNL     1      -0.139  10.747  18.623  0.00  0.00    +0.000 C 
ATOM     27  C   UNL     1       0.938   9.246  20.154  0.00  0.00    +0.000 C 
ENDBRANCH  24  25
ENDBRANCH  23  24
ENDBRANCH  22  23
ENDBRANCH  21  22
ENDBRANCH  20  21
ENDBRANCH   1  16
TORSDOF 10
ENDMDL
MODEL 6
REMARK VINA RESULT:      -6.6      2.353      4.908
REMARK  Name = 
REMARK  14 active torsions:
REMARK  status: ('A' for Active; 'I' for Inactive)
REMARK    1  A    between atoms: C_1  and  C_2
REMARK    2  A    between atoms: C_2  and  C_3
REMARK    3  A    between atoms: C_3  and  S_4
REMARK    4  A    between atoms: S_4  and  C_5
REMARK    5  A    between atoms: C_9  and  C_10
REMARK    6  A    between atoms: C_12  and  S_13
REMARK    7  A    between atoms: S_13  and  N_16
REMARK    8  A    between atoms: C_20  and  O_21
REMARK    9  A    between atoms: O_21  and  C_22
REMARK   10  A    between atoms: C_22  and  C_23
REMARK   11  A    between atoms: C_23  and  C_24
REMARK   12  A    between atoms: C_24  and  N_25
REMARK   13  A    between atoms: N_25  and  C_26
REMARK   14  A    between atoms: N_25  and  C_27
REMARK                            x       y       z     vdW  Elec       q    Type
REMARK                         _______ _______ _______ _____ _____    ______ ____
ROOT
ATOM      1  S   UNL     1       4.826   4.197  18.233  0.00  0.00    +0.000 S 
ATOM      2  O   UNL     1       5.869   3.794  19.289  0.00  0.00    +0.000 OA
ATOM      3  O   UNL     1       4.217   2.856  17.804  0.00  0.00    +0.000 OA
ENDROOT
BRANCH   1  11
ATOM      4  C   UNL     1       2.918   5.334  20.028  0.00  0.00    +0.000 A 
ATOM      5  C   UNL     1       2.088   6.393  20.427  0.00  0.00    +0.000 A 
ATOM      6  C   UNL     1       1.951   7.542  19.642  0.00  0.00    +0.000 A 
ATOM      7 CL   UNL     1       0.901   8.826  20.238  0.00  0.00    +0.000 Cl
ATOM      8  C   UNL     1       2.655   7.647  18.426  0.00  0.00    +0.000 A 
ATOM      9  C   UNL     1       2.576   8.867  17.543  0.00  0.00    +0.000 C 
ATOM     10  C   UNL     1       3.486   6.592  18.026  0.00  0.00    +0.000 A 
ATOM     11  C   UNL     1       3.637   5.440  18.813  0.00  0.00    +0.000 A 
BRANCH   4  12
ATOM     12  S   UNL     1       3.090   3.911  21.126  0.00  0.00    +0.000 S 
BRANCH  12  13
ATOM     13  C   UNL     1       2.139   2.703  20.131  0.00  0.00    +0.000 C 
BRANCH  13  15
ATOM     14  C   UNL     1       0.630   3.352  18.199  0.00  0.00    +0.000 C 
ATOM     15  C   UNL     1       0.817   3.353  19.714  0.00  0.00    +0.000 C 
ENDBRANCH  13  15
ENDBRANCH  12  13
ENDBRANCH   4  12
ENDBRANCH   1  11
BRANCH   1  16
ATOM     16  N   UNL     1       5.825   4.754  16.874  0.00  0.00    +0.000 N 
ATOM     17  C   UNL     1       5.777   4.206  15.649  0.00  0.00    +0.000 A 
ATOM     18  C   UNL     1       6.657   4.888  14.841  0.00  0.00    +0.000 A 
ATOM     19  N   UNL     1       7.248   5.869  15.553  0.00  0.00    +0.000 NA
ATOM     20  C   UNL     1       6.723   5.761  16.792  0.00  0.00    +0.000 A 
BRANCH  20  21
ATOM     21  O   UNL     1       7.066   6.588  17.817  0.00  0.00    +0.000 OA
BRANCH  21  22
ATOM     22  C   UNL     1       7.153   7.958  17.626  0.00  0.00    +0.000 C 
BRANCH  22  23
ATOM     23  C   UNL     1       8.334   8.565  18.387  0.00  0.00    +0.000 C 
BRANCH  23  24
ATOM     24  C   UNL     1       8.747   9.909  17.739  0.00  0.00    +0.000 C 
BRANCH  24  25
ATOM     25  N   UNL     1       8.891  11.014  18.716  0.00  0.00    +0.000 NA
ATOM     26  C   UNL     1      10.149  10.917  19.478  0.00  0.00    +0.000 C 
ATOM     27  C   UNL     1       8.861  12.305  18.003  0.00  0.00    +0.000 C 
ENDBRANCH  24  25
ENDBRANCH  23  24
ENDBRANCH  22  23
ENDBRANCH  21  22
ENDBRANCH  20  21
ENDBRANCH   1  16
TORSDOF 10
ENDMDL
MODEL 7
REMARK VINA RESULT:      -6.5      3.513      8.296
REMARK  Name = 
REMARK  14 active torsions:
REMARK  status: ('A' for Active; 'I' for Inactive)
REMARK    1  A    between atoms: C_1  and  C_2
REMARK    2  A    between atoms: C_2  and  C_3
REMARK    3  A    between atoms: C_3  and  S_4
REMARK    4  A    between atoms: S_4  and  C_5
REMARK    5  A    between atoms: C_9  and  C_10
REMARK    6  A    between atoms: C_12  and  S_13
REMARK    7  A    between atoms: S_13  and  N_16
REMARK    8  A    between atoms: C_20  and  O_21
REMARK    9  A    between atoms: O_21  and  C_22
REMARK   10  A    between atoms: C_22  and  C_23
REMARK   11  A    between atoms: C_23  and  C_24
REMARK   12  A    between atoms: C_24  and  N_25
REMARK   13  A    between atoms: N_25  and  C_26
REMARK   14  A    between atoms: N_25  and  C_27
REMARK                            x       y       z     vdW  Elec       q    Type
REMARK                         _______ _______ _______ _____ _____    ______ ____
ROOT
ATOM      1  S   UNL     1       4.995   4.444  18.706  0.00  0.00    +0.000 S 
ATOM      2  O   UNL     1       5.509   3.167  19.390  0.00  0.00    +0.000 OA
ATOM      3  O   UNL     1       5.198   5.526  19.775  0.00  0.00    +0.000 OA
ENDROOT
BRANCH   1  11
ATOM      4  C   UNL     1       6.948   5.554  16.943  0.00  0.00    +0.000 A 
ATOM      5  C   UNL     1       7.518   5.682  15.666  0.00  0.00    +0.000 A 
ATOM      6  C   UNL     1       6.939   5.071  14.550  0.00  0.00    +0.000 A 
ATOM      7 CL   UNL     1       7.740   5.273  12.993  0.00  0.00    +0.000 Cl
ATOM      8  C   UNL     1       5.762   4.311  14.700  0.00  0.00    +0.000 A 
ATOM      9  C   UNL     1       5.099   3.603  13.546  0.00  0.00    +0.000 C 
ATOM     10  C   UNL     1       5.192   4.181  15.973  0.00  0.00    +0.000 A 
ATOM     11  C   UNL     1       5.773   4.782  17.100  0.00  0.00    +0.000 A 
BRANCH   4  12
ATOM     12  S   UNL     1       7.789   6.322  18.345  0.00  0.00    +0.000 S 
BRANCH  12  13
ATOM     13  C   UNL     1       7.839   8.037  17.705  0.00  0.00    +0.000 C 
BRANCH  13  15
ATOM     14  C   UNL     1       8.945  10.283  18.111  0.00  0.00    +0.000 C 
ATOM     15  C   UNL     1       8.660   8.893  18.674  0.00  0.00    +0.000 C 
ENDBRANCH  13  15
ENDBRANCH  12  13
ENDBRANCH   4  12
ENDBRANCH   1  11
BRANCH   1  16
ATOM     16  N   UNL     1       3.243   4.166  18.599  0.00  0.00    +0.000 N 
ATOM     17  C   UNL     1       2.703   2.986  18.258  0.00  0.00    +0.000 A 
ATOM     18  C   UNL     1       1.333   3.116  18.296  0.00  0.00    +0.000 A 
ATOM     19  N   UNL     1       1.016   4.371  18.671  0.00  0.00    +0.000 NA
ATOM     20  C   UNL     1       2.202   4.991  18.847  0.00  0.00    +0.000 A 
BRANCH  20  21
ATOM     21  O   UNL     1       2.309   6.290  19.238  0.00  0.00    +0.000 OA
BRANCH  21  22
ATOM     22  C   UNL     1       1.788   6.713  20.451  0.00  0.00    +0.000 C 
BRANCH  22  23
ATOM     23  C   UNL     1       1.533   8.222  20.466  0.00  0.00    +0.000 C 
BRANCH  23  24
ATOM     24  C   UNL     1       1.124   8.675  21.889  0.00  0.00    +0.000 C 
BRANCH  24  25
ATOM     25  N   UNL     1       0.845  10.127  21.987  0.00  0.00    +0.000 NA
ATOM     26  C   UNL     1       0.748  10.761  20.661  0.00  0.00    +0.000 C 
ATOM     27  C   UNL     1      -0.423  10.334  22.712  0.00  0.00    +0.000 C 
ENDBRANCH  24  25
ENDBRANCH  23  24
ENDBRANCH  22  23
ENDBRANCH  21  22
ENDBRANCH  20  21
ENDBRANCH   1  16
TORSDOF 10
ENDMDL
MODEL 8
REMARK VINA RESULT:      -6.5      3.013      5.407
REMARK  Name = 
REMARK  14 active torsions:
REMARK  status: ('A' for Active; 'I' for Inactive)
REMARK    1  A    between atoms: C_1  and  C_2
REMARK    2  A    between atoms: C_2  and  C_3
REMARK    3  A    between atoms: C_3  and  S_4
REMARK    4  A    between atoms: S_4  and  C_5
REMARK    5  A    between atoms: C_9  and  C_10
REMARK    6  A    between atoms: C_12  and  S_13
REMARK    7  A    between atoms: S_13  and  N_16
REMARK    8  A    between atoms: C_20  and  O_21
REMARK    9  A    between atoms: O_21  and  C_22
REMARK   10  A    between atoms: C_22  and  C_23
REMARK   11  A    between atoms: C_23  and  C_24
REMARK   12  A    between atoms: C_24  and  N_25
REMARK   13  A    between atoms: N_25  and  C_26
REMARK   14  A    between atoms: N_25  and  C_27
REMARK                            x       y       z     vdW  Elec       q    Type
REMARK                         _______ _______ _______ _____ _____    ______ ____
ROOT
ATOM      1  S   UNL     1       4.731   6.178  16.660  0.00  0.00    +0.000 S 
ATOM      2  O   UNL     1       4.281   4.842  16.047  0.00  0.00    +0.000 OA
ATOM      3  O   UNL     1       5.049   7.043  15.433  0.00  0.00    +0.000 OA
ENDROOT
BRANCH   1  11
ATOM      4  C   UNL     1       3.155   6.271  19.040  0.00  0.00    +0.000 A 
ATOM      5  C   UNL     1       2.290   6.948  19.913  0.00  0.00    +0.000 A 
ATOM      6  C   UNL     1       1.791   8.215  19.600  0.00  0.00    +0.000 A 
ATOM      7 CL   UNL     1       0.727   8.993  20.770  0.00  0.00    +0.000 Cl
ATOM      8  C   UNL     1       2.158   8.832  18.387  0.00  0.00    +0.000 A 
ATOM      9  C   UNL     1       1.679  10.208  17.998  0.00  0.00    +0.000 C 
ATOM     10  C   UNL     1       3.022   8.159  17.514  0.00  0.00    +0.000 A 
ATOM     11  C   UNL     1       3.537   6.891  17.826  0.00  0.00    +0.000 A 
BRANCH   4  12
ATOM     12  S   UNL     1       3.807   4.663  19.543  0.00  0.00    +0.000 S 
BRANCH  12  13
ATOM     13  C   UNL     1       2.212   3.855  19.942  0.00  0.00    +0.000 C 
BRANCH  13  15
ATOM     14  C   UNL     1       1.334   2.416  21.837  0.00  0.00    +0.000 C 
ATOM     15  C   UNL     1       2.132   3.661  21.459  0.00  0.00    +0.000 C 
ENDBRANCH  13  15
ENDBRANCH  12  13
ENDBRANCH   4  12
ENDBRANCH   1  11
BRANCH   1  16
ATOM     16  N   UNL     1       6.292   5.772  17.406  0.00  0.00    +0.000 N 
ATOM     17  C   UNL     1       6.660   4.518  17.711  0.00  0.00    +0.000 A 
ATOM     18  C   UNL     1       7.926   4.563  18.250  0.00  0.00    +0.000 A 
ATOM     19  N   UNL     1       8.355   5.841  18.272  0.00  0.00    +0.000 NA
ATOM     20  C   UNL     1       7.335   6.558  17.753  0.00  0.00    +0.000 A 
BRANCH  20  21
ATOM     21  O   UNL     1       7.381   7.909  17.599  0.00  0.00    +0.000 OA
BRANCH  21  22
ATOM     22  C   UNL     1       8.246   8.681  18.361  0.00  0.00    +0.000 C 
BRANCH  22  23
ATOM     23  C   UNL     1       8.367  10.106  17.814  0.00  0.00    +0.000 C 
BRANCH  23  24
ATOM     24  C   UNL     1       9.490  10.865  18.562  0.00  0.00    +0.000 C 
BRANCH  24  25
ATOM     25  N   UNL     1      10.195  11.856  17.716  0.00  0.00    +0.000 NA
ATOM     26  C   UNL     1       9.637  13.211  17.869  0.00  0.00    +0.000 C 
ATOM     27  C   UNL     1      11.625  11.883  18.080  0.00  0.00    +0.000 C 
ENDBRANCH  24  25
ENDBRANCH  23  24
ENDBRANCH  22  23
ENDBRANCH  21  22
ENDBRANCH  20  21
ENDBRANCH   1  16
TORSDOF 10
ENDMDL
MODEL 9
REMARK VINA RESULT:      -6.4      2.210      4.654
REMARK  Name = 
REMARK  14 active torsions:
REMARK  status: ('A' for Active; 'I' for Inactive)
REMARK    1  A    between atoms: C_1  and  C_2
REMARK    2  A    between atoms: C_2  and  C_3
REMARK    3  A    between atoms: C_3  and  S_4
REMARK    4  A    between atoms: S_4  and  C_5
REMARK    5  A    between atoms: C_9  and  C_10
REMARK    6  A    between atoms: C_12  and  S_13
REMARK    7  A    between atoms: S_13  and  N_16
REMARK    8  A    between atoms: C_20  and  O_21
REMARK    9  A    between atoms: O_21  and  C_22
REMARK   10  A    between atoms: C_22  and  C_23
REMARK   11  A    between atoms: C_23  and  C_24
REMARK   12  A    between atoms: C_24  and  N_25
REMARK   13  A    between atoms: N_25  and  C_26
REMARK   14  A    between atoms: N_25  and  C_27
REMARK                            x       y       z     vdW  Elec       q    Type
REMARK                         _______ _______ _______ _____ _____    ______ ____
ROOT
ATOM      1  S   UNL     1       4.809   4.598  18.717  0.00  0.00    +0.000 S 
ATOM      2  O   UNL     1       5.876   4.444  19.813  0.00  0.00    +0.000 OA
ATOM      3  O   UNL     1       4.365   3.155  18.447  0.00  0.00    +0.000 OA
ENDROOT
BRANCH   1  11
ATOM      4  C   UNL     1       2.605   5.574  20.250  0.00  0.00    +0.000 A 
ATOM      5  C   UNL     1       1.663   6.571  20.548  0.00  0.00    +0.000 A 
ATOM      6  C   UNL     1       1.563   7.728  19.771  0.00  0.00    +0.000 A 
ATOM      7 CL   UNL     1       0.363   8.932  20.237  0.00  0.00    +0.000 Cl
ATOM      8  C   UNL     1       2.419   7.906  18.666  0.00  0.00    +0.000 A 
ATOM      9  C   UNL     1       2.385   9.141  17.802  0.00  0.00    +0.000 C 
ATOM     10  C   UNL     1       3.361   6.913  18.367  0.00  0.00    +0.000 A 
ATOM     11  C   UNL     1       3.475   5.753  19.148  0.00  0.00    +0.000 A 
BRANCH   4  12
ATOM     12  S   UNL     1       2.714   4.135  21.337  0.00  0.00    +0.000 S 
BRANCH  12  13
ATOM     13  C   UNL     1       1.087   3.393  20.943  0.00  0.00    +0.000 C 
BRANCH  13  15
ATOM     14  C   UNL     1       0.988   2.972  18.444  0.00  0.00    +0.000 C 
ATOM     15  C   UNL     1       1.279   2.373  19.817  0.00  0.00    +0.000 C 
ENDBRANCH  13  15
ENDBRANCH  12  13
ENDBRANCH   4  12
ENDBRANCH   1  11
BRANCH   1  16
ATOM     16  N   UNL     1       5.756   5.107  17.303  0.00  0.00    +0.000 N 
ATOM     17  C   UNL     1       5.291   5.051  16.045  0.00  0.00    +0.000 A 
ATOM     18  C   UNL     1       6.268   5.539  15.207  0.00  0.00    +0.000 A 
ATOM     19  N   UNL     1       7.338   5.910  15.938  0.00  0.00    +0.000 NA
ATOM     20  C   UNL     1       6.998   5.632  17.215  0.00  0.00    +0.000 A 
BRANCH  20  21
ATOM     21  O   UNL     1       7.823   5.871  18.271  0.00  0.00    +0.000 OA
BRANCH  21  22
ATOM     22  C   UNL     1       8.151   7.168  18.636  0.00  0.00    +0.000 C 
BRANCH  22  23
ATOM     23  C   UNL     1       7.850   8.168  17.517  0.00  0.00    +0.000 C 
BRANCH  23  24
ATOM     24  C   UNL     1       7.942   9.614  18.060  0.00  0.00    +0.000 C 
BRANCH  24  25
ATOM     25  N   UNL     1       9.292   9.973  18.554  0.00  0.00    +0.000 NA
ATOM     26  C   UNL     1       9.920  11.022  17.731  0.00  0.00    +0.000 C 
ATOM     27  C   UNL     1       9.194  10.450  19.946  0.00  0.00    +0.000 C 
ENDBRANCH  24  25
ENDBRANCH  23  24
ENDBRANCH  22  23
ENDBRANCH  21  22
ENDBRANCH  20  21
ENDBRANCH   1  16
TORSDOF 10
ENDMDL
