MODEL 1
REMARK VINA RESULT:      -8.6      0.000      0.000
REMARK  Name = 
REMARK  7 active torsions:
REMARK  status: ('A' for Active; 'I' for Inactive)
REMARK    1  A    between atoms: C_1  and  C_2
REMARK    2  A    between atoms: C_10  and  C_11
REMARK    3  A    between atoms: C_11  and  C_13
REMARK    4  A    between atoms: C_13  and  O_14
REMARK    5  A    between atoms: O_14  and  C_15
REMARK    6  A    between atoms: C_15  and  C_17
REMARK    7  A    between atoms: C_22  and  O_23
REMARK                            x       y       z     vdW  Elec       q    Type
REMARK                         _______ _______ _______ _____ _____    ______ ____
ROOT
ATOM      1  C   UNL     1       4.757   4.531  16.897  0.00  0.00    +0.000 C 
ATOM      2  O   UNL     1       4.154   3.454  16.865  0.00  0.00    +0.000 OA
ENDROOT
BRANCH   1  12
ATOM      3  C   UNL     1       7.334   6.339  17.443  0.00  0.00    +0.000 C 
ATOM      4  C   UNL     1       6.923   5.631  16.201  0.00  0.00    +0.000 A 
ATOM      5  N   UNL     1       7.712   5.658  15.081  0.00  0.00    +0.000 N 
ATOM      6  C   UNL     1       7.138   4.928  14.067  0.00  0.00    +0.000 A 
ATOM      7  C   UNL     1       7.602   4.697  12.766  0.00  0.00    +0.000 A 
ATOM      8  C   UNL     1       6.805   3.922  11.921  0.00  0.00    +0.000 A 
ATOM      9  C   UNL     1       5.592   3.406  12.361  0.00  0.00    +0.000 A 
ATOM     10  C   UNL     1       5.147   3.649  13.665  0.00  0.00    +0.000 A 
ATOM     11  C   UNL     1       5.937   4.415  14.553  0.00  0.00    +0.000 A 
ATOM     12  C   UNL     1       5.812   4.841  15.923  0.00  0.00    +0.000 A 
ATOM     13  H   UNL     1       8.596   6.141  15.004  0.00  0.00    +0.000 HD
ENDBRANCH   1  12
BRANCH   1  14
ATOM     14  C   UNL     1       4.420   5.583  17.954  0.00  0.00    +0.000 C 
BRANCH  14  15
ATOM     15  O   UNL     1       3.103   6.114  17.819  0.00  0.00    +0.000 OA
BRANCH  15  16
ATOM     16  C   UNL     1       2.459   6.274  19.000  0.00  0.00    +0.000 C 
ATOM     17  O   UNL     1       2.173   7.345  19.516  0.00  0.00    +0.000 OA
BRANCH  16  18
ATOM     18  C   UNL     1       2.039   4.971  19.562  0.00  0.00    +0.000 A 
ATOM     19  C   UNL     1       2.321   4.749  20.918  0.00  0.00    +0.000 A 
ATOM     20  C   UNL     1       1.949   3.552  21.531  0.00  0.00    +0.000 A 
ATOM     21  C   UNL     1       1.297   2.567  20.791  0.00  0.00    +0.000 A 
ATOM     22  C   UNL     1       1.028   2.771  19.436  0.00  0.00    +0.000 A 
ATOM     23  C   UNL     1       1.406   3.967  18.818  0.00  0.00    +0.000 A 
BRANCH  23  24
ATOM     24  O   UNL     1       1.184   4.119  17.478  0.00  0.00    +0.000 OA
ATOM     25  H   UNL     1       1.530   3.344  17.004  0.00  0.00    +0.000 HD
ENDBRANCH  23  24
ENDBRANCH  16  18
ENDBRANCH  15  16
ENDBRANCH  14  15
ENDBRANCH   1  14
TORSDOF 6
ENDMDL
MODEL 2
REMARK VINA RESULT:      -8.6      2.526      6.810
REMARK  Name = 
REMARK  7 active torsions:
REMARK  status: ('A' for Active; 'I' for Inactive)
REMARK    1  A    between atoms: C_1  and  C_2
REMARK    2  A    between atoms: C_10  and  C_11
REMARK    3  A    between atoms: C_11  and  C_13
REMARK    4  A    between atoms: C_13  and  O_14
REMARK    5  A    between atoms: O_14  and  C_15
REMARK    6  A    between atoms: C_15  and  C_17
REMARK    7  A    between atoms: C_22  and  O_23
REMARK                            x       y       z     vdW  Elec       q    Type
REMARK                         _______ _______ _______ _____ _____    ______ ____
ROOT
ATOM      1  C   UNL     1       6.063   4.928  18.849  0.00  0.00    +0.000 C 
ATOM      2  O   UNL     1       6.473   5.350  19.935  0.00  0.00    +0.000 OA
ENDROOT
BRANCH   1  12
ATOM      3  C   UNL     1       4.445   7.298  17.444  0.00  0.00    +0.000 C 
ATOM      4  C   UNL     1       3.961   5.972  17.911  0.00  0.00    +0.000 A 
ATOM      5  N   UNL     1       2.658   5.592  17.725  0.00  0.00    +0.000 N 
ATOM      6  C   UNL     1       2.445   4.330  18.225  0.00  0.00    +0.000 A 
ATOM      7  C   UNL     1       1.271   3.567  18.245  0.00  0.00    +0.000 A 
ATOM      8  C   UNL     1       1.327   2.304  18.836  0.00  0.00    +0.000 A 
ATOM      9  C   UNL     1       2.510   1.827  19.389  0.00  0.00    +0.000 A 
ATOM     10  C   UNL     1       3.673   2.605  19.358  0.00  0.00    +0.000 A 
ATOM     11  C   UNL     1       3.656   3.882  18.752  0.00  0.00    +0.000 A 
ATOM     12  C   UNL     1       4.630   4.919  18.529  0.00  0.00    +0.000 A 
ATOM     13  H   UNL     1       1.946   6.154  17.279  0.00  0.00    +0.000 HD
ENDBRANCH   1  12
BRANCH   1  14
ATOM     14  C   UNL     1       7.041   4.403  17.796  0.00  0.00    +0.000 C 
BRANCH  14  15
ATOM     15  O   UNL     1       6.468   4.313  16.493  0.00  0.00    +0.000 OA
BRANCH  15  16
ATOM     16  C   UNL     1       6.979   5.206  15.613  0.00  0.00    +0.000 C 
ATOM     17  O   UNL     1       7.557   6.243  15.904  0.00  0.00    +0.000 OA
BRANCH  16  18
ATOM     18  C   UNL     1       6.843   4.723  14.220  0.00  0.00    +0.000 A 
ATOM     19  C   UNL     1       5.806   3.813  13.967  0.00  0.00    +0.000 A 
ATOM     20  C   UNL     1       5.600   3.316  12.679  0.00  0.00    +0.000 A 
ATOM     21  C   UNL     1       6.432   3.723  11.638  0.00  0.00    +0.000 A 
ATOM     22  C   UNL     1       7.479   4.615  11.883  0.00  0.00    +0.000 A 
ATOM     23  C   UNL     1       7.691   5.108  13.175  0.00  0.00    +0.000 A 
BRANCH  23  24
ATOM     24  O   UNL     1       8.757   5.934  13.400  0.00  0.00    +0.000 OA
ATOM     25  H   UNL     1       8.435   6.812  13.664  0.00  0.00    +0.000 HD
ENDBRANCH  23  24
ENDBRANCH  16  18
ENDBRANCH  15  16
ENDBRANCH  14  15
ENDBRANCH   1  14
TORSDOF 6
ENDMDL
MODEL 3
REMARK VINA RESULT:      -8.5      1.575      2.173
REMARK  Name = 
REMARK  7 active torsions:
REMARK  status: ('A' for Active; 'I' for Inactive)
REMARK    1  A    between atoms: C_1  and  C_2
REMARK    2  A    between atoms: C_10  and  C_11
REMARK    3  A    between atoms: C_11  and  C_13
REMARK    4  A    between atoms: C_13  and  O_14
REMARK    5  A    between atoms: O_14  and  C_15
REMARK    6  A    between atoms: C_15  and  C_17
REMARK    7  A    between atoms: C_22  and  O_23
REMARK                            x       y       z     vdW  Elec       q    Type
REMARK                         _______ _______ _______ _____ _____    ______ ____
ROOT
ATOM      1  C   UNL     1       4.669   4.614  16.833  0.00  0.00    +0.000 C 
ATOM      2  O   UNL     1       3.776   5.439  17.042  0.00  0.00    +0.000 OA
ENDROOT
BRANCH   1  12
ATOM      3  C   UNL     1       7.261   6.381  17.437  0.00  0.00    +0.000 C 
ATOM      4  C   UNL     1       6.874   5.667  16.190  0.00  0.00    +0.000 A 
ATOM      5  N   UNL     1       7.696   5.668  15.094  0.00  0.00    +0.000 N 
ATOM      6  C   UNL     1       7.140   4.939  14.071  0.00  0.00    +0.000 A 
ATOM      7  C   UNL     1       7.636   4.685  12.787  0.00  0.00    +0.000 A 
ATOM      8  C   UNL     1       6.851   3.916  11.927  0.00  0.00    +0.000 A 
ATOM      9  C   UNL     1       5.616   3.426  12.336  0.00  0.00    +0.000 A 
ATOM     10  C   UNL     1       5.138   3.691  13.624  0.00  0.00    +0.000 A 
ATOM     11  C   UNL     1       5.915   4.452  14.526  0.00  0.00    +0.000 A 
ATOM     12  C   UNL     1       5.758   4.895  15.888  0.00  0.00    +0.000 A 
ATOM     13  H   UNL     1       8.591   6.135  15.038  0.00  0.00    +0.000 HD
ENDBRANCH   1  12
BRANCH   1  14
ATOM     14  C   UNL     1       4.673   3.267  17.558  0.00  0.00    +0.000 C 
BRANCH  14  15
ATOM     15  O   UNL     1       5.236   3.334  18.866  0.00  0.00    +0.000 OA
BRANCH  15  16
ATOM     16  C   UNL     1       4.539   2.635  19.794  0.00  0.00    +0.000 C 
ATOM     17  O   UNL     1       4.982   1.729  20.484  0.00  0.00    +0.000 OA
BRANCH  16  18
ATOM     18  C   UNL     1       3.169   3.175  19.953  0.00  0.00    +0.000 A 
ATOM     19  C   UNL     1       3.055   4.434  20.561  0.00  0.00    +0.000 A 
ATOM     20  C   UNL     1       1.801   5.021  20.739  0.00  0.00    +0.000 A 
ATOM     21  C   UNL     1       0.655   4.350  20.316  0.00  0.00    +0.000 A 
ATOM     22  C   UNL     1       0.757   3.088  19.727  0.00  0.00    +0.000 A 
ATOM     23  C   UNL     1       2.012   2.496  19.554  0.00  0.00    +0.000 A 
BRANCH  23  24
ATOM     24  O   UNL     1       2.081   1.235  19.028  0.00  0.00    +0.000 OA
ATOM     25  H   UNL     1       1.491   0.646  19.526  0.00  0.00    +0.000 HD
ENDBRANCH  23  24
ENDBRANCH  16  18
ENDBRANCH  15  16
ENDBRANCH  14  15
ENDBRANCH   1  14
TORSDOF 6
ENDMDL
MODEL 4
REMARK VINA RESULT:      -8.4      3.207      6.475
REMARK  Name = 
REMARK  7 active torsions:
REMARK  status: ('A' for Active; 'I' for Inactive)
REMARK    1  A    between atoms: C_1  and  C_2
REMARK    2  A    between atoms: C_10  and  C_11
REMARK    3  A    between atoms: C_11  and  C_13
REMARK    4  A    between atoms: C_13  and  O_14
REMARK    5  A    between atoms: O_14  and  C_15
REMARK    6  A    between atoms: C_15  and  C_17
REMARK    7  A    between atoms: C_22  and  O_23
REMARK                            x       y       z     vdW  Elec       q    Type
REMARK                         _______ _______ _______ _____ _____    ______ ____
ROOT
ATOM      1  C   UNL     1       2.549   3.022  18.438  0.00  0.00    +0.000 C 
ATOM      2  O   UNL     1       1.618   2.429  17.887  0.00  0.00    +0.000 OA
ENDROOT
BRANCH   1  12
ATOM      3  C   UNL     1       2.006   2.890  21.584  0.00  0.00    +0.000 C 
ATOM      4  C   UNL     1       2.073   4.075  20.686  0.00  0.00    +0.000 A 
ATOM      5  N   UNL     1       1.937   5.344  21.183  0.00  0.00    +0.000 N 
ATOM      6  C   UNL     1       2.046   6.273  20.176  0.00  0.00    +0.000 A 
ATOM      7  C   UNL     1       1.967   7.669  20.242  0.00  0.00    +0.000 A 
ATOM      8  C   UNL     1       2.098   8.384  19.049  0.00  0.00    +0.000 A 
ATOM      9  C   UNL     1       2.293   7.725  17.841  0.00  0.00    +0.000 A 
ATOM     10  C   UNL     1       2.369   6.329  17.797  0.00  0.00    +0.000 A 
ATOM     11  C   UNL     1       2.258   5.575  18.988  0.00  0.00    +0.000 A 
ATOM     12  C   UNL     1       2.302   4.173  19.317  0.00  0.00    +0.000 A 
ATOM     13  H   UNL     1       1.783   5.575  22.155  0.00  0.00    +0.000 HD
ENDBRANCH   1  12
BRANCH   1  14
ATOM     14  C   UNL     1       3.996   2.575  18.225  0.00  0.00    +0.000 C 
BRANCH  14  15
ATOM     15  O   UNL     1       4.944   3.617  18.445  0.00  0.00    +0.000 OA
BRANCH  15  16
ATOM     16  C   UNL     1       5.351   4.229  17.307  0.00  0.00    +0.000 C 
ATOM     17  O   UNL     1       4.976   3.953  16.176  0.00  0.00    +0.000 OA
BRANCH  16  18
ATOM     18  C   UNL     1       6.249   5.368  17.603  0.00  0.00    +0.000 A 
ATOM     19  C   UNL     1       7.117   5.218  18.695  0.00  0.00    +0.000 A 
ATOM     20  C   UNL     1       8.006   6.239  19.037  0.00  0.00    +0.000 A 
ATOM     21  C   UNL     1       8.027   7.417  18.292  0.00  0.00    +0.000 A 
ATOM     22  C   UNL     1       7.154   7.583  17.215  0.00  0.00    +0.000 A 
ATOM     23  C   UNL     1       6.259   6.564  16.876  0.00  0.00    +0.000 A 
BRANCH  23  24
ATOM     24  O   UNL     1       5.375   6.774  15.854  0.00  0.00    +0.000 OA
ATOM     25  H   UNL     1       5.208   5.934  15.394  0.00  0.00    +0.000 HD
ENDBRANCH  23  24
ENDBRANCH  16  18
ENDBRANCH  15  16
ENDBRANCH  14  15
ENDBRANCH   1  14
TORSDOF 6
ENDMDL
MODEL 5
REMARK VINA RESULT:      -8.4      2.435      6.703
REMARK  Name = 
REMARK  7 active torsions:
REMARK  status: ('A' for Active; 'I' for Inactive)
REMARK    1  A    between atoms: C_1  and  C_2
REMARK    2  A    between atoms: C_10  and  C_11
REMARK    3  A    between atoms: C_11  and  C_13
REMARK    4  A    between atoms: C_13  and  O_14
REMARK    5  A    between atoms: O_14  and  C_15
REMARK    6  A    between atoms: C_15  and  C_17
REMARK    7  A    between atoms: C_22  and  O_23
REMARK                            x       y       z     vdW  Elec       q    Type
REMARK                         _______ _______ _______ _____ _____    ______ ____
ROOT
ATOM      1  C   UNL     1       4.649   6.476  17.289  0.00  0.00    +0.000 C 
ATOM      2  O   UNL     1       4.177   7.559  17.646  0.00  0.00    +0.000 OA
ENDROOT
BRANCH   1  12
ATOM      3  C   UNL     1       6.922   5.595  19.354  0.00  0.00    +0.000 C 
ATOM      4  C   UNL     1       5.613   4.952  19.059  0.00  0.00    +0.000 A 
ATOM      5  N   UNL     1       5.206   3.837  19.745  0.00  0.00    +0.000 N 
ATOM      6  C   UNL     1       3.967   3.429  19.312  0.00  0.00    +0.000 A 
ATOM      7  C   UNL     1       3.190   2.345  19.737  0.00  0.00    +0.000 A 
ATOM      8  C   UNL     1       1.958   2.144  19.111  0.00  0.00    +0.000 A 
ATOM      9  C   UNL     1       1.527   2.992  18.098  0.00  0.00    +0.000 A 
ATOM     10  C   UNL     1       2.319   4.070  17.688  0.00  0.00    +0.000 A 
ATOM     11  C   UNL     1       3.564   4.313  18.312  0.00  0.00    +0.000 A 
ATOM     12  C   UNL     1       4.603   5.300  18.169  0.00  0.00    +0.000 A 
ATOM     13  H   UNL     1       5.735   3.376  20.472  0.00  0.00    +0.000 HD
ENDBRANCH   1  12
BRANCH   1  14
ATOM     14  C   UNL     1       5.295   6.321  15.912  0.00  0.00    +0.000 C 
BRANCH  14  15
ATOM     15  O   UNL     1       6.720   6.273  15.962  0.00  0.00    +0.000 OA
BRANCH  15  16
ATOM     16  C   UNL     1       7.231   5.046  15.702  0.00  0.00    +0.000 C 
ATOM     17  O   UNL     1       7.750   4.301  16.522  0.00  0.00    +0.000 OA
BRANCH  16  18
ATOM     18  C   UNL     1       6.994   4.654  14.294  0.00  0.00    +0.000 A 
ATOM     19  C   UNL     1       5.978   3.714  14.064  0.00  0.00    +0.000 A 
ATOM     20  C   UNL     1       5.680   3.299  12.765  0.00  0.00    +0.000 A 
ATOM     21  C   UNL     1       6.400   3.816  11.690  0.00  0.00    +0.000 A 
ATOM     22  C   UNL     1       7.426   4.739  11.910  0.00  0.00    +0.000 A 
ATOM     23  C   UNL     1       7.729   5.151  13.211  0.00  0.00    +0.000 A 
BRANCH  23  24
ATOM     24  O   UNL     1       8.776   6.010  13.405  0.00  0.00    +0.000 OA
ATOM     25  H   UNL     1       9.612   5.539  13.255  0.00  0.00    +0.000 HD
ENDBRANCH  23  24
ENDBRANCH  16  18
ENDBRANCH  15  16
ENDBRANCH  14  15
ENDBRANCH   1  14
TORSDOF 6
ENDMDL
MODEL 6
REMARK VINA RESULT:      -8.3      1.653      2.400
REMARK  Name = 
REMARK  7 active torsions:
REMARK  status: ('A' for Active; 'I' for Inactive)
REMARK    1  A    between atoms: C_1  and  C_2
REMARK    2  A    between atoms: C_10  and  C_11
REMARK    3  A    between atoms: C_11  and  C_13
REMARK    4  A    between atoms: C_13  and  O_14
REMARK    5  A    between atoms: O_14  and  C_15
REMARK    6  A    between atoms: C_15  and  C_17
REMARK    7  A    between atoms: C_22  and  O_23
REMARK                            x       y       z     vdW  Elec       q    Type
REMARK                         _______ _______ _______ _____ _____    ______ ____
ROOT
ATOM      1  C   UNL     1       4.890   5.658  18.167  0.00  0.00    +0.000 C 
ATOM      2  O   UNL     1       3.891   6.383  18.157  0.00  0.00    +0.000 OA
ENDROOT
BRANCH   1  12
ATOM      3  C   UNL     1       7.658   7.254  18.105  0.00  0.00    +0.000 C 
ATOM      4  C   UNL     1       7.050   6.378  17.068  0.00  0.00    +0.000 A 
ATOM      5  N   UNL     1       7.706   6.116  15.894  0.00  0.00    +0.000 N 
ATOM      6  C   UNL     1       6.960   5.278  15.100  0.00  0.00    +0.000 A 
ATOM      7  C   UNL     1       7.251   4.765  13.830  0.00  0.00    +0.000 A 
ATOM      8  C   UNL     1       6.300   3.937  13.230  0.00  0.00    +0.000 A 
ATOM      9  C   UNL     1       5.105   3.641  13.875  0.00  0.00    +0.000 A 
ATOM     10  C   UNL     1       4.834   4.163  15.144  0.00  0.00    +0.000 A 
ATOM     11  C   UNL     1       5.782   4.992  15.788  0.00  0.00    +0.000 A 
ATOM     12  C   UNL     1       5.851   5.672  17.056  0.00  0.00    +0.000 A 
ATOM     13  H   UNL     1       8.613   6.481  15.641  0.00  0.00    +0.000 HD
ENDBRANCH   1  12
BRANCH   1  14
ATOM     14  C   UNL     1       5.164   4.721  19.344  0.00  0.00    +0.000 C 
BRANCH  14  15
ATOM     15  O   UNL     1       5.225   3.347  18.967  0.00  0.00    +0.000 OA
BRANCH  15  16
ATOM     16  C   UNL     1       4.624   2.514  19.850  0.00  0.00    +0.000 C 
ATOM     17  O   UNL     1       5.198   1.778  20.639  0.00  0.00    +0.000 OA
BRANCH  16  18
ATOM     18  C   UNL     1       3.152   2.675  19.820  0.00  0.00    +0.000 A 
ATOM     19  C   UNL     1       2.553   3.207  20.971  0.00  0.00    +0.000 A 
ATOM     20  C   UNL     1       1.172   3.403  21.023  0.00  0.00    +0.000 A 
ATOM     21  C   UNL     1       0.382   3.062  19.927  0.00  0.00    +0.000 A 
ATOM     22  C   UNL     1       0.967   2.514  18.783  0.00  0.00    +0.000 A 
ATOM     23  C   UNL     1       2.350   2.311  18.732  0.00  0.00    +0.000 A 
BRANCH  23  24
ATOM     24  O   UNL     1       2.890   1.719  17.624  0.00  0.00    +0.000 OA
ATOM     25  H   UNL     1       3.845   1.599  17.757  0.00  0.00    +0.000 HD
ENDBRANCH  23  24
ENDBRANCH  16  18
ENDBRANCH  15  16
ENDBRANCH  14  15
ENDBRANCH   1  14
TORSDOF 6
ENDMDL
MODEL 7
REMARK VINA RESULT:      -8.3      0.955      1.729
REMARK  Name = 
REMARK  7 active torsions:
REMARK  status: ('A' for Active; 'I' for Inactive)
REMARK    1  A    between atoms: C_1  and  C_2
REMARK    2  A    between atoms: C_10  and  C_11
REMARK    3  A    between atoms: C_11  and  C_13
REMARK    4  A    between atoms: C_13  and  O_14
REMARK    5  A    between atoms: O_14  and  C_15
REMARK    6  A    between atoms: C_15  and  C_17
REMARK    7  A    between atoms: C_22  and  O_23
REMARK                            x       y       z     vdW  Elec       q    Type
REMARK                         _______ _______ _______ _____ _____    ______ ____
ROOT
ATOM      1  C   UNL     1       4.516   5.103  16.810  0.00  0.00    +0.000 C 
ATOM      2  O   UNL     1       3.891   6.117  17.135  0.00  0.00    +0.000 OA
ENDROOT
BRANCH   1  12
ATOM      3  C   UNL     1       7.284   6.607  17.343  0.00  0.00    +0.000 C 
ATOM      4  C   UNL     1       6.842   5.837  16.149  0.00  0.00    +0.000 A 
ATOM      5  N   UNL     1       7.681   5.650  15.082  0.00  0.00    +0.000 N 
ATOM      6  C   UNL     1       7.064   4.903  14.107  0.00  0.00    +0.000 A 
ATOM      7  C   UNL     1       7.554   4.485  12.864  0.00  0.00    +0.000 A 
ATOM      8  C   UNL     1       6.702   3.739  12.047  0.00  0.00    +0.000 A 
ATOM      9  C   UNL     1       5.411   3.431  12.458  0.00  0.00    +0.000 A 
ATOM     10  C   UNL     1       4.940   3.858  13.704  0.00  0.00    +0.000 A 
ATOM     11  C   UNL     1       5.782   4.601  14.563  0.00  0.00    +0.000 A 
ATOM     12  C   UNL     1       5.649   5.174  15.878  0.00  0.00    +0.000 A 
ATOM     13  H   UNL     1       8.625   6.004  15.015  0.00  0.00    +0.000 HD
ENDBRANCH   1  12
BRANCH   1  14
ATOM     14  C   UNL     1       4.130   3.734  17.371  0.00  0.00    +0.000 C 
BRANCH  14  15
ATOM     15  O   UNL     1       2.844   3.292  16.943  0.00  0.00    +0.000 OA
BRANCH  15  16
ATOM     16  C   UNL     1       1.819   3.898  17.588  0.00  0.00    +0.000 C 
ATOM     17  O   UNL     1       0.893   4.494  17.056  0.00  0.00    +0.000 OA
BRANCH  16  18
ATOM     18  C   UNL     1       1.893   3.665  19.049  0.00  0.00    +0.000 A 
ATOM     19  C   UNL     1       2.088   4.794  19.858  0.00  0.00    +0.000 A 
ATOM     20  C   UNL     1       2.158   4.666  21.246  0.00  0.00    +0.000 A 
ATOM     21  C   UNL     1       2.040   3.407  21.832  0.00  0.00    +0.000 A 
ATOM     22  C   UNL     1       1.865   2.274  21.034  0.00  0.00    +0.000 A 
ATOM     23  C   UNL     1       1.801   2.401  19.643  0.00  0.00    +0.000 A 
BRANCH  23  24
ATOM     24  O   UNL     1       1.687   1.271  18.881  0.00  0.00    +0.000 OA
ATOM     25  H   UNL     1       1.827   1.497  17.946  0.00  0.00    +0.000 HD
ENDBRANCH  23  24
ENDBRANCH  16  18
ENDBRANCH  15  16
ENDBRANCH  14  15
ENDBRANCH   1  14
TORSDOF 6
ENDMDL
MODEL 8
REMARK VINA RESULT:      -8.2      2.631      7.213
REMARK  Name = 
REMARK  7 active torsions:
REMARK  status: ('A' for Active; 'I' for Inactive)
REMARK    1  A    between atoms: C_1  and  C_2
REMARK    2  A    between atoms: C_10  and  C_11
REMARK    3  A    between atoms: C_11  and  C_13
REMARK    4  A    between atoms: C_13  and  O_14
REMARK    5  A    between atoms: O_14  and  C_15
REMARK    6  A    between atoms: C_15  and  C_17
REMARK    7  A    between atoms: C_22  and  O_23
REMARK                            x       y       z     vdW  Elec       q    Type
REMARK                         _______ _______ _______ _____ _____    ______ ____
ROOT
ATOM      1  C   UNL     1       4.428   4.542  17.596  0.00  0.00    +0.000 C 
ATOM      2  O   UNL     1       3.915   3.925  16.658  0.00  0.00    +0.000 OA
ENDROOT
BRANCH   1  12
ATOM      3  C   UNL     1       3.601   3.247  20.398  0.00  0.00    +0.000 C 
ATOM      4  C   UNL     1       3.265   4.584  19.840  0.00  0.00    +0.000 A 
ATOM      5  N   UNL     1       2.534   5.487  20.566  0.00  0.00    +0.000 N 
ATOM      6  C   UNL     1       2.358   6.651  19.856  0.00  0.00    +0.000 A 
ATOM      7  C   UNL     1       1.679   7.820  20.219  0.00  0.00    +0.000 A 
ATOM      8  C   UNL     1       1.638   8.862  19.292  0.00  0.00    +0.000 A 
ATOM      9  C   UNL     1       2.250   8.735  18.050  0.00  0.00    +0.000 A 
ATOM     10  C   UNL     1       2.924   7.559  17.707  0.00  0.00    +0.000 A 
ATOM     11  C   UNL     1       2.999   6.489  18.629  0.00  0.00    +0.000 A 
ATOM     12  C   UNL     1       3.601   5.181  18.628  0.00  0.00    +0.000 A 
ATOM     13  H   UNL     1       2.174   5.329  21.497  0.00  0.00    +0.000 HD
ENDBRANCH   1  12
BRANCH   1  14
ATOM     14  C   UNL     1       5.948   4.658  17.716  0.00  0.00    +0.000 C 
BRANCH  14  15
ATOM     15  O   UNL     1       6.641   4.176  16.568  0.00  0.00    +0.000 OA
BRANCH  15  16
ATOM     16  C   UNL     1       7.032   5.156  15.718  0.00  0.00    +0.000 C 
ATOM     17  O   UNL     1       7.510   6.233  16.044  0.00  0.00    +0.000 OA
BRANCH  16  18
ATOM     18  C   UNL     1       6.905   4.724  14.308  0.00  0.00    +0.000 A 
ATOM     19  C   UNL     1       5.872   3.821  14.015  0.00  0.00    +0.000 A 
ATOM     20  C   UNL     1       5.674   3.372  12.709  0.00  0.00    +0.000 A 
ATOM     21  C   UNL     1       6.511   3.818  11.688  0.00  0.00    +0.000 A 
ATOM     22  C   UNL     1       7.554   4.702  11.972  0.00  0.00    +0.000 A 
ATOM     23  C   UNL     1       7.758   5.148  13.282  0.00  0.00    +0.000 A 
BRANCH  23  24
ATOM     24  O   UNL     1       8.821   5.967  13.543  0.00  0.00    +0.000 OA
ATOM     25  H   UNL     1       9.300   5.636  14.321  0.00  0.00    +0.000 HD
ENDBRANCH  23  24
ENDBRANCH  16  18
ENDBRANCH  15  16
ENDBRANCH  14  15
ENDBRANCH   1  14
TORSDOF 6
ENDMDL
MODEL 9
REMARK VINA RESULT:      -8.2      1.221      2.104
REMARK  Name = 
REMARK  7 active torsions:
REMARK  status: ('A' for Active; 'I' for Inactive)
REMARK    1  A    between atoms: C_1  and  C_2
REMARK    2  A    between atoms: C_10  and  C_11
REMARK    3  A    between atoms: C_11  and  C_13
REMARK    4  A    between atoms: C_13  and  O_14
REMARK    5  A    between atoms: O_14  and  C_15
REMARK    6  A    between atoms: C_15  and  C_17
REMARK    7  A    between atoms: C_22  and  O_23
REMARK                            x       y       z     vdW  Elec       q    Type
REMARK                         _______ _______ _______ _____ _____    ______ ____
ROOT
ATOM      1  C   UNL     1       4.499   4.957  16.558  0.00  0.00    +0.000 C 
ATOM      2  O   UNL     1       3.959   5.962  17.029  0.00  0.00    +0.000 OA
ENDROOT
BRANCH   1  12
ATOM      3  C   UNL     1       7.222   6.503  17.191  0.00  0.00    +0.000 C 
ATOM      4  C   UNL     1       6.827   5.747  15.972  0.00  0.00    +0.000 A 
ATOM      5  N   UNL     1       7.697   5.594  14.924  0.00  0.00    +0.000 N 
ATOM      6  C   UNL     1       7.120   4.854  13.920  0.00  0.00    +0.000 A 
ATOM      7  C   UNL     1       7.651   4.468  12.684  0.00  0.00    +0.000 A 
ATOM      8  C   UNL     1       6.836   3.721  11.832  0.00  0.00    +0.000 A 
ATOM      9  C   UNL     1       5.540   3.382  12.202  0.00  0.00    +0.000 A 
ATOM     10  C   UNL     1       5.028   3.777  13.443  0.00  0.00    +0.000 A 
ATOM     11  C   UNL     1       5.833   4.520  14.337  0.00  0.00    +0.000 A 
ATOM     12  C   UNL     1       5.655   5.067  15.658  0.00  0.00    +0.000 A 
ATOM     13  H   UNL     1       8.635   5.968  14.889  0.00  0.00    +0.000 HD
ENDBRANCH   1  12
BRANCH   1  14
ATOM     14  C   UNL     1       3.982   3.559  16.899  0.00  0.00    +0.000 C 
BRANCH  14  15
ATOM     15  O   UNL     1       4.750   2.907  17.908  0.00  0.00    +0.000 OA
BRANCH  15  16
ATOM     16  C   UNL     1       4.833   3.606  19.065  0.00  0.00    +0.000 C 
ATOM     17  O   UNL     1       5.826   4.191  19.474  0.00  0.00    +0.000 OA
BRANCH  16  18
ATOM     18  C   UNL     1       3.521   3.669  19.748  0.00  0.00    +0.000 A 
ATOM     19  C   UNL     1       2.870   2.448  19.976  0.00  0.00    +0.000 A 
ATOM     20  C   UNL     1       1.635   2.416  20.625  0.00  0.00    +0.000 A 
ATOM     21  C   UNL     1       1.040   3.605  21.043  0.00  0.00    +0.000 A 
ATOM     22  C   UNL     1       1.672   4.828  20.803  0.00  0.00    +0.000 A 
ATOM     23  C   UNL     1       2.906   4.862  20.148  0.00  0.00    +0.000 A 
BRANCH  23  24
ATOM     24  O   UNL     1       3.476   6.075  19.873  0.00  0.00    +0.000 OA
ATOM     25  H   UNL     1       3.064   6.452  19.078  0.00  0.00    +0.000 HD
ENDBRANCH  23  24
ENDBRANCH  16  18
ENDBRANCH  15  16
ENDBRANCH  14  15
ENDBRANCH   1  14
TORSDOF 6
ENDMDL
