MODEL 1
REMARK VINA RESULT:      -8.9      0.000      0.000
REMARK  Name = 
REMARK  8 active torsions:
REMARK  status: ('A' for Active; 'I' for Inactive)
REMARK    1  A    between atoms: C_1  and  C_2
REMARK    2  A    between atoms: C_5  and  S_6
REMARK    3  A    between atoms: S_6  and  N_9
REMARK    4  A    between atoms: N_12  and  C_13
REMARK    5  A    between atoms: C_15  and  C_16
REMARK    6  A    between atoms: C_19  and  C_20
REMARK    7  A    between atoms: C_23  and  C_24
REMARK    8  A    between atoms: C_23  and  C_25
REMARK                            x       y       z     vdW  Elec       q    Type
REMARK                         _______ _______ _______ _____ _____    ______ ____
ROOT
ATOM      1  N   UNL     1       3.408   4.658  19.462  0.00  0.00    +0.000 NA
ATOM      2  C   UNL     1       4.013   5.999  19.316  0.00  0.00    +0.000 C 
ATOM      3  C   UNL     1       2.862   6.965  19.022  0.00  0.00    +0.000 C 
ATOM      4  N   UNL     1       1.957   6.990  20.192  0.00  0.00    +0.000 N 
ATOM      5  C   UNL     1       1.421   5.671  20.589  0.00  0.00    +0.000 C 
ATOM      6  C   UNL     1       2.534   4.582  20.661  0.00  0.00    +0.000 C 
ENDROOT
BRANCH   4   7
ATOM      7  C   UNL     1       1.404   8.223  20.466  0.00  0.00    +0.000 A 
ATOM      8  N   UNL     1       0.946   8.349  21.740  0.00  0.00    +0.000 NA
ATOM      9  C   UNL     1       0.382   9.496  22.182  0.00  0.00    +0.000 A 
ATOM     10  C   UNL     1      -0.080   9.482  23.611  0.00  0.00    +0.000 C 
ATOM     11  C   UNL     1       0.230  10.607  21.361  0.00  0.00    +0.000 A 
ATOM     12  C   UNL     1       0.654  10.486  20.030  0.00  0.00    +0.000 A 
ATOM     13  C   UNL     1       1.266   9.292  19.580  0.00  0.00    +0.000 A 
ATOM     14  C   UNL     1       0.503  11.683  19.118  0.00  0.00    +0.000 C 
ATOM     15  C   UNL     1      -0.590  12.652  19.599  0.00  0.00    +0.000 C 
ATOM     16  C   UNL     1      -2.007  12.090  19.394  0.00  0.00    +0.000 C 
ATOM     17  C   UNL     1      -0.462  13.956  18.803  0.00  0.00    +0.000 C 
ATOM     18  O   UNL     1      -0.342  12.981  20.970  0.00  0.00    +0.000 OA
ATOM     19  C   UNL     1      -0.410  11.873  21.871  0.00  0.00    +0.000 C 
BRANCH  13  20
ATOM     20  C   UNL     1       1.769   9.242  18.241  0.00  0.00    +0.000 C 
ATOM     21  N   UNL     1       2.159   9.166  17.149  0.00  0.00    +0.000 NA
ENDBRANCH  13  20
ENDBRANCH   4   7
BRANCH   1  22
ATOM     22  S   UNL     1       4.251   3.322  18.913  0.00  0.00    +0.000 S 
ATOM     23  O   UNL     1       3.285   2.349  18.446  0.00  0.00    +0.000 OA
ATOM     24  O   UNL     1       5.227   2.973  19.925  0.00  0.00    +0.000 OA
BRANCH  22  29
ATOM     25  C   UNL     1       7.401   5.027  14.022  0.00  0.00    +0.000 C 
ATOM     26  C   UNL     1       6.604   4.665  15.240  0.00  0.00    +0.000 A 
ATOM     27  C   UNL     1       7.211   4.638  16.503  0.00  0.00    +0.000 A 
ATOM     28  C   UNL     1       6.478   4.266  17.626  0.00  0.00    +0.000 A 
ATOM     29  C   UNL     1       5.125   3.930  17.493  0.00  0.00    +0.000 A 
ATOM     30  C   UNL     1       4.510   3.941  16.241  0.00  0.00    +0.000 A 
ATOM     31  C   UNL     1       5.248   4.319  15.120  0.00  0.00    +0.000 A 
ENDBRANCH  22  29
ENDBRANCH   1  22
TORSDOF 4
ENDMDL
MODEL 2
REMARK VINA RESULT:      -8.6      2.490      8.624
REMARK  Name = 
REMARK  8 active torsions:
REMARK  status: ('A' for Active; 'I' for Inactive)
REMARK    1  A    between atoms: C_1  and  C_2
REMARK    2  A    between atoms: C_5  and  S_6
REMARK    3  A    between atoms: S_6  and  N_9
REMARK    4  A    between atoms: N_12  and  C_13
REMARK    5  A    between atoms: C_15  and  C_16
REMARK    6  A    between atoms: C_19  and  C_20
REMARK    7  A    between atoms: C_23  and  C_24
REMARK    8  A    between atoms: C_23  and  C_25
REMARK                            x       y       z     vdW  Elec       q    Type
REMARK                         _______ _______ _______ _____ _____    ______ ____
ROOT
ATOM      1  N   UNL     1      -0.091  10.639  21.335  0.00  0.00    +0.000 NA
ATOM      2  C   UNL     1      -0.420   9.916  20.087  0.00  0.00    +0.000 C 
ATOM      3  C   UNL     1       0.878   9.262  19.610  0.00  0.00    +0.000 C 
ATOM      4  N   UNL     1       1.306   8.269  20.620  0.00  0.00    +0.000 N 
ATOM      5  C   UNL     1       1.485   8.812  21.984  0.00  0.00    +0.000 C 
ATOM      6  C   UNL     1       0.283   9.701  22.425  0.00  0.00    +0.000 C 
ENDROOT
BRANCH   4   7
ATOM      7  C   UNL     1       1.886   7.132  20.101  0.00  0.00    +0.000 A 
ATOM      8  N   UNL     1       1.739   6.032  20.886  0.00  0.00    +0.000 NA
ATOM      9  C   UNL     1       2.239   4.828  20.524  0.00  0.00    +0.000 A 
ATOM     10  C   UNL     1       2.002   3.709  21.498  0.00  0.00    +0.000 C 
ATOM     11  C   UNL     1       2.937   4.647  19.337  0.00  0.00    +0.000 A 
ATOM     12  C   UNL     1       3.141   5.776  18.531  0.00  0.00    +0.000 A 
ATOM     13  C   UNL     1       2.594   7.028  18.903  0.00  0.00    +0.000 A 
ATOM     14  C   UNL     1       3.893   5.603  17.231  0.00  0.00    +0.000 C 
ATOM     15  C   UNL     1       4.807   4.367  17.243  0.00  0.00    +0.000 C 
ATOM     16  C   UNL     1       6.041   4.556  18.142  0.00  0.00    +0.000 C 
ATOM     17  C   UNL     1       5.283   4.105  15.809  0.00  0.00    +0.000 C 
ATOM     18  O   UNL     1       4.034   3.227  17.634  0.00  0.00    +0.000 OA
ATOM     19  C   UNL     1       3.494   3.299  18.956  0.00  0.00    +0.000 C 
BRANCH  13  20
ATOM     20  C   UNL     1       2.744   8.135  18.007  0.00  0.00    +0.000 C 
ATOM     21  N   UNL     1       2.859   9.009  17.251  0.00  0.00    +0.000 NA
ENDBRANCH  13  20
ENDBRANCH   4   7
BRANCH   1  22
ATOM     22  S   UNL     1      -0.857  12.089  21.659  0.00  0.00    +0.000 S 
ATOM     23  O   UNL     1      -0.668  12.386  23.064  0.00  0.00    +0.000 OA
ATOM     24  O   UNL     1      -2.186  12.022  21.087  0.00  0.00    +0.000 OA
BRANCH  22  29
ATOM     25  C   UNL     1       2.430  15.852  18.226  0.00  0.00    +0.000 C 
ATOM     26  C   UNL     1       1.611  14.967  19.118  0.00  0.00    +0.000 A 
ATOM     27  C   UNL     1       2.235  14.125  20.048  0.00  0.00    +0.000 A 
ATOM     28  C   UNL     1       1.476  13.278  20.849  0.00  0.00    +0.000 A 
ATOM     29  C   UNL     1       0.080  13.278  20.732  0.00  0.00    +0.000 A 
ATOM     30  C   UNL     1      -0.556  14.101  19.803  0.00  0.00    +0.000 A 
ATOM     31  C   UNL     1       0.212  14.952  19.006  0.00  0.00    +0.000 A 
ENDBRANCH  22  29
ENDBRANCH   1  22
TORSDOF 4
ENDMDL
MODEL 3
REMARK VINA RESULT:      -8.6      2.533      9.158
REMARK  Name = 
REMARK  8 active torsions:
REMARK  status: ('A' for Active; 'I' for Inactive)
REMARK    1  A    between atoms: C_1  and  C_2
REMARK    2  A    between atoms: C_5  and  S_6
REMARK    3  A    between atoms: S_6  and  N_9
REMARK    4  A    between atoms: N_12  and  C_13
REMARK    5  A    between atoms: C_15  and  C_16
REMARK    6  A    between atoms: C_19  and  C_20
REMARK    7  A    between atoms: C_23  and  C_24
REMARK    8  A    between atoms: C_23  and  C_25
REMARK                            x       y       z     vdW  Elec       q    Type
REMARK                         _______ _______ _______ _____ _____    ______ ____
ROOT
ATOM      1  N   UNL     1       0.007  10.637  21.612  0.00  0.00    +0.000 NA
ATOM      2  C   UNL     1       0.454   9.484  22.423  0.00  0.00    +0.000 C 
ATOM      3  C   UNL     1       0.344   8.252  21.522  0.00  0.00    +0.000 C 
ATOM      4  N   UNL     1       1.281   8.411  20.388  0.00  0.00    +0.000 N 
ATOM      5  C   UNL     1       1.084   9.639  19.590  0.00  0.00    +0.000 C 
ATOM      6  C   UNL     1       0.939  10.906  20.487  0.00  0.00    +0.000 C 
ENDROOT
BRANCH   4   7
ATOM      7  C   UNL     1       1.886   7.244  19.973  0.00  0.00    +0.000 A 
ATOM      8  N   UNL     1       1.713   6.201  20.829  0.00  0.00    +0.000 NA
ATOM      9  C   UNL     1       2.232   4.978  20.573  0.00  0.00    +0.000 A 
ATOM     10  C   UNL     1       1.962   3.929  21.613  0.00  0.00    +0.000 C 
ATOM     11  C   UNL     1       2.976   4.718  19.428  0.00  0.00    +0.000 A 
ATOM     12  C   UNL     1       3.206   5.789  18.552  0.00  0.00    +0.000 A 
ATOM     13  C   UNL     1       2.640   7.060  18.814  0.00  0.00    +0.000 A 
ATOM     14  C   UNL     1       4.008   5.530  17.298  0.00  0.00    +0.000 C 
ATOM     15  C   UNL     1       4.927   4.304  17.432  0.00  0.00    +0.000 C 
ATOM     16  C   UNL     1       6.124   4.565  18.361  0.00  0.00    +0.000 C 
ATOM     17  C   UNL     1       5.459   3.944  16.040  0.00  0.00    +0.000 C 
ATOM     18  O   UNL     1       4.144   3.189  17.874  0.00  0.00    +0.000 OA
ATOM     19  C   UNL     1       3.553   3.350  19.166  0.00  0.00    +0.000 C 
BRANCH  13  20
ATOM     20  C   UNL     1       2.819   8.101  17.848  0.00  0.00    +0.000 C 
ATOM     21  N   UNL     1       2.936   8.930  17.043  0.00  0.00    +0.000 NA
ENDBRANCH  13  20
ENDBRANCH   4   7
BRANCH   1  22
ATOM     22  S   UNL     1      -0.841  11.872  22.354  0.00  0.00    +0.000 S 
ATOM     23  O   UNL     1      -0.005  13.055  22.338  0.00  0.00    +0.000 OA
ATOM     24  O   UNL     1      -1.371  11.355  23.599  0.00  0.00    +0.000 OA
BRANCH  22  29
ATOM     25  C   UNL     1      -5.588  12.486  18.634  0.00  0.00    +0.000 C 
ATOM     26  C   UNL     1      -4.398  12.394  19.543  0.00  0.00    +0.000 A 
ATOM     27  C   UNL     1      -3.168  11.933  19.055  0.00  0.00    +0.000 A 
ATOM     28  C   UNL     1      -2.075  11.814  19.908  0.00  0.00    +0.000 A 
ATOM     29  C   UNL     1      -2.204  12.168  21.257  0.00  0.00    +0.000 A 
ATOM     30  C   UNL     1      -3.425  12.616  21.760  0.00  0.00    +0.000 A 
ATOM     31  C   UNL     1      -4.516  12.738  20.899  0.00  0.00    +0.000 A 
ENDBRANCH  22  29
ENDBRANCH   1  22
TORSDOF 4
ENDMDL
MODEL 4
REMARK VINA RESULT:      -8.5      1.597      2.907
REMARK  Name = 
REMARK  8 active torsions:
REMARK  status: ('A' for Active; 'I' for Inactive)
REMARK    1  A    between atoms: C_1  and  C_2
REMARK    2  A    between atoms: C_5  and  S_6
REMARK    3  A    between atoms: S_6  and  N_9
REMARK    4  A    between atoms: N_12  and  C_13
REMARK    5  A    between atoms: C_15  and  C_16
REMARK    6  A    between atoms: C_19  and  C_20
REMARK    7  A    between atoms: C_23  and  C_24
REMARK    8  A    between atoms: C_23  and  C_25
REMARK                            x       y       z     vdW  Elec       q    Type
REMARK                         _______ _______ _______ _____ _____    ______ ____
ROOT
ATOM      1  N   UNL     1       3.618   6.233  18.895  0.00  0.00    +0.000 NA
ATOM      2  C   UNL     1       2.347   6.057  19.632  0.00  0.00    +0.000 C 
ATOM      3  C   UNL     1       1.975   7.434  20.188  0.00  0.00    +0.000 C 
ATOM      4  N   UNL     1       1.729   8.350  19.053  0.00  0.00    +0.000 N 
ATOM      5  C   UNL     1       2.855   8.477  18.103  0.00  0.00    +0.000 C 
ATOM      6  C   UNL     1       3.437   7.090  17.695  0.00  0.00    +0.000 C 
ENDROOT
BRANCH   4   7
ATOM      7  C   UNL     1       0.715   9.261  19.258  0.00  0.00    +0.000 A 
ATOM      8  N   UNL     1      -0.042   9.500  18.153  0.00  0.00    +0.000 NA
ATOM      9  C   UNL     1      -1.085  10.361  18.179  0.00  0.00    +0.000 A 
ATOM     10  C   UNL     1      -1.821  10.524  16.880  0.00  0.00    +0.000 C 
ATOM     11  C   UNL     1      -1.440  11.055  19.329  0.00  0.00    +0.000 A 
ATOM     12  C   UNL     1      -0.647  10.860  20.470  0.00  0.00    +0.000 A 
ATOM     13  C   UNL     1       0.428   9.940  20.443  0.00  0.00    +0.000 A 
ATOM     14  C   UNL     1      -1.017  11.600  21.734  0.00  0.00    +0.000 C 
ATOM     15  C   UNL     1      -1.837  12.870  21.452  0.00  0.00    +0.000 C 
ATOM     16  C   UNL     1      -0.989  13.991  20.828  0.00  0.00    +0.000 C 
ATOM     17  C   UNL     1      -2.415  13.376  22.779  0.00  0.00    +0.000 C 
ATOM     18  O   UNL     1      -2.952  12.523  20.624  0.00  0.00    +0.000 OA
ATOM     19  C   UNL     1      -2.601  12.016  19.334  0.00  0.00    +0.000 C 
BRANCH  13  20
ATOM     20  C   UNL     1       1.154   9.699  21.654  0.00  0.00    +0.000 C 
ATOM     21  N   UNL     1       1.745   9.543  22.642  0.00  0.00    +0.000 NA
ENDBRANCH  13  20
ENDBRANCH   4   7
BRANCH   1  22
ATOM     22  S   UNL     1       4.750   5.003  18.924  0.00  0.00    +0.000 S 
ATOM     23  O   UNL     1       4.053   3.765  19.206  0.00  0.00    +0.000 OA
ATOM     24  O   UNL     1       5.852   5.440  19.757  0.00  0.00    +0.000 OA
BRANCH  22  29
ATOM     25  C   UNL     1       6.988   4.439  13.319  0.00  0.00    +0.000 C 
ATOM     26  C   UNL     1       6.399   4.626  14.685  0.00  0.00    +0.000 A 
ATOM     27  C   UNL     1       7.044   5.437  15.630  0.00  0.00    +0.000 A 
ATOM     28  C   UNL     1       6.515   5.579  16.909  0.00  0.00    +0.000 A 
ATOM     29  C   UNL     1       5.327   4.921  17.248  0.00  0.00    +0.000 A 
ATOM     30  C   UNL     1       4.680   4.101  16.323  0.00  0.00    +0.000 A 
ATOM     31  C   UNL     1       5.212   3.965  15.041  0.00  0.00    +0.000 A 
ENDBRANCH  22  29
ENDBRANCH   1  22
TORSDOF 4
ENDMDL
MODEL 5
REMARK VINA RESULT:      -8.3      2.769      8.815
REMARK  Name = 
REMARK  8 active torsions:
REMARK  status: ('A' for Active; 'I' for Inactive)
REMARK    1  A    between atoms: C_1  and  C_2
REMARK    2  A    between atoms: C_5  and  S_6
REMARK    3  A    between atoms: S_6  and  N_9
REMARK    4  A    between atoms: N_12  and  C_13
REMARK    5  A    between atoms: C_15  and  C_16
REMARK    6  A    between atoms: C_19  and  C_20
REMARK    7  A    between atoms: C_23  and  C_24
REMARK    8  A    between atoms: C_23  and  C_25
REMARK                            x       y       z     vdW  Elec       q    Type
REMARK                         _______ _______ _______ _____ _____    ______ ____
ROOT
ATOM      1  N   UNL     1      -0.147  10.533  21.552  0.00  0.00    +0.000 NA
ATOM      2  C   UNL     1      -0.579   9.753  20.372  0.00  0.00    +0.000 C 
ATOM      3  C   UNL     1       0.689   9.155  19.759  0.00  0.00    +0.000 C 
ATOM      4  N   UNL     1       1.290   8.220  20.737  0.00  0.00    +0.000 N 
ATOM      5  C   UNL     1       1.597   8.816  22.054  0.00  0.00    +0.000 C 
ATOM      6  C   UNL     1       0.407   9.653  22.613  0.00  0.00    +0.000 C 
ENDROOT
BRANCH   4   7
ATOM      7  C   UNL     1       1.869   7.100  20.181  0.00  0.00    +0.000 A 
ATOM      8  N   UNL     1       1.733   5.978  20.938  0.00  0.00    +0.000 NA
ATOM      9  C   UNL     1       2.234   4.786  20.539  0.00  0.00    +0.000 A 
ATOM     10  C   UNL     1       2.010   3.641  21.485  0.00  0.00    +0.000 C 
ATOM     11  C   UNL     1       2.921   4.640  19.340  0.00  0.00    +0.000 A 
ATOM     12  C   UNL     1       3.112   5.791  18.563  0.00  0.00    +0.000 A 
ATOM     13  C   UNL     1       2.565   7.030  18.974  0.00  0.00    +0.000 A 
ATOM     14  C   UNL     1       3.852   5.656  17.252  0.00  0.00    +0.000 C 
ATOM     15  C   UNL     1       4.771   4.423  17.222  0.00  0.00    +0.000 C 
ATOM     16  C   UNL     1       6.013   4.593  18.112  0.00  0.00    +0.000 C 
ATOM     17  C   UNL     1       5.233   4.201  15.776  0.00  0.00    +0.000 C 
ATOM     18  O   UNL     1       4.006   3.270  17.590  0.00  0.00    +0.000 OA
ATOM     19  C   UNL     1       3.478   3.304  18.918  0.00  0.00    +0.000 C 
BRANCH  13  20
ATOM     20  C   UNL     1       2.702   8.161  18.107  0.00  0.00    +0.000 C 
ATOM     21  N   UNL     1       2.785   9.064  17.381  0.00  0.00    +0.000 NA
ENDBRANCH  13  20
ENDBRANCH   4   7
BRANCH   1  22
ATOM     22  S   UNL     1      -0.951  11.950  21.928  0.00  0.00    +0.000 S 
ATOM     23  O   UNL     1      -1.201  11.953  23.354  0.00  0.00    +0.000 OA
ATOM     24  O   UNL     1      -2.039  12.102  20.983  0.00  0.00    +0.000 OA
BRANCH  22  29
ATOM     25  C   UNL     1       3.313  16.187  21.143  0.00  0.00    +0.000 C 
ATOM     26  C   UNL     1       2.230  15.159  21.285  0.00  0.00    +0.000 A 
ATOM     27  C   UNL     1       1.095  15.428  22.062  0.00  0.00    +0.000 A 
ATOM     28  C   UNL     1       0.109  14.460  22.223  0.00  0.00    +0.000 A 
ATOM     29  C   UNL     1       0.247  13.216  21.593  0.00  0.00    +0.000 A 
ATOM     30  C   UNL     1       1.376  12.929  20.826  0.00  0.00    +0.000 A 
ATOM     31  C   UNL     1       2.359  13.906  20.665  0.00  0.00    +0.000 A 
ENDBRANCH  22  29
ENDBRANCH   1  22
TORSDOF 4
ENDMDL
MODEL 6
REMARK VINA RESULT:      -8.1      0.789      1.447
REMARK  Name = 
REMARK  8 active torsions:
REMARK  status: ('A' for Active; 'I' for Inactive)
REMARK    1  A    between atoms: C_1  and  C_2
REMARK    2  A    between atoms: C_5  and  S_6
REMARK    3  A    between atoms: S_6  and  N_9
REMARK    4  A    between atoms: N_12  and  C_13
REMARK    5  A    between atoms: C_15  and  C_16
REMARK    6  A    between atoms: C_19  and  C_20
REMARK    7  A    between atoms: C_23  and  C_24
REMARK    8  A    between atoms: C_23  and  C_25
REMARK                            x       y       z     vdW  Elec       q    Type
REMARK                         _______ _______ _______ _____ _____    ______ ____
ROOT
ATOM      1  N   UNL     1       2.887   5.076  19.151  0.00  0.00    +0.000 NA
ATOM      2  C   UNL     1       1.835   5.205  20.183  0.00  0.00    +0.000 C 
ATOM      3  C   UNL     1       2.054   6.560  20.858  0.00  0.00    +0.000 C 
ATOM      4  N   UNL     1       1.849   7.627  19.854  0.00  0.00    +0.000 N 
ATOM      5  C   UNL     1       2.703   7.518  18.652  0.00  0.00    +0.000 C 
ATOM      6  C   UNL     1       2.709   6.074  18.065  0.00  0.00    +0.000 C 
ENDROOT
BRANCH   4   7
ATOM      7  C   UNL     1       1.249   8.769  20.340  0.00  0.00    +0.000 A 
ATOM      8  N   UNL     1       0.760   8.638  21.602  0.00  0.00    +0.000 NA
ATOM      9  C   UNL     1       0.148   9.663  22.238  0.00  0.00    +0.000 A 
ATOM     10  C   UNL     1      -0.344   9.364  23.625  0.00  0.00    +0.000 C 
ATOM     11  C   UNL     1      -0.024  10.905  21.637  0.00  0.00    +0.000 A 
ATOM     12  C   UNL     1       0.432  11.051  20.319  0.00  0.00    +0.000 A 
ATOM     13  C   UNL     1       1.093   9.982  19.669  0.00  0.00    +0.000 A 
ATOM     14  C   UNL     1       0.261  12.394  19.647  0.00  0.00    +0.000 C 
ATOM     15  C   UNL     1      -0.874  13.222  20.272  0.00  0.00    +0.000 C 
ATOM     16  C   UNL     1      -2.267  12.668  19.925  0.00  0.00    +0.000 C 
ATOM     17  C   UNL     1      -0.773  14.657  19.740  0.00  0.00    +0.000 C 
ATOM     18  O   UNL     1      -0.667  13.293  21.687  0.00  0.00    +0.000 OA
ATOM     19  C   UNL     1      -0.717  12.032  22.360  0.00  0.00    +0.000 C 
BRANCH  13  20
ATOM     20  C   UNL     1       1.627  10.202  18.359  0.00  0.00    +0.000 C 
ATOM     21  N   UNL     1       2.094  10.365  17.308  0.00  0.00    +0.000 NA
ENDBRANCH  13  20
ENDBRANCH   4   7
BRANCH   1  22
ATOM     22  S   UNL     1       3.551   3.572  18.850  0.00  0.00    +0.000 S 
ATOM     23  O   UNL     1       2.523   2.746  18.251  0.00  0.00    +0.000 OA
ATOM     24  O   UNL     1       4.238   3.146  20.053  0.00  0.00    +0.000 OA
BRANCH  22  29
ATOM     25  C   UNL     1       7.548   5.021  14.529  0.00  0.00    +0.000 C 
ATOM     26  C   UNL     1       6.585   4.606  15.601  0.00  0.00    +0.000 A 
ATOM     27  C   UNL     1       5.330   4.081  15.262  0.00  0.00    +0.000 A 
ATOM     28  C   UNL     1       4.423   3.731  16.258  0.00  0.00    +0.000 A 
ATOM     29  C   UNL     1       4.774   3.891  17.604  0.00  0.00    +0.000 A 
ATOM     30  C   UNL     1       6.014   4.422  17.957  0.00  0.00    +0.000 A 
ATOM     31  C   UNL     1       6.920   4.768  16.955  0.00  0.00    +0.000 A 
ENDBRANCH  22  29
ENDBRANCH   1  22
TORSDOF 4
ENDMDL
MODEL 7
REMARK VINA RESULT:      -8.1      2.768      9.503
REMARK  Name = 
REMARK  8 active torsions:
REMARK  status: ('A' for Active; 'I' for Inactive)
REMARK    1  A    between atoms: C_1  and  C_2
REMARK    2  A    between atoms: C_5  and  S_6
REMARK    3  A    between atoms: S_6  and  N_9
REMARK    4  A    between atoms: N_12  and  C_13
REMARK    5  A    between atoms: C_15  and  C_16
REMARK    6  A    between atoms: C_19  and  C_20
REMARK    7  A    between atoms: C_23  and  C_24
REMARK    8  A    between atoms: C_23  and  C_25
REMARK                            x       y       z     vdW  Elec       q    Type
REMARK                         _______ _______ _______ _____ _____    ______ ____
ROOT
ATOM      1  N   UNL     1       0.113  11.305  18.425  0.00  0.00    +0.000 NA
ATOM      2  C   UNL     1      -0.314   9.945  18.822  0.00  0.00    +0.000 C 
ATOM      3  C   UNL     1       0.495   8.969  17.964  0.00  0.00    +0.000 C 
ATOM      4  N   UNL     1       1.927   9.121  18.300  0.00  0.00    +0.000 N 
ATOM      5  C   UNL     1       2.459  10.492  18.144  0.00  0.00    +0.000 C 
ATOM      6  C   UNL     1       1.528  11.560  18.794  0.00  0.00    +0.000 C 
ENDROOT
BRANCH   4   7
ATOM      7  C   UNL     1       2.650   7.948  18.282  0.00  0.00    +0.000 A 
ATOM      8  N   UNL     1       3.484   7.832  17.214  0.00  0.00    +0.000 NA
ATOM      9  C   UNL     1       4.275   6.748  17.043  0.00  0.00    +0.000 A 
ATOM     10  C   UNL     1       5.136   6.762  15.813  0.00  0.00    +0.000 C 
ATOM     11  C   UNL     1       4.276   5.688  17.942  0.00  0.00    +0.000 A 
ATOM     12  C   UNL     1       3.392   5.763  19.028  0.00  0.00    +0.000 A 
ATOM     13  C   UNL     1       2.586   6.911  19.214  0.00  0.00    +0.000 A 
ATOM     14  C   UNL     1       3.379   4.625  20.022  0.00  0.00    +0.000 C 
ATOM     15  C   UNL     1       3.903   3.312  19.417  0.00  0.00    +0.000 C 
ATOM     16  C   UNL     1       2.915   2.689  18.417  0.00  0.00    +0.000 C 
ATOM     17  C   UNL     1       4.138   2.314  20.557  0.00  0.00    +0.000 C 
ATOM     18  O   UNL     1       5.181   3.559  18.818  0.00  0.00    +0.000 OA
ATOM     19  C   UNL     1       5.159   4.485  17.728  0.00  0.00    +0.000 C 
BRANCH  13  20
ATOM     20  C   UNL     1       1.766   6.990  20.386  0.00  0.00    +0.000 C 
ATOM     21  N   UNL     1       1.099   7.015  21.337  0.00  0.00    +0.000 NA
ENDBRANCH  13  20
ENDBRANCH   4   7
BRANCH   1  22
ATOM     22  S   UNL     1      -1.017  12.537  18.404  0.00  0.00    +0.000 S 
ATOM     23  O   UNL     1      -2.021  12.201  17.415  0.00  0.00    +0.000 OA
ATOM     24  O   UNL     1      -0.297  13.792  18.335  0.00  0.00    +0.000 OA
BRANCH  22  29
ATOM     25  C   UNL     1      -3.569  12.577  23.903  0.00  0.00    +0.000 C 
ATOM     26  C   UNL     1      -2.944  12.504  22.541  0.00  0.00    +0.000 A 
ATOM     27  C   UNL     1      -1.553  12.408  22.404  0.00  0.00    +0.000 A 
ATOM     28  C   UNL     1      -0.973  12.379  21.139  0.00  0.00    +0.000 A 
ATOM     29  C   UNL     1      -1.786  12.432  20.000  0.00  0.00    +0.000 A 
ATOM     30  C   UNL     1      -3.172  12.540  20.120  0.00  0.00    +0.000 A 
ATOM     31  C   UNL     1      -3.747  12.565  21.391  0.00  0.00    +0.000 A 
ENDBRANCH  22  29
ENDBRANCH   1  22
TORSDOF 4
ENDMDL
MODEL 8
REMARK VINA RESULT:      -8.1      2.546      9.217
REMARK  Name = 
REMARK  8 active torsions:
REMARK  status: ('A' for Active; 'I' for Inactive)
REMARK    1  A    between atoms: C_1  and  C_2
REMARK    2  A    between atoms: C_5  and  S_6
REMARK    3  A    between atoms: S_6  and  N_9
REMARK    4  A    between atoms: N_12  and  C_13
REMARK    5  A    between atoms: C_15  and  C_16
REMARK    6  A    between atoms: C_19  and  C_20
REMARK    7  A    between atoms: C_23  and  C_24
REMARK    8  A    between atoms: C_23  and  C_25
REMARK                            x       y       z     vdW  Elec       q    Type
REMARK                         _______ _______ _______ _____ _____    ______ ____
ROOT
ATOM      1  N   UNL     1       0.061  10.681  21.314  0.00  0.00    +0.000 NA
ATOM      2  C   UNL     1       0.870  10.541  20.083  0.00  0.00    +0.000 C 
ATOM      3  C   UNL     1       1.906   9.451  20.366  0.00  0.00    +0.000 C 
ATOM      4  N   UNL     1       1.196   8.175  20.600  0.00  0.00    +0.000 N 
ATOM      5  C   UNL     1       0.194   8.213  21.686  0.00  0.00    +0.000 C 
ATOM      6  C   UNL     1      -0.739   9.458  21.581  0.00  0.00    +0.000 C 
ENDROOT
BRANCH   4   7
ATOM      7  C   UNL     1       1.840   7.059  20.111  0.00  0.00    +0.000 A 
ATOM      8  N   UNL     1       1.762   5.975  20.929  0.00  0.00    +0.000 NA
ATOM      9  C   UNL     1       2.332   4.793  20.599  0.00  0.00    +0.000 A 
ATOM     10  C   UNL     1       2.165   3.692  21.606  0.00  0.00    +0.000 C 
ATOM     11  C   UNL     1       3.034   4.619  19.413  0.00  0.00    +0.000 A 
ATOM     12  C   UNL     1       3.167   5.734  18.573  0.00  0.00    +0.000 A 
ATOM     13  C   UNL     1       2.548   6.961  18.912  0.00  0.00    +0.000 A 
ATOM     14  C   UNL     1       3.923   5.568  17.275  0.00  0.00    +0.000 C 
ATOM     15  C   UNL     1       4.909   4.389  17.317  0.00  0.00    +0.000 C 
ATOM     16  C   UNL     1       6.133   4.677  18.203  0.00  0.00    +0.000 C 
ATOM     17  C   UNL     1       5.394   4.113  15.889  0.00  0.00    +0.000 C 
ATOM     18  O   UNL     1       4.206   3.217  17.746  0.00  0.00    +0.000 OA
ATOM     19  C   UNL     1       3.668   3.295  19.069  0.00  0.00    +0.000 C 
BRANCH  13  20
ATOM     20  C   UNL     1       2.629   8.049  17.984  0.00  0.00    +0.000 C 
ATOM     21  N   UNL     1       2.654   8.934  17.232  0.00  0.00    +0.000 NA
ENDBRANCH  13  20
ENDBRANCH   4   7
BRANCH   1  22
ATOM     22  S   UNL     1      -0.490  12.196  21.756  0.00  0.00    +0.000 S 
ATOM     23  O   UNL     1       0.305  13.180  21.051  0.00  0.00    +0.000 OA
ATOM     24  O   UNL     1      -0.593  12.222  23.201  0.00  0.00    +0.000 OA
BRANCH  22  29
ATOM     25  C   UNL     1      -6.063  12.815  19.451  0.00  0.00    +0.000 C 
ATOM     26  C   UNL     1      -4.696  12.601  20.030  0.00  0.00    +0.000 A 
ATOM     27  C   UNL     1      -4.468  12.790  21.399  0.00  0.00    +0.000 A 
ATOM     28  C   UNL     1      -3.191  12.627  21.928  0.00  0.00    +0.000 A 
ATOM     29  C   UNL     1      -2.133  12.259  21.087  0.00  0.00    +0.000 A 
ATOM     30  C   UNL     1      -2.342  12.078  19.720  0.00  0.00    +0.000 A 
ATOM     31  C   UNL     1      -3.625  12.239  19.197  0.00  0.00    +0.000 A 
ENDBRANCH  22  29
ENDBRANCH   1  22
TORSDOF 4
ENDMDL
MODEL 9
REMARK VINA RESULT:      -8.0      2.887      9.022
REMARK  Name = 
REMARK  8 active torsions:
REMARK  status: ('A' for Active; 'I' for Inactive)
REMARK    1  A    between atoms: C_1  and  C_2
REMARK    2  A    between atoms: C_5  and  S_6
REMARK    3  A    between atoms: S_6  and  N_9
REMARK    4  A    between atoms: N_12  and  C_13
REMARK    5  A    between atoms: C_15  and  C_16
REMARK    6  A    between atoms: C_19  and  C_20
REMARK    7  A    between atoms: C_23  and  C_24
REMARK    8  A    between atoms: C_23  and  C_25
REMARK                            x       y       z     vdW  Elec       q    Type
REMARK                         _______ _______ _______ _____ _____    ______ ____
ROOT
ATOM      1  N   UNL     1      -0.672  10.737  21.624  0.00  0.00    +0.000 NA
ATOM      2  C   UNL     1      -0.939  10.057  20.338  0.00  0.00    +0.000 C 
ATOM      3  C   UNL     1       0.419   9.603  19.797  0.00  0.00    +0.000 C 
ATOM      4  N   UNL     1       0.993   8.613  20.734  0.00  0.00    +0.000 N 
ATOM      5  C   UNL     1       1.137   9.088  22.127  0.00  0.00    +0.000 C 
ATOM      6  C   UNL     1      -0.156   9.789  22.644  0.00  0.00    +0.000 C 
ENDROOT
BRANCH   4   7
ATOM      7  C   UNL     1       1.698   7.592  20.133  0.00  0.00    +0.000 A 
ATOM      8  N   UNL     1       1.669   6.422  20.824  0.00  0.00    +0.000 NA
ATOM      9  C   UNL     1       2.301   5.314  20.373  0.00  0.00    +0.000 A 
ATOM     10  C   UNL     1       2.183   4.100  21.249  0.00  0.00    +0.000 C 
ATOM     11  C   UNL     1       3.022   5.309  19.185  0.00  0.00    +0.000 A 
ATOM     12  C   UNL     1       3.104   6.516  18.476  0.00  0.00    +0.000 A 
ATOM     13  C   UNL     1       2.420   7.665  18.941  0.00  0.00    +0.000 A 
ATOM     14  C   UNL     1       3.878   6.534  17.178  0.00  0.00    +0.000 C 
ATOM     15  C   UNL     1       4.923   5.408  17.103  0.00  0.00    +0.000 C 
ATOM     16  C   UNL     1       6.123   5.657  18.031  0.00  0.00    +0.000 C 
ATOM     17  C   UNL     1       5.432   5.318  15.659  0.00  0.00    +0.000 C 
ATOM     18  O   UNL     1       4.278   4.162  17.389  0.00  0.00    +0.000 OA
ATOM     19  C   UNL     1       3.726   4.065  18.705  0.00  0.00    +0.000 C 
BRANCH  13  20
ATOM     20  C   UNL     1       2.452   8.852  18.140  0.00  0.00    +0.000 C 
ATOM     21  N   UNL     1       2.487   9.792  17.459  0.00  0.00    +0.000 NA
ENDBRANCH  13  20
ENDBRANCH   4   7
BRANCH   1  22
ATOM     22  S   UNL     1      -1.605  12.056  22.054  0.00  0.00    +0.000 S 
ATOM     23  O   UNL     1      -2.109  11.825  23.392  0.00  0.00    +0.000 OA
ATOM     24  O   UNL     1      -2.510  12.330  20.956  0.00  0.00    +0.000 OA
BRANCH  22  29
ATOM     25  C   UNL     1       2.230  16.751  22.025  0.00  0.00    +0.000 C 
ATOM     26  C   UNL     1       1.312  15.566  22.082  0.00  0.00    +0.000 A 
ATOM     27  C   UNL     1       1.581  14.424  21.315  0.00  0.00    +0.000 A 
ATOM     28  C   UNL     1       0.708  13.340  21.341  0.00  0.00    +0.000 A 
ATOM     29  C   UNL     1      -0.436  13.388  22.147  0.00  0.00    +0.000 A 
ATOM     30  C   UNL     1      -0.723  14.522  22.907  0.00  0.00    +0.000 A 
ATOM     31  C   UNL     1       0.158  15.603  22.880  0.00  0.00    +0.000 A 
ENDBRANCH  22  29
ENDBRANCH   1  22
TORSDOF 4
ENDMDL
