MODEL 1
REMARK VINA RESULT:      -8.5      0.000      0.000
REMARK  Name = 
REMARK  8 active torsions:
REMARK  status: ('A' for Active; 'I' for Inactive)
REMARK    1  A    between atoms: C_1  and  O_2
REMARK    2  A    between atoms: O_2  and  C_3
REMARK    3  A    between atoms: C_5  and  S_6
REMARK    4  A    between atoms: S_6  and  N_9
REMARK    5  A    between atoms: C_12  and  O_13
REMARK    6  A    between atoms: C_12  and  C_14
REMARK    7  A    between atoms: C_18  and  C_19
REMARK    8  A    between atoms: C_28  and  N_29
REMARK                            x       y       z     vdW  Elec       q    Type
REMARK                         _______ _______ _______ _____ _____    ______ ____
ROOT
ATOM      1  N   UNL     1       1.146   9.365  19.480  0.00  0.00    +0.000 NA
ATOM      2  C   UNL     1       1.412   8.770  20.808  0.00  0.00    +0.000 C 
ATOM      3  C   UNL     1       1.274   7.255  20.780  0.00  0.00    +0.000 C 
ATOM      4  C   UNL     1       2.140   6.606  19.684  0.00  0.00    +0.000 C 
ATOM      5  C   UNL     1       1.796   7.278  18.343  0.00  0.00    +0.000 C 
ATOM      6  C   UNL     1       1.962   8.793  18.386  0.00  0.00    +0.000 C 
ENDROOT
BRANCH   4   7
ATOM      7  C   UNL     1       1.927   5.082  19.701  0.00  0.00    +0.000 A 
ATOM      8  C   UNL     1       1.137   4.447  20.673  0.00  0.00    +0.000 A 
ATOM      9  C   UNL     1       1.053   3.054  20.749  0.00  0.00    +0.000 A 
ATOM     10  C   UNL     1       1.747   2.260  19.843  0.00  0.00    +0.000 A 
ATOM     11  C   UNL     1       2.513   2.851  18.832  0.00  0.00    +0.000 A 
ATOM     12  C   UNL     1       2.584   4.256  18.763  0.00  0.00    +0.000 A 
BRANCH  11  13
ATOM     13  C   UNL     1       3.275   2.004  17.840  0.00  0.00    +0.000 C 
ATOM     14  F   UNL     1       2.526   1.599  16.778  0.00  0.00    +0.000 F 
ATOM     15  F   UNL     1       4.347   2.658  17.318  0.00  0.00    +0.000 F 
ATOM     16  F   UNL     1       3.769   0.867  18.405  0.00  0.00    +0.000 F 
ENDBRANCH  11  13
ENDBRANCH   4   7
BRANCH   1  17
ATOM     17  S   UNL     1       0.950  11.060  19.468  0.00  0.00    +0.000 S 
ATOM     18  O   UNL     1       1.780  11.582  18.396  0.00  0.00    +0.000 OA
ATOM     19  O   UNL     1       1.082  11.562  20.819  0.00  0.00    +0.000 OA
BRANCH  17  22
ATOM     20  C   UNL     1      -2.651  10.603  17.625  0.00  0.00    +0.000 A 
ATOM     21  C   UNL     1      -1.275  10.558  17.916  0.00  0.00    +0.000 A 
ATOM     22  C   UNL     1      -0.746  11.312  18.963  0.00  0.00    +0.000 A 
ATOM     23  C   UNL     1      -1.571  12.155  19.708  0.00  0.00    +0.000 A 
ATOM     24  C   UNL     1      -2.929  12.239  19.400  0.00  0.00    +0.000 A 
ATOM     25  C   UNL     1      -3.491  11.455  18.370  0.00  0.00    +0.000 A 
BRANCH  25  26
ATOM     26  N   UNL     1      -4.902  11.529  18.182  0.00  0.00    +0.000 N 
ATOM     27  C   UNL     1      -5.680  12.352  17.408  0.00  0.00    +0.000 A 
ATOM     28  N   UNL     1      -6.944  12.006  17.516  0.00  0.00    +0.000 NA
ATOM     29  N   UNL     1      -6.964  10.948  18.381  0.00  0.00    +0.000 NA
ATOM     30  N   UNL     1      -5.745  10.657  18.802  0.00  0.00    +0.000 NA
ENDBRANCH  25  26
BRANCH  20  32
ATOM     31  C   UNL     1      -2.859  10.250  15.289  0.00  0.00    +0.000 C 
ATOM     32  O   UNL     1      -3.187   9.844  16.620  0.00  0.00    +0.000 OA
ENDBRANCH  20  32
ENDBRANCH  17  22
ENDBRANCH   1  17
BRANCH   4  33
ATOM     33  O   UNL     1       3.516   6.903  19.963  0.00  0.00    +0.000 OA
ATOM     34  H   UNL     1       3.941   7.230  19.154  0.00  0.00    +0.000 HD
ENDBRANCH   4  33
TORSDOF 7
ENDMDL
MODEL 2
REMARK VINA RESULT:      -8.3      4.406      6.751
REMARK  Name = 
REMARK  8 active torsions:
REMARK  status: ('A' for Active; 'I' for Inactive)
REMARK    1  A    between atoms: C_1  and  O_2
REMARK    2  A    between atoms: O_2  and  C_3
REMARK    3  A    between atoms: C_5  and  S_6
REMARK    4  A    between atoms: S_6  and  N_9
REMARK    5  A    between atoms: C_12  and  O_13
REMARK    6  A    between atoms: C_12  and  C_14
REMARK    7  A    between atoms: C_18  and  C_19
REMARK    8  A    between atoms: C_28  and  N_29
REMARK                            x       y       z     vdW  Elec       q    Type
REMARK                         _______ _______ _______ _____ _____    ______ ____
ROOT
ATOM      1  N   UNL     1       3.798   5.181  17.916  0.00  0.00    +0.000 NA
ATOM      2  C   UNL     1       4.036   3.776  17.519  0.00  0.00    +0.000 C 
ATOM      3  C   UNL     1       4.649   3.684  16.130  0.00  0.00    +0.000 C 
ATOM      4  C   UNL     1       5.924   4.537  15.991  0.00  0.00    +0.000 C 
ATOM      5  C   UNL     1       5.584   5.977  16.418  0.00  0.00    +0.000 C 
ATOM      6  C   UNL     1       4.992   6.049  17.821  0.00  0.00    +0.000 C 
ENDROOT
BRANCH   4   7
ATOM      7  C   UNL     1       6.468   4.414  14.557  0.00  0.00    +0.000 A 
ATOM      8  C   UNL     1       7.386   5.334  14.023  0.00  0.00    +0.000 A 
ATOM      9  C   UNL     1       7.776   5.281  12.683  0.00  0.00    +0.000 A 
ATOM     10  C   UNL     1       7.268   4.294  11.844  0.00  0.00    +0.000 A 
ATOM     11  C   UNL     1       6.384   3.333  12.343  0.00  0.00    +0.000 A 
ATOM     12  C   UNL     1       6.003   3.394  13.698  0.00  0.00    +0.000 A 
BRANCH  11  13
ATOM     13  C   UNL     1       5.821   2.256  11.446  0.00  0.00    +0.000 C 
ATOM     14  F   UNL     1       5.600   1.074  12.084  0.00  0.00    +0.000 F 
ATOM     15  F   UNL     1       4.631   2.614  10.892  0.00  0.00    +0.000 F 
ATOM     16  F   UNL     1       6.648   1.970  10.403  0.00  0.00    +0.000 F 
ENDBRANCH  11  13
ENDBRANCH   4   7
BRANCH   1  17
ATOM     17  S   UNL     1       2.822   5.391  19.300  0.00  0.00    +0.000 S 
ATOM     18  O   UNL     1       3.709   5.444  20.449  0.00  0.00    +0.000 OA
ATOM     19  O   UNL     1       1.726   4.447  19.255  0.00  0.00    +0.000 OA
BRANCH  17  22
ATOM     20  C   UNL     1       1.290   9.064  20.155  0.00  0.00    +0.000 A 
ATOM     21  C   UNL     1       1.663   7.710  20.243  0.00  0.00    +0.000 A 
ATOM     22  C   UNL     1       2.130   7.029  19.119  0.00  0.00    +0.000 A 
ATOM     23  C   UNL     1       2.191   7.672  17.883  0.00  0.00    +0.000 A 
ATOM     24  C   UNL     1       1.784   9.002  17.776  0.00  0.00    +0.000 A 
ATOM     25  C   UNL     1       1.345   9.721  18.909  0.00  0.00    +0.000 A 
BRANCH  25  26
ATOM     26  N   UNL     1       1.037  11.101  18.733  0.00  0.00    +0.000 N 
ATOM     27  C   UNL     1      -0.152  11.784  18.767  0.00  0.00    +0.000 A 
ATOM     28  N   UNL     1       0.066  13.071  18.603  0.00  0.00    +0.000 NA
ATOM     29  N   UNL     1       1.418  13.200  18.458  0.00  0.00    +0.000 NA
ATOM     30  N   UNL     1       2.016  12.023  18.520  0.00  0.00    +0.000 NA
ENDBRANCH  25  26
BRANCH  20  32
ATOM     31  C   UNL     1      -0.214   9.152  21.988  0.00  0.00    +0.000 C 
ATOM     32  O   UNL     1       0.859   9.752  21.257  0.00  0.00    +0.000 OA
ENDBRANCH  20  32
ENDBRANCH  17  22
ENDBRANCH   1  17
BRANCH   4  33
ATOM     33  O   UNL     1       6.899   4.042  16.920  0.00  0.00    +0.000 OA
ATOM     34  H   UNL     1       7.655   4.652  16.943  0.00  0.00    +0.000 HD
ENDBRANCH   4  33
TORSDOF 7
ENDMDL
MODEL 3
REMARK VINA RESULT:      -8.1      4.263      6.579
REMARK  Name = 
REMARK  8 active torsions:
REMARK  status: ('A' for Active; 'I' for Inactive)
REMARK    1  A    between atoms: C_1  and  O_2
REMARK    2  A    between atoms: O_2  and  C_3
REMARK    3  A    between atoms: C_5  and  S_6
REMARK    4  A    between atoms: S_6  and  N_9
REMARK    5  A    between atoms: C_12  and  O_13
REMARK    6  A    between atoms: C_12  and  C_14
REMARK    7  A    between atoms: C_18  and  C_19
REMARK    8  A    between atoms: C_28  and  N_29
REMARK                            x       y       z     vdW  Elec       q    Type
REMARK                         _______ _______ _______ _____ _____    ______ ____
ROOT
ATOM      1  N   UNL     1       3.598   5.361  18.079  0.00  0.00    +0.000 NA
ATOM      2  C   UNL     1       3.828   3.937  17.754  0.00  0.00    +0.000 C 
ATOM      3  C   UNL     1       4.366   3.765  16.342  0.00  0.00    +0.000 C 
ATOM      4  C   UNL     1       5.624   4.616  16.083  0.00  0.00    +0.000 C 
ATOM      5  C   UNL     1       5.293   6.077  16.441  0.00  0.00    +0.000 C 
ATOM      6  C   UNL     1       4.776   6.229  17.867  0.00  0.00    +0.000 C 
ENDROOT
BRANCH   4   7
ATOM      7  C   UNL     1       6.091   4.410  14.632  0.00  0.00    +0.000 A 
ATOM      8  C   UNL     1       7.323   4.901  14.166  0.00  0.00    +0.000 A 
ATOM      9  C   UNL     1       7.679   4.814  12.818  0.00  0.00    +0.000 A 
ATOM     10  C   UNL     1       6.817   4.220  11.902  0.00  0.00    +0.000 A 
ATOM     11  C   UNL     1       5.599   3.681  12.330  0.00  0.00    +0.000 A 
ATOM     12  C   UNL     1       5.255   3.770  13.693  0.00  0.00    +0.000 A 
BRANCH  11  13
ATOM     13  C   UNL     1       4.650   3.034  11.349  0.00  0.00    +0.000 C 
ATOM     14  F   UNL     1       4.422   3.782  10.234  0.00  0.00    +0.000 F 
ATOM     15  F   UNL     1       5.103   1.829  10.908  0.00  0.00    +0.000 F 
ATOM     16  F   UNL     1       3.426   2.795  11.897  0.00  0.00    +0.000 F 
ENDBRANCH  11  13
ENDBRANCH   4   7
BRANCH   1  17
ATOM     17  S   UNL     1       2.695   5.648  19.499  0.00  0.00    +0.000 S 
ATOM     18  O   UNL     1       3.640   5.740  20.598  0.00  0.00    +0.000 OA
ATOM     19  O   UNL     1       1.587   4.719  19.551  0.00  0.00    +0.000 OA
BRANCH  17  22
ATOM     20  C   UNL     1       1.193   9.353  20.261  0.00  0.00    +0.000 A 
ATOM     21  C   UNL     1       1.556   8.000  20.383  0.00  0.00    +0.000 A 
ATOM     22  C   UNL     1       2.015   7.286  19.276  0.00  0.00    +0.000 A 
ATOM     23  C   UNL     1       2.078   7.896  18.024  0.00  0.00    +0.000 A 
ATOM     24  C   UNL     1       1.681   9.225  17.884  0.00  0.00    +0.000 A 
ATOM     25  C   UNL     1       1.250   9.977  18.999  0.00  0.00    +0.000 A 
BRANCH  25  26
ATOM     26  N   UNL     1       0.952  11.355  18.788  0.00  0.00    +0.000 N 
ATOM     27  C   UNL     1      -0.239  12.029  18.695  0.00  0.00    +0.000 A 
ATOM     28  N   UNL     1      -0.015  13.317  18.552  0.00  0.00    +0.000 NA
ATOM     29  N   UNL     1       1.344  13.456  18.549  0.00  0.00    +0.000 NA
ATOM     30  N   UNL     1       1.942  12.283  18.676  0.00  0.00    +0.000 NA
ENDBRANCH  25  26
BRANCH  20  32
ATOM     31  C   UNL     1       0.493   9.317  22.527  0.00  0.00    +0.000 C 
ATOM     32  O   UNL     1       0.771  10.073  21.346  0.00  0.00    +0.000 OA
ENDBRANCH  20  32
ENDBRANCH  17  22
ENDBRANCH   1  17
BRANCH   4  33
ATOM     33  O   UNL     1       6.652   4.184  16.987  0.00  0.00    +0.000 OA
ATOM     34  H   UNL     1       7.291   4.905  17.109  0.00  0.00    +0.000 HD
ENDBRANCH   4  33
TORSDOF 7
ENDMDL
MODEL 4
REMARK VINA RESULT:      -7.9      1.067      1.892
REMARK  Name = 
REMARK  8 active torsions:
REMARK  status: ('A' for Active; 'I' for Inactive)
REMARK    1  A    between atoms: C_1  and  O_2
REMARK    2  A    between atoms: O_2  and  C_3
REMARK    3  A    between atoms: C_5  and  S_6
REMARK    4  A    between atoms: S_6  and  N_9
REMARK    5  A    between atoms: C_12  and  O_13
REMARK    6  A    between atoms: C_12  and  C_14
REMARK    7  A    between atoms: C_18  and  C_19
REMARK    8  A    between atoms: C_28  and  N_29
REMARK                            x       y       z     vdW  Elec       q    Type
REMARK                         _______ _______ _______ _____ _____    ______ ____
ROOT
ATOM      1  N   UNL     1       1.042   9.269  19.532  0.00  0.00    +0.000 NA
ATOM      2  C   UNL     1       1.342   8.703  20.865  0.00  0.00    +0.000 C 
ATOM      3  C   UNL     1       1.268   7.184  20.857  0.00  0.00    +0.000 C 
ATOM      4  C   UNL     1       2.152   6.558  19.762  0.00  0.00    +0.000 C 
ATOM      5  C   UNL     1       1.770   7.198  18.415  0.00  0.00    +0.000 C 
ATOM      6  C   UNL     1       1.872   8.719  18.439  0.00  0.00    +0.000 C 
ENDROOT
BRANCH   4   7
ATOM      7  C   UNL     1       2.005   5.026  19.799  0.00  0.00    +0.000 A 
ATOM      8  C   UNL     1       1.312   4.366  20.828  0.00  0.00    +0.000 A 
ATOM      9  C   UNL     1       1.291   2.972  20.914  0.00  0.00    +0.000 A 
ATOM     10  C   UNL     1       1.951   2.200  19.963  0.00  0.00    +0.000 A 
ATOM     11  C   UNL     1       2.618   2.815  18.899  0.00  0.00    +0.000 A 
ATOM     12  C   UNL     1       2.627   4.222  18.820  0.00  0.00    +0.000 A 
BRANCH  11  13
ATOM     13  C   UNL     1       3.342   1.994  17.859  0.00  0.00    +0.000 C 
ATOM     14  F   UNL     1       3.855   0.828  18.341  0.00  0.00    +0.000 F 
ATOM     15  F   UNL     1       2.536   1.649  16.818  0.00  0.00    +0.000 F 
ATOM     16  F   UNL     1       4.392   2.666  17.310  0.00  0.00    +0.000 F 
ENDBRANCH  11  13
ENDBRANCH   4   7
BRANCH   1  17
ATOM     17  S   UNL     1       0.774  10.955  19.501  0.00  0.00    +0.000 S 
ATOM     18  O   UNL     1       1.401  11.468  18.295  0.00  0.00    +0.000 OA
ATOM     19  O   UNL     1       1.095  11.510  20.797  0.00  0.00    +0.000 OA
BRANCH  17  22
ATOM     20  C   UNL     1      -3.043  12.355  19.703  0.00  0.00    +0.000 A 
ATOM     21  C   UNL     1      -1.698  12.073  20.003  0.00  0.00    +0.000 A 
ATOM     22  C   UNL     1      -0.990  11.125  19.264  0.00  0.00    +0.000 A 
ATOM     23  C   UNL     1      -1.623  10.413  18.246  0.00  0.00    +0.000 A 
ATOM     24  C   UNL     1      -2.968  10.654  17.969  0.00  0.00    +0.000 A 
ATOM     25  C   UNL     1      -3.692  11.637  18.678  0.00  0.00    +0.000 A 
BRANCH  25  26
ATOM     26  N   UNL     1      -5.034  11.888  18.270  0.00  0.00    +0.000 N 
ATOM     27  C   UNL     1      -5.552  12.514  17.164  0.00  0.00    +0.000 A 
ATOM     28  N   UNL     1      -6.866  12.456  17.191  0.00  0.00    +0.000 NA
ATOM     29  N   UNL     1      -7.182  11.786  18.339  0.00  0.00    +0.000 NA
ATOM     30  N   UNL     1      -6.091  11.449  19.007  0.00  0.00    +0.000 NA
ENDBRANCH  25  26
BRANCH  20  32
ATOM     31  C   UNL     1      -4.146  12.937  21.721  0.00  0.00    +0.000 C 
ATOM     32  O   UNL     1      -3.740  13.305  20.400  0.00  0.00    +0.000 OA
ENDBRANCH  20  32
ENDBRANCH  17  22
ENDBRANCH   1  17
BRANCH   4  33
ATOM     33  O   UNL     1       3.517   6.916  20.026  0.00  0.00    +0.000 OA
ATOM     34  H   UNL     1       4.037   6.808  19.213  0.00  0.00    +0.000 HD
ENDBRANCH   4  33
TORSDOF 7
ENDMDL
MODEL 5
REMARK VINA RESULT:      -7.8      1.389      1.981
REMARK  Name = 
REMARK  8 active torsions:
REMARK  status: ('A' for Active; 'I' for Inactive)
REMARK    1  A    between atoms: C_1  and  O_2
REMARK    2  A    between atoms: O_2  and  C_3
REMARK    3  A    between atoms: C_5  and  S_6
REMARK    4  A    between atoms: S_6  and  N_9
REMARK    5  A    between atoms: C_12  and  O_13
REMARK    6  A    between atoms: C_12  and  C_14
REMARK    7  A    between atoms: C_18  and  C_19
REMARK    8  A    between atoms: C_28  and  N_29
REMARK                            x       y       z     vdW  Elec       q    Type
REMARK                         _______ _______ _______ _____ _____    ______ ____
ROOT
ATOM      1  N   UNL     1       1.303   9.548  19.364  0.00  0.00    +0.000 NA
ATOM      2  C   UNL     1       1.949   8.719  20.405  0.00  0.00    +0.000 C 
ATOM      3  C   UNL     1       2.055   7.264  19.975  0.00  0.00    +0.000 C 
ATOM      4  C   UNL     1       2.749   7.103  18.609  0.00  0.00    +0.000 C 
ATOM      5  C   UNL     1       2.012   7.992  17.591  0.00  0.00    +0.000 C 
ATOM      6  C   UNL     1       1.936   9.450  18.031  0.00  0.00    +0.000 C 
ENDROOT
BRANCH   4   7
ATOM      7  C   UNL     1       2.794   5.612  18.231  0.00  0.00    +0.000 A 
ATOM      8  C   UNL     1       3.600   5.129  17.186  0.00  0.00    +0.000 A 
ATOM      9  C   UNL     1       3.538   3.796  16.775  0.00  0.00    +0.000 A 
ATOM     10  C   UNL     1       2.679   2.905  17.410  0.00  0.00    +0.000 A 
ATOM     11  C   UNL     1       1.890   3.333  18.482  0.00  0.00    +0.000 A 
ATOM     12  C   UNL     1       1.965   4.679  18.891  0.00  0.00    +0.000 A 
BRANCH  11  13
ATOM     13  C   UNL     1       0.949   2.381  19.182  0.00  0.00    +0.000 C 
ATOM     14  F   UNL     1       0.312   2.929  20.253  0.00  0.00    +0.000 F 
ATOM     15  F   UNL     1      -0.029   1.920  18.357  0.00  0.00    +0.000 F 
ATOM     16  F   UNL     1       1.591   1.276  19.654  0.00  0.00    +0.000 F 
ENDBRANCH  11  13
ENDBRANCH   4   7
BRANCH   1  17
ATOM     17  S   UNL     1       0.837  11.112  19.865  0.00  0.00    +0.000 S 
ATOM     18  O   UNL     1       1.662  12.060  19.136  0.00  0.00    +0.000 OA
ATOM     19  O   UNL     1       0.769  11.147  21.309  0.00  0.00    +0.000 OA
BRANCH  17  22
ATOM     20  C   UNL     1      -2.664  10.446  17.899  0.00  0.00    +0.000 A 
ATOM     21  C   UNL     1      -1.306  10.433  18.266  0.00  0.00    +0.000 A 
ATOM     22  C   UNL     1      -0.827  11.306  19.242  0.00  0.00    +0.000 A 
ATOM     23  C   UNL     1      -1.682  12.235  19.835  0.00  0.00    +0.000 A 
ATOM     24  C   UNL     1      -3.021  12.285  19.447  0.00  0.00    +0.000 A 
ATOM     25  C   UNL     1      -3.535  11.384  18.490  0.00  0.00    +0.000 A 
BRANCH  25  26
ATOM     26  N   UNL     1      -4.933  11.439  18.218  0.00  0.00    +0.000 N 
ATOM     27  C   UNL     1      -6.000  10.783  18.779  0.00  0.00    +0.000 A 
ATOM     28  N   UNL     1      -7.121  11.204  18.233  0.00  0.00    +0.000 NA
ATOM     29  N   UNL     1      -6.752  12.138  17.307  0.00  0.00    +0.000 NA
ATOM     30  N   UNL     1      -5.438  12.281  17.275  0.00  0.00    +0.000 NA
ENDBRANCH  25  26
BRANCH  20  32
ATOM     31  C   UNL     1      -2.916   9.924  15.598  0.00  0.00    +0.000 C 
ATOM     32  O   UNL     1      -3.153   9.573  16.964  0.00  0.00    +0.000 OA
ENDBRANCH  20  32
ENDBRANCH  17  22
ENDBRANCH   1  17
BRANCH   4  33
ATOM     33  O   UNL     1       4.086   7.612  18.722  0.00  0.00    +0.000 OA
ATOM     34  H   UNL     1       4.160   8.136  19.537  0.00  0.00    +0.000 HD
ENDBRANCH   4  33
TORSDOF 7
ENDMDL
MODEL 6
REMARK VINA RESULT:      -7.7      4.321      6.278
REMARK  Name = 
REMARK  8 active torsions:
REMARK  status: ('A' for Active; 'I' for Inactive)
REMARK    1  A    between atoms: C_1  and  O_2
REMARK    2  A    between atoms: O_2  and  C_3
REMARK    3  A    between atoms: C_5  and  S_6
REMARK    4  A    between atoms: S_6  and  N_9
REMARK    5  A    between atoms: C_12  and  O_13
REMARK    6  A    between atoms: C_12  and  C_14
REMARK    7  A    between atoms: C_18  and  C_19
REMARK    8  A    between atoms: C_28  and  N_29
REMARK                            x       y       z     vdW  Elec       q    Type
REMARK                         _______ _______ _______ _____ _____    ______ ____
ROOT
ATOM      1  N   UNL     1       1.538   8.915  19.311  0.00  0.00    +0.000 NA
ATOM      2  C   UNL     1       1.729   8.680  17.863  0.00  0.00    +0.000 C 
ATOM      3  C   UNL     1       2.988   7.872  17.589  0.00  0.00    +0.000 C 
ATOM      4  C   UNL     1       3.028   6.556  18.387  0.00  0.00    +0.000 C 
ATOM      5  C   UNL     1       2.827   6.893  19.876  0.00  0.00    +0.000 C 
ATOM      6  C   UNL     1       1.549   7.684  20.131  0.00  0.00    +0.000 C 
ENDROOT
BRANCH   4   7
ATOM      7  C   UNL     1       4.338   5.810  18.079  0.00  0.00    +0.000 A 
ATOM      8  C   UNL     1       5.293   5.533  19.071  0.00  0.00    +0.000 A 
ATOM      9  C   UNL     1       6.530   4.966  18.754  0.00  0.00    +0.000 A 
ATOM     10  C   UNL     1       6.838   4.646  17.436  0.00  0.00    +0.000 A 
ATOM     11  C   UNL     1       5.900   4.865  16.422  0.00  0.00    +0.000 A 
ATOM     12  C   UNL     1       4.654   5.432  16.756  0.00  0.00    +0.000 A 
BRANCH  11  13
ATOM     13  C   UNL     1       6.217   4.526  14.985  0.00  0.00    +0.000 C 
ATOM     14  F   UNL     1       6.294   3.188  14.743  0.00  0.00    +0.000 F 
ATOM     15  F   UNL     1       5.286   5.012  14.121  0.00  0.00    +0.000 F 
ATOM     16  F   UNL     1       7.409   5.049  14.583  0.00  0.00    +0.000 F 
ENDBRANCH  11  13
ENDBRANCH   4   7
BRANCH   1  17
ATOM     17  S   UNL     1       0.353  10.077  19.710  0.00  0.00    +0.000 S 
ATOM     18  O   UNL     1       0.023   9.891  21.112  0.00  0.00    +0.000 OA
ATOM     19  O   UNL     1      -0.681  10.066  18.698  0.00  0.00    +0.000 OA
BRANCH  17  22
ATOM     20  C   UNL     1       2.121  13.606  20.703  0.00  0.00    +0.000 A 
ATOM     21  C   UNL     1       1.301  12.463  20.719  0.00  0.00    +0.000 A 
ATOM     22  C   UNL     1       1.203  11.645  19.593  0.00  0.00    +0.000 A 
ATOM     23  C   UNL     1       1.885  11.976  18.423  0.00  0.00    +0.000 A 
ATOM     24  C   UNL     1       2.667  13.130  18.383  0.00  0.00    +0.000 A 
ATOM     25  C   UNL     1       2.811  13.951  19.523  0.00  0.00    +0.000 A 
BRANCH  25  26
ATOM     26  N   UNL     1       3.702  15.059  19.428  0.00  0.00    +0.000 N 
ATOM     27  C   UNL     1       5.055  15.164  19.630  0.00  0.00    +0.000 A 
ATOM     28  N   UNL     1       5.453  16.390  19.367  0.00  0.00    +0.000 NA
ATOM     29  N   UNL     1       4.328  17.071  18.997  0.00  0.00    +0.000 NA
ATOM     30  N   UNL     1       3.263  16.288  19.043  0.00  0.00    +0.000 NA
ENDBRANCH  25  26
BRANCH  20  32
ATOM     31  C   UNL     1       1.110  15.195  22.145  0.00  0.00    +0.000 C 
ATOM     32  O   UNL     1       2.250  14.400  21.811  0.00  0.00    +0.000 OA
ENDBRANCH  20  32
ENDBRANCH  17  22
ENDBRANCH   1  17
BRANCH   4  33
ATOM     33  O   UNL     1       1.909   5.751  17.984  0.00  0.00    +0.000 OA
ATOM     34  H   UNL     1       1.420   5.468  18.774  0.00  0.00    +0.000 HD
ENDBRANCH   4  33
TORSDOF 7
ENDMDL
MODEL 7
REMARK VINA RESULT:      -7.5      4.188      5.782
REMARK  Name = 
REMARK  8 active torsions:
REMARK  status: ('A' for Active; 'I' for Inactive)
REMARK    1  A    between atoms: C_1  and  O_2
REMARK    2  A    between atoms: O_2  and  C_3
REMARK    3  A    between atoms: C_5  and  S_6
REMARK    4  A    between atoms: S_6  and  N_9
REMARK    5  A    between atoms: C_12  and  O_13
REMARK    6  A    between atoms: C_12  and  C_14
REMARK    7  A    between atoms: C_18  and  C_19
REMARK    8  A    between atoms: C_28  and  N_29
REMARK                            x       y       z     vdW  Elec       q    Type
REMARK                         _______ _______ _______ _____ _____    ______ ____
ROOT
ATOM      1  N   UNL     1      -0.472  10.885  21.338  0.00  0.00    +0.000 NA
ATOM      2  C   UNL     1      -0.648   9.665  22.155  0.00  0.00    +0.000 C 
ATOM      3  C   UNL     1      -0.129   8.430  21.435  0.00  0.00    +0.000 C 
ATOM      4  C   UNL     1       1.329   8.592  20.965  0.00  0.00    +0.000 C 
ATOM      5  C   UNL     1       1.419   9.877  20.122  0.00  0.00    +0.000 C 
ATOM      6  C   UNL     1       0.914  11.106  20.870  0.00  0.00    +0.000 C 
ENDROOT
BRANCH   4   7
ATOM      7  C   UNL     1       1.773   7.318  20.226  0.00  0.00    +0.000 A 
ATOM      8  C   UNL     1       2.228   7.344  18.897  0.00  0.00    +0.000 A 
ATOM      9  C   UNL     1       2.510   6.167  18.200  0.00  0.00    +0.000 A 
ATOM     10  C   UNL     1       2.359   4.931  18.820  0.00  0.00    +0.000 A 
ATOM     11  C   UNL     1       1.948   4.860  20.155  0.00  0.00    +0.000 A 
ATOM     12  C   UNL     1       1.672   6.055  20.849  0.00  0.00    +0.000 A 
BRANCH  11  13
ATOM     13  C   UNL     1       1.776   3.527  20.844  0.00  0.00    +0.000 C 
ATOM     14  F   UNL     1       2.063   3.558  22.175  0.00  0.00    +0.000 F 
ATOM     15  F   UNL     1       0.504   3.053  20.744  0.00  0.00    +0.000 F 
ATOM     16  F   UNL     1       2.576   2.563  20.310  0.00  0.00    +0.000 F 
ENDBRANCH  11  13
ENDBRANCH   4   7
BRANCH   1  17
ATOM     17  S   UNL     1      -1.308  12.264  21.898  0.00  0.00    +0.000 S 
ATOM     18  O   UNL     1      -0.918  12.470  23.282  0.00  0.00    +0.000 OA
ATOM     19  O   UNL     1      -2.702  12.155  21.530  0.00  0.00    +0.000 OA
BRANCH  17  22
ATOM     20  C   UNL     1       1.010  15.431  20.818  0.00  0.00    +0.000 A 
ATOM     21  C   UNL     1       0.309  14.476  21.577  0.00  0.00    +0.000 A 
ATOM     22  C   UNL     1      -0.609  13.622  20.968  0.00  0.00    +0.000 A 
ATOM     23  C   UNL     1      -0.876  13.734  19.604  0.00  0.00    +0.000 A 
ATOM     24  C   UNL     1      -0.217  14.705  18.851  0.00  0.00    +0.000 A 
ATOM     25  C   UNL     1       0.745  15.554  19.439  0.00  0.00    +0.000 A 
BRANCH  25  26
ATOM     26  N   UNL     1       1.440  16.455  18.582  0.00  0.00    +0.000 N 
ATOM     27  C   UNL     1       2.669  16.377  17.977  0.00  0.00    +0.000 A 
ATOM     28  N   UNL     1       2.865  17.437  17.223  0.00  0.00    +0.000 NA
ATOM     29  N   UNL     1       1.741  18.201  17.361  0.00  0.00    +0.000 NA
ATOM     30  N   UNL     1       0.879  17.631  18.187  0.00  0.00    +0.000 NA
ENDBRANCH  25  26
BRANCH  20  32
ATOM     31  C   UNL     1       1.413  17.362  22.136  0.00  0.00    +0.000 C 
ATOM     32  O   UNL     1       1.937  16.254  21.399  0.00  0.00    +0.000 OA
ENDBRANCH  20  32
ENDBRANCH  17  22
ENDBRANCH   1  17
BRANCH   4  33
ATOM     33  O   UNL     1       2.155   8.790  22.122  0.00  0.00    +0.000 OA
ATOM     34  H   UNL     1       2.650   9.619  22.022  0.00  0.00    +0.000 HD
ENDBRANCH   4  33
TORSDOF 7
ENDMDL
MODEL 8
REMARK VINA RESULT:      -7.5      1.508      1.923
REMARK  Name = 
REMARK  8 active torsions:
REMARK  status: ('A' for Active; 'I' for Inactive)
REMARK    1  A    between atoms: C_1  and  O_2
REMARK    2  A    between atoms: O_2  and  C_3
REMARK    3  A    between atoms: C_5  and  S_6
REMARK    4  A    between atoms: S_6  and  N_9
REMARK    5  A    between atoms: C_12  and  O_13
REMARK    6  A    between atoms: C_12  and  C_14
REMARK    7  A    between atoms: C_18  and  C_19
REMARK    8  A    between atoms: C_28  and  N_29
REMARK                            x       y       z     vdW  Elec       q    Type
REMARK                         _______ _______ _______ _____ _____    ______ ____
ROOT
ATOM      1  N   UNL     1       1.100   9.868  19.185  0.00  0.00    +0.000 NA
ATOM      2  C   UNL     1       1.763   9.247  20.352  0.00  0.00    +0.000 C 
ATOM      3  C   UNL     1       1.726   7.729  20.275  0.00  0.00    +0.000 C 
ATOM      4  C   UNL     1       2.295   7.193  18.948  0.00  0.00    +0.000 C 
ATOM      5  C   UNL     1       1.548   7.885  17.793  0.00  0.00    +0.000 C 
ATOM      6  C   UNL     1       1.616   9.406  17.878  0.00  0.00    +0.000 C 
ENDROOT
BRANCH   4   7
ATOM      7  C   UNL     1       2.199   5.657  18.933  0.00  0.00    +0.000 A 
ATOM      8  C   UNL     1       1.849   4.941  17.776  0.00  0.00    +0.000 A 
ATOM      9  C   UNL     1       1.646   3.559  17.809  0.00  0.00    +0.000 A 
ATOM     10  C   UNL     1       1.804   2.855  18.998  0.00  0.00    +0.000 A 
ATOM     11  C   UNL     1       2.193   3.522  20.164  0.00  0.00    +0.000 A 
ATOM     12  C   UNL     1       2.400   4.915  20.116  0.00  0.00    +0.000 A 
BRANCH  11  13
ATOM     13  C   UNL     1       2.368   2.774  21.464  0.00  0.00    +0.000 C 
ATOM     14  F   UNL     1       3.537   2.081  21.544  0.00  0.00    +0.000 F 
ATOM     15  F   UNL     1       2.346   3.602  22.544  0.00  0.00    +0.000 F 
ATOM     16  F   UNL     1       1.376   1.864  21.672  0.00  0.00    +0.000 F 
ENDBRANCH  11  13
ENDBRANCH   4   7
BRANCH   1  17
ATOM     17  S   UNL     1       0.793  11.541  19.326  0.00  0.00    +0.000 S 
ATOM     18  O   UNL     1       1.523  12.204  18.259  0.00  0.00    +0.000 OA
ATOM     19  O   UNL     1       0.971  11.941  20.705  0.00  0.00    +0.000 OA
BRANCH  17  22
ATOM     20  C   UNL     1      -2.863  11.011  17.618  0.00  0.00    +0.000 A 
ATOM     21  C   UNL     1      -1.474  11.042  17.835  0.00  0.00    +0.000 A 
ATOM     22  C   UNL     1      -0.943  11.715  18.935  0.00  0.00    +0.000 A 
ATOM     23  C   UNL     1      -1.782  12.403  19.810  0.00  0.00    +0.000 A 
ATOM     24  C   UNL     1      -3.158  12.414  19.580  0.00  0.00    +0.000 A 
ATOM     25  C   UNL     1      -3.720  11.707  18.495  0.00  0.00    +0.000 A 
BRANCH  25  26
ATOM     26  N   UNL     1      -5.140  11.691  18.385  0.00  0.00    +0.000 N 
ATOM     27  C   UNL     1      -6.019  12.537  17.755  0.00  0.00    +0.000 A 
ATOM     28  N   UNL     1      -7.246  12.081  17.880  0.00  0.00    +0.000 NA
ATOM     29  N   UNL     1      -7.140  10.930  18.607  0.00  0.00    +0.000 NA
ATOM     30  N   UNL     1      -5.881  10.688  18.931  0.00  0.00    +0.000 NA
ENDBRANCH  25  26
BRANCH  20  32
ATOM     31  C   UNL     1      -2.725  10.488  15.308  0.00  0.00    +0.000 C 
ATOM     32  O   UNL     1      -3.400  10.329  16.559  0.00  0.00    +0.000 OA
ENDBRANCH  20  32
ENDBRANCH  17  22
ENDBRANCH   1  17
BRANCH   4  33
ATOM     33  O   UNL     1       3.671   7.591  18.856  0.00  0.00    +0.000 OA
ATOM     34  H   UNL     1       4.210   7.003  19.410  0.00  0.00    +0.000 HD
ENDBRANCH   4  33
TORSDOF 7
ENDMDL
MODEL 9
REMARK VINA RESULT:      -7.4      4.262      6.314
REMARK  Name = 
REMARK  8 active torsions:
REMARK  status: ('A' for Active; 'I' for Inactive)
REMARK    1  A    between atoms: C_1  and  O_2
REMARK    2  A    between atoms: O_2  and  C_3
REMARK    3  A    between atoms: C_5  and  S_6
REMARK    4  A    between atoms: S_6  and  N_9
REMARK    5  A    between atoms: C_12  and  O_13
REMARK    6  A    between atoms: C_12  and  C_14
REMARK    7  A    between atoms: C_18  and  C_19
REMARK    8  A    between atoms: C_28  and  N_29
REMARK                            x       y       z     vdW  Elec       q    Type
REMARK                         _______ _______ _______ _____ _____    ______ ____
ROOT
ATOM      1  N   UNL     1       3.010   4.977  19.230  0.00  0.00    +0.000 NA
ATOM      2  C   UNL     1       2.443   4.404  17.990  0.00  0.00    +0.000 C 
ATOM      3  C   UNL     1       3.417   4.516  16.826  0.00  0.00    +0.000 C 
ATOM      4  C   UNL     1       4.795   3.912  17.152  0.00  0.00    +0.000 C 
ATOM      5  C   UNL     1       5.310   4.566  18.448  0.00  0.00    +0.000 C 
ATOM      6  C   UNL     1       4.329   4.423  19.606  0.00  0.00    +0.000 C 
ENDROOT
BRANCH   4   7
ATOM      7  C   UNL     1       5.730   4.086  15.942  0.00  0.00    +0.000 A 
ATOM      8  C   UNL     1       6.944   4.788  16.028  0.00  0.00    +0.000 A 
ATOM      9  C   UNL     1       7.720   5.043  14.895  0.00  0.00    +0.000 A 
ATOM     10  C   UNL     1       7.309   4.590  13.647  0.00  0.00    +0.000 A 
ATOM     11  C   UNL     1       6.128   3.851  13.521  0.00  0.00    +0.000 A 
ATOM     12  C   UNL     1       5.357   3.595  14.671  0.00  0.00    +0.000 A 
BRANCH  11  13
ATOM     13  C   UNL     1       5.665   3.352  12.172  0.00  0.00    +0.000 C 
ATOM     14  F   UNL     1       5.812   2.009  12.007  0.00  0.00    +0.000 F 
ATOM     15  F   UNL     1       4.350   3.618  11.946  0.00  0.00    +0.000 F 
ATOM     16  F   UNL     1       6.346   3.933  11.146  0.00  0.00    +0.000 F 
ENDBRANCH  11  13
ENDBRANCH   4   7
BRANCH   1  17
ATOM     17  S   UNL     1       1.896   5.203  20.503  0.00  0.00    +0.000 S 
ATOM     18  O   UNL     1       2.643   5.132  21.747  0.00  0.00    +0.000 OA
ATOM     19  O   UNL     1       0.745   4.355  20.281  0.00  0.00    +0.000 OA
BRANCH  17  22
ATOM     20  C   UNL     1       0.228   8.833  21.284  0.00  0.00    +0.000 A 
ATOM     21  C   UNL     1       0.513   7.455  21.294  0.00  0.00    +0.000 A 
ATOM     22  C   UNL     1       1.356   6.898  20.333  0.00  0.00    +0.000 A 
ATOM     23  C   UNL     1       1.892   7.696  19.322  0.00  0.00    +0.000 A 
ATOM     24  C   UNL     1       1.581   9.055  19.278  0.00  0.00    +0.000 A 
ATOM     25  C   UNL     1       0.762   9.646  20.264  0.00  0.00    +0.000 A 
BRANCH  25  26
ATOM     26  N   UNL     1       0.571  11.057  20.201  0.00  0.00    +0.000 N 
ATOM     27  C   UNL     1       1.232  12.097  20.803  0.00  0.00    +0.000 A 
ATOM     28  N   UNL     1       0.728  13.243  20.397  0.00  0.00    +0.000 NA
ATOM     29  N   UNL     1      -0.273  12.917  19.526  0.00  0.00    +0.000 NA
ATOM     30  N   UNL     1      -0.391  11.605  19.408  0.00  0.00    +0.000 NA
ENDBRANCH  25  26
BRANCH  20  32
ATOM     31  C   UNL     1       0.005   9.525  23.542  0.00  0.00    +0.000 C 
ATOM     32  O   UNL     1      -0.573   9.397  22.241  0.00  0.00    +0.000 OA
ENDBRANCH  20  32
ENDBRANCH  17  22
ENDBRANCH   1  17
BRANCH   4  33
ATOM     33  O   UNL     1       4.620   2.514  17.427  0.00  0.00    +0.000 OA
ATOM     34  H   UNL     1       4.380   2.056  16.605  0.00  0.00    +0.000 HD
ENDBRANCH   4  33
TORSDOF 7
ENDMDL
