MODEL 1
REMARK VINA RESULT:      -7.2      0.000      0.000
REMARK  Name = 
REMARK  7 active torsions:
REMARK  status: ('A' for Active; 'I' for Inactive)
REMARK    1  A    between atoms: C_1  and  O_2
REMARK    2  A    between atoms: O_2  and  C_3
REMARK    3  A    between atoms: C_6  and  C_7
REMARK    4  A    between atoms: C_8  and  C_9
REMARK    5  A    between atoms: C_11  and  N_12
REMARK    6  A    between atoms: C_13  and  C_15
REMARK    7  A    between atoms: C_15  and  N_16
REMARK                            x       y       z     vdW  Elec       q    Type
REMARK                         _______ _______ _______ _____ _____    ______ ____
ROOT
ATOM      1  C   UNL     1       0.248  11.341  19.164  0.00  0.00    +0.000 C 
ATOM      2  C   UNL     1      -1.249  11.205  19.450  0.00  0.00    +0.000 C 
ATOM      3  C   UNL     1      -1.811  12.083  20.298  0.00  0.00    +0.000 C 
ATOM      4  O   UNL     1      -1.105  12.722  21.289  0.00  0.00    +0.000 OA
ATOM      5  C   UNL     1       0.182  13.096  20.965  0.00  0.00    +0.000 A 
ATOM      6  C   UNL     1       0.894  12.445  20.020  0.00  0.00    +0.000 A 
ATOM      7  C   UNL     1       2.158  13.060  19.563  0.00  0.00    +0.000 A 
ATOM      8  O   UNL     1       2.766  12.630  18.591  0.00  0.00    +0.000 OA
ATOM      9  O   UNL     1       2.632  14.172  20.275  0.00  0.00    +0.000 OA
ATOM     10  C   UNL     1       1.857  14.852  21.241  0.00  0.00    +0.000 A 
ATOM     11  C   UNL     1       2.353  16.037  21.783  0.00  0.00    +0.000 A 
ATOM     12  C   UNL     1       1.560  16.768  22.670  0.00  0.00    +0.000 A 
ATOM     13  C   UNL     1       0.277  16.327  22.984  0.00  0.00    +0.000 A 
ATOM     14  C   UNL     1      -0.199  15.128  22.437  0.00  0.00    +0.000 A 
ATOM     15  C   UNL     1       0.608  14.357  21.582  0.00  0.00    +0.000 A 
ENDROOT
BRANCH   1  19
ATOM     16  C   UNL     1       2.399   7.561  19.005  0.00  0.00    +0.000 A 
ATOM     17  C   UNL     1       1.770   7.998  20.160  0.00  0.00    +0.000 A 
ATOM     18  C   UNL     1       0.996   9.157  20.139  0.00  0.00    +0.000 A 
ATOM     19  C   UNL     1       0.869   9.955  18.974  0.00  0.00    +0.000 A 
ATOM     20  C   UNL     1       1.505   9.510  17.816  0.00  0.00    +0.000 A 
ATOM     21  C   UNL     1       2.257   8.308  17.830  0.00  0.00    +0.000 A 
BRANCH  16  23
ATOM     22  C   UNL     1       2.504   5.294  19.693  0.00  0.00    +0.000 C 
ATOM     23  O   UNL     1       3.161   6.438  19.170  0.00  0.00    +0.000 OA
ENDBRANCH  16  23
ENDBRANCH   1  19
BRANCH   3  24
ATOM     24  N   UNL     1      -2.868  12.859  19.877  0.00  0.00    +0.000 N 
ATOM     25  C   UNL     1      -4.049  12.806  20.663  0.00  0.00    +0.000 C 
ATOM     26  O   UNL     1      -4.111  12.317  21.787  0.00  0.00    +0.000 OA
ATOM     27  H   UNL     1      -3.047  12.803  18.881  0.00  0.00    +0.000 HD
BRANCH  25  28
ATOM     28  C   UNL     1      -5.248  13.374  19.958  0.00  0.00    +0.000 C 
BRANCH  28  29
ATOM     29  N   UNL     1      -6.267  12.351  19.661  0.00  0.00    +0.000 NA
ATOM     30  C   UNL     1      -5.800  11.528  18.528  0.00  0.00    +0.000 C 
ATOM     31  C   UNL     1      -5.776  12.316  17.204  0.00  0.00    +0.000 C 
ATOM     32  O   UNL     1      -7.062  12.866  16.892  0.00  0.00    +0.000 OA
ATOM     33  C   UNL     1      -7.600  13.655  17.964  0.00  0.00    +0.000 C 
ATOM     34  C   UNL     1      -7.597  12.891  19.297  0.00  0.00    +0.000 C 
ENDBRANCH  28  29
ENDBRANCH  25  28
ENDBRANCH   3  24
BRANCH   2  35
ATOM     35  C   UNL     1      -2.100  10.457  18.577  0.00  0.00    +0.000 C 
ATOM     36  N   UNL     1      -2.741   9.870  17.807  0.00  0.00    +0.000 NA
ENDBRANCH   2  35
TORSDOF 6
ENDMDL
MODEL 2
REMARK VINA RESULT:      -6.7      1.045      1.325
REMARK  Name = 
REMARK  7 active torsions:
REMARK  status: ('A' for Active; 'I' for Inactive)
REMARK    1  A    between atoms: C_1  and  O_2
REMARK    2  A    between atoms: O_2  and  C_3
REMARK    3  A    between atoms: C_6  and  C_7
REMARK    4  A    between atoms: C_8  and  C_9
REMARK    5  A    between atoms: C_11  and  N_12
REMARK    6  A    between atoms: C_13  and  C_15
REMARK    7  A    between atoms: C_15  and  N_16
REMARK                            x       y       z     vdW  Elec       q    Type
REMARK                         _______ _______ _______ _____ _____    ______ ____
ROOT
ATOM      1  C   UNL     1       0.190  11.248  18.927  0.00  0.00    +0.000 C 
ATOM      2  C   UNL     1      -1.308  11.145  19.220  0.00  0.00    +0.000 C 
ATOM      3  C   UNL     1      -1.872  12.113  19.964  0.00  0.00    +0.000 C 
ATOM      4  O   UNL     1      -1.168  12.857  20.880  0.00  0.00    +0.000 OA
ATOM      5  C   UNL     1       0.120  13.191  20.521  0.00  0.00    +0.000 A 
ATOM      6  C   UNL     1       0.834  12.438  19.657  0.00  0.00    +0.000 A 
ATOM      7  C   UNL     1       2.101  12.998  19.139  0.00  0.00    +0.000 A 
ATOM      8  O   UNL     1       2.712  12.462  18.223  0.00  0.00    +0.000 OA
ATOM      9  O   UNL     1       2.574  14.182  19.725  0.00  0.00    +0.000 OA
ATOM     10  C   UNL     1       1.797  14.966  20.606  0.00  0.00    +0.000 A 
ATOM     11  C   UNL     1       2.293  16.203  21.016  0.00  0.00    +0.000 A 
ATOM     12  C   UNL     1       1.498  17.029  21.814  0.00  0.00    +0.000 A 
ATOM     13  C   UNL     1       0.213  16.626  22.169  0.00  0.00    +0.000 A 
ATOM     14  C   UNL     1      -0.263  15.375  21.758  0.00  0.00    +0.000 A 
ATOM     15  C   UNL     1       0.546  14.513  20.996  0.00  0.00    +0.000 A 
ENDROOT
BRANCH   1  19
ATOM     16  C   UNL     1       2.336   7.470  19.198  0.00  0.00    +0.000 A 
ATOM     17  C   UNL     1       1.699   8.032  20.294  0.00  0.00    +0.000 A 
ATOM     18  C   UNL     1       0.927   9.183  20.140  0.00  0.00    +0.000 A 
ATOM     19  C   UNL     1       0.810   9.849  18.894  0.00  0.00    +0.000 A 
ATOM     20  C   UNL     1       1.454   9.278  17.797  0.00  0.00    +0.000 A 
ATOM     21  C   UNL     1       2.203   8.085  17.947  0.00  0.00    +0.000 A 
BRANCH  16  23
ATOM     22  C   UNL     1       3.138   5.347  18.508  0.00  0.00    +0.000 C 
ATOM     23  O   UNL     1       3.094   6.372  19.490  0.00  0.00    +0.000 OA
ENDBRANCH  16  23
ENDBRANCH   1  19
BRANCH   3  24
ATOM     24  N   UNL     1      -2.926  12.838  19.456  0.00  0.00    +0.000 N 
ATOM     25  C   UNL     1      -4.136  12.805  20.196  0.00  0.00    +0.000 C 
ATOM     26  O   UNL     1      -4.235  12.383  21.344  0.00  0.00    +0.000 OA
ATOM     27  H   UNL     1      -3.063  12.719  18.458  0.00  0.00    +0.000 HD
BRANCH  25  28
ATOM     28  C   UNL     1      -5.317  13.303  19.411  0.00  0.00    +0.000 C 
BRANCH  28  29
ATOM     29  N   UNL     1      -6.259  14.079  20.237  0.00  0.00    +0.000 NA
ATOM     30  C   UNL     1      -7.635  13.800  19.779  0.00  0.00    +0.000 C 
ATOM     31  C   UNL     1      -7.916  14.383  18.381  0.00  0.00    +0.000 C 
ATOM     32  O   UNL     1      -7.680  15.796  18.339  0.00  0.00    +0.000 OA
ATOM     33  C   UNL     1      -6.369  16.152  18.804  0.00  0.00    +0.000 C 
ATOM     34  C   UNL     1      -6.065  15.547  20.183  0.00  0.00    +0.000 C 
ENDBRANCH  28  29
ENDBRANCH  25  28
ENDBRANCH   3  24
BRANCH   2  35
ATOM     35  C   UNL     1      -2.157  10.306  18.433  0.00  0.00    +0.000 C 
ATOM     36  N   UNL     1      -2.801   9.646  17.729  0.00  0.00    +0.000 NA
ENDBRANCH   2  35
TORSDOF 6
ENDMDL
MODEL 3
REMARK VINA RESULT:      -6.7      2.901      7.690
REMARK  Name = 
REMARK  7 active torsions:
REMARK  status: ('A' for Active; 'I' for Inactive)
REMARK    1  A    between atoms: C_1  and  O_2
REMARK    2  A    between atoms: O_2  and  C_3
REMARK    3  A    between atoms: C_6  and  C_7
REMARK    4  A    between atoms: C_8  and  C_9
REMARK    5  A    between atoms: C_11  and  N_12
REMARK    6  A    between atoms: C_13  and  C_15
REMARK    7  A    between atoms: C_15  and  N_16
REMARK                            x       y       z     vdW  Elec       q    Type
REMARK                         _______ _______ _______ _____ _____    ______ ____
ROOT
ATOM      1  C   UNL     1      -0.272  11.898  21.539  0.00  0.00    +0.000 C 
ATOM      2  C   UNL     1      -0.093  10.588  20.770  0.00  0.00    +0.000 C 
ATOM      3  C   UNL     1       0.766  10.578  19.734  0.00  0.00    +0.000 C 
ATOM      4  O   UNL     1       1.076  11.703  19.010  0.00  0.00    +0.000 OA
ATOM      5  C   UNL     1       1.179  12.874  19.731  0.00  0.00    +0.000 A 
ATOM      6  C   UNL     1       0.518  13.051  20.895  0.00  0.00    +0.000 A 
ATOM      7  C   UNL     1       0.878  14.224  21.721  0.00  0.00    +0.000 A 
ATOM      8  O   UNL     1       0.457  14.357  22.864  0.00  0.00    +0.000 OA
ATOM      9  O   UNL     1       1.737  15.177  21.154  0.00  0.00    +0.000 OA
ATOM     10  C   UNL     1       2.437  14.957  19.947  0.00  0.00    +0.000 A 
ATOM     11  C   UNL     1       3.385  15.896  19.543  0.00  0.00    +0.000 A 
ATOM     12  C   UNL     1       4.150  15.648  18.401  0.00  0.00    +0.000 A 
ATOM     13  C   UNL     1       3.982  14.460  17.694  0.00  0.00    +0.000 A 
ATOM     14  C   UNL     1       3.017  13.533  18.110  0.00  0.00    +0.000 A 
ATOM     15  C   UNL     1       2.206  13.794  19.229  0.00  0.00    +0.000 A 
ENDROOT
BRANCH   1  19
ATOM     16  C   UNL     1      -4.359  12.827  22.714  0.00  0.00    +0.000 A 
ATOM     17  C   UNL     1      -3.931  12.937  21.400  0.00  0.00    +0.000 A 
ATOM     18  C   UNL     1      -2.648  12.522  21.045  0.00  0.00    +0.000 A 
ATOM     19  C   UNL     1      -1.725  12.034  22.003  0.00  0.00    +0.000 A 
ATOM     20  C   UNL     1      -2.162  11.926  23.322  0.00  0.00    +0.000 A 
ATOM     21  C   UNL     1      -3.480  12.309  23.673  0.00  0.00    +0.000 A 
BRANCH  16  23
ATOM     22  C   UNL     1      -6.331  12.749  24.030  0.00  0.00    +0.000 C 
ATOM     23  O   UNL     1      -5.618  13.308  22.937  0.00  0.00    +0.000 OA
ENDBRANCH  16  23
ENDBRANCH   1  19
BRANCH   3  24
ATOM     24  N   UNL     1       1.819   9.691  19.729  0.00  0.00    +0.000 N 
ATOM     25  C   UNL     1       1.841   8.737  18.678  0.00  0.00    +0.000 C 
ATOM     26  O   UNL     1       1.140   8.797  17.673  0.00  0.00    +0.000 OA
ATOM     27  H   UNL     1       2.023   9.291  20.638  0.00  0.00    +0.000 HD
BRANCH  25  28
ATOM     28  C   UNL     1       2.789   7.600  18.939  0.00  0.00    +0.000 C 
BRANCH  28  29
ATOM     29  N   UNL     1       2.908   6.687  17.789  0.00  0.00    +0.000 NA
ATOM     30  C   UNL     1       2.330   5.379  18.158  0.00  0.00    +0.000 C 
ATOM     31  C   UNL     1       3.178   4.641  19.211  0.00  0.00    +0.000 C 
ATOM     32  O   UNL     1       4.528   4.454  18.769  0.00  0.00    +0.000 OA
ATOM     33  C   UNL     1       5.150   5.682  18.359  0.00  0.00    +0.000 C 
ATOM     34  C   UNL     1       4.296   6.443  17.333  0.00  0.00    +0.000 C 
ENDBRANCH  28  29
ENDBRANCH  25  28
ENDBRANCH   3  24
BRANCH   2  35
ATOM     35  C   UNL     1      -0.490   9.339  21.340  0.00  0.00    +0.000 C 
ATOM     36  N   UNL     1      -0.877   8.325  21.753  0.00  0.00    +0.000 NA
ENDBRANCH   2  35
TORSDOF 6
ENDMDL
MODEL 4
REMARK VINA RESULT:      -6.5      0.802      1.178
REMARK  Name = 
REMARK  7 active torsions:
REMARK  status: ('A' for Active; 'I' for Inactive)
REMARK    1  A    between atoms: C_1  and  O_2
REMARK    2  A    between atoms: O_2  and  C_3
REMARK    3  A    between atoms: C_6  and  C_7
REMARK    4  A    between atoms: C_8  and  C_9
REMARK    5  A    between atoms: C_11  and  N_12
REMARK    6  A    between atoms: C_13  and  C_15
REMARK    7  A    between atoms: C_15  and  N_16
REMARK                            x       y       z     vdW  Elec       q    Type
REMARK                         _______ _______ _______ _____ _____    ______ ____
ROOT
ATOM      1  C   UNL     1       0.505  11.369  19.053  0.00  0.00    +0.000 C 
ATOM      2  C   UNL     1      -0.976  11.281  19.424  0.00  0.00    +0.000 C 
ATOM      3  C   UNL     1      -1.465  12.189  20.287  0.00  0.00    +0.000 C 
ATOM      4  O   UNL     1      -0.685  12.824  21.224  0.00  0.00    +0.000 OA
ATOM      5  C   UNL     1       0.591  13.154  20.822  0.00  0.00    +0.000 A 
ATOM      6  C   UNL     1       1.230  12.467  19.851  0.00  0.00    +0.000 A 
ATOM      7  C   UNL     1       2.483  13.037  19.312  0.00  0.00    +0.000 A 
ATOM      8  O   UNL     1       3.023  12.573  18.315  0.00  0.00    +0.000 OA
ATOM      9  O   UNL     1       3.028  14.147  19.976  0.00  0.00    +0.000 OA
ATOM     10  C   UNL     1       2.329  14.865  20.971  0.00  0.00    +0.000 A 
ATOM     11  C   UNL     1       2.888  16.044  21.462  0.00  0.00    +0.000 A 
ATOM     12  C   UNL     1       2.168  16.813  22.379  0.00  0.00    +0.000 A 
ATOM     13  C   UNL     1       0.892  16.415  22.772  0.00  0.00    +0.000 A 
ATOM     14  C   UNL     1       0.352  15.221  22.276  0.00  0.00    +0.000 A 
ATOM     15  C   UNL     1       1.087  14.413  21.391  0.00  0.00    +0.000 A 
ENDROOT
BRANCH   1  19
ATOM     16  C   UNL     1       2.493   7.500  18.897  0.00  0.00    +0.000 A 
ATOM     17  C   UNL     1       1.810   7.928  20.025  0.00  0.00    +0.000 A 
ATOM     18  C   UNL     1       1.091   9.122  19.995  0.00  0.00    +0.000 A 
ATOM     19  C   UNL     1       1.076   9.962  18.854  0.00  0.00    +0.000 A 
ATOM     20  C   UNL     1       1.765   9.525  17.723  0.00  0.00    +0.000 A 
ATOM     21  C   UNL     1       2.460   8.290  17.742  0.00  0.00    +0.000 A 
BRANCH  16  23
ATOM     22  C   UNL     1       2.459   5.128  18.941  0.00  0.00    +0.000 C 
ATOM     23  O   UNL     1       3.191   6.338  19.070  0.00  0.00    +0.000 OA
ENDBRANCH  16  23
ENDBRANCH   1  19
BRANCH   3  24
ATOM     24  N   UNL     1      -2.521  12.989  19.912  0.00  0.00    +0.000 N 
ATOM     25  C   UNL     1      -3.608  13.074  20.821  0.00  0.00    +0.000 C 
ATOM     26  O   UNL     1      -3.569  12.688  21.984  0.00  0.00    +0.000 OA
ATOM     27  H   UNL     1      -2.812  12.859  18.949  0.00  0.00    +0.000 HD
BRANCH  25  28
ATOM     28  C   UNL     1      -4.848  13.651  20.198  0.00  0.00    +0.000 C 
BRANCH  28  29
ATOM     29  N   UNL     1      -5.262  12.925  18.985  0.00  0.00    +0.000 NA
ATOM     30  C   UNL     1      -6.519  13.515  18.482  0.00  0.00    +0.000 C 
ATOM     31  C   UNL     1      -7.711  13.235  19.417  0.00  0.00    +0.000 C 
ATOM     32  O   UNL     1      -7.900  11.831  19.629  0.00  0.00    +0.000 OA
ATOM     33  C   UNL     1      -6.707  11.176  20.088  0.00  0.00    +0.000 C 
ATOM     34  C   UNL     1      -5.503  11.476  19.182  0.00  0.00    +0.000 C 
ENDBRANCH  28  29
ENDBRANCH  25  28
ENDBRANCH   3  24
BRANCH   2  35
ATOM     35  C   UNL     1      -1.896  10.544  18.615  0.00  0.00    +0.000 C 
ATOM     36  N   UNL     1      -2.637   9.885  18.011  0.00  0.00    +0.000 NA
ENDBRANCH   2  35
TORSDOF 6
ENDMDL
MODEL 5
REMARK VINA RESULT:      -6.5      1.648      2.366
REMARK  Name = 
REMARK  7 active torsions:
REMARK  status: ('A' for Active; 'I' for Inactive)
REMARK    1  A    between atoms: C_1  and  O_2
REMARK    2  A    between atoms: O_2  and  C_3
REMARK    3  A    between atoms: C_6  and  C_7
REMARK    4  A    between atoms: C_8  and  C_9
REMARK    5  A    between atoms: C_11  and  N_12
REMARK    6  A    between atoms: C_13  and  C_15
REMARK    7  A    between atoms: C_15  and  N_16
REMARK                            x       y       z     vdW  Elec       q    Type
REMARK                         _______ _______ _______ _____ _____    ______ ____
ROOT
ATOM      1  C   UNL     1      -0.207  11.470  19.531  0.00  0.00    +0.000 C 
ATOM      2  C   UNL     1      -1.577  11.085  18.972  0.00  0.00    +0.000 C 
ATOM      3  C   UNL     1      -2.669  11.594  19.571  0.00  0.00    +0.000 C 
ATOM      4  O   UNL     1      -2.686  11.975  20.891  0.00  0.00    +0.000 OA
ATOM      5  C   UNL     1      -1.535  12.573  21.360  0.00  0.00    +0.000 A 
ATOM      6  C   UNL     1      -0.330  12.325  20.804  0.00  0.00    +0.000 A 
ATOM      7  C   UNL     1       0.803  13.190  21.201  0.00  0.00    +0.000 A 
ATOM      8  O   UNL     1       1.878  13.147  20.615  0.00  0.00    +0.000 OA
ATOM      9  O   UNL     1       0.598  14.078  22.267  0.00  0.00    +0.000 OA
ATOM     10  C   UNL     1      -0.678  14.339  22.814  0.00  0.00    +0.000 A 
ATOM     11  C   UNL     1      -0.804  15.351  23.765  0.00  0.00    +0.000 A 
ATOM     12  C   UNL     1      -2.072  15.682  24.248  0.00  0.00    +0.000 A 
ATOM     13  C   UNL     1      -3.198  15.025  23.758  0.00  0.00    +0.000 A 
ATOM     14  C   UNL     1      -3.050  14.004  22.810  0.00  0.00    +0.000 A 
ATOM     15  C   UNL     1      -1.774  13.626  22.354  0.00  0.00    +0.000 A 
ENDROOT
BRANCH   1  19
ATOM     16  C   UNL     1       2.229   7.954  18.726  0.00  0.00    +0.000 A 
ATOM     17  C   UNL     1       2.145   9.008  17.830  0.00  0.00    +0.000 A 
ATOM     18  C   UNL     1       1.447  10.165  18.174  0.00  0.00    +0.000 A 
ATOM     19  C   UNL     1       0.757  10.287  19.406  0.00  0.00    +0.000 A 
ATOM     20  C   UNL     1       0.845   9.222  20.302  0.00  0.00    +0.000 A 
ATOM     21  C   UNL     1       1.591   8.065  19.967  0.00  0.00    +0.000 A 
BRANCH  16  23
ATOM     22  C   UNL     1       2.259   5.607  18.383  0.00  0.00    +0.000 C 
ATOM     23  O   UNL     1       2.904   6.864  18.251  0.00  0.00    +0.000 OA
ENDBRANCH  16  23
ENDBRANCH   1  19
BRANCH   3  24
ATOM     24  N   UNL     1      -3.566  12.337  18.838  0.00  0.00    +0.000 N 
ATOM     25  C   UNL     1      -4.742  11.668  18.407  0.00  0.00    +0.000 C 
ATOM     26  O   UNL     1      -5.114  10.579  18.830  0.00  0.00    +0.000 OA
ATOM     27  H   UNL     1      -3.137  12.900  18.113  0.00  0.00    +0.000 HD
BRANCH  25  28
ATOM     28  C   UNL     1      -5.478  12.414  17.330  0.00  0.00    +0.000 C 
BRANCH  28  29
ATOM     29  N   UNL     1      -6.882  12.686  17.688  0.00  0.00    +0.000 NA
ATOM     30  C   UNL     1      -7.464  13.590  16.676  0.00  0.00    +0.000 C 
ATOM     31  C   UNL     1      -6.862  15.007  16.743  0.00  0.00    +0.000 C 
ATOM     32  O   UNL     1      -7.017  15.588  18.043  0.00  0.00    +0.000 OA
ATOM     33  C   UNL     1      -6.503  14.749  19.088  0.00  0.00    +0.000 C 
ATOM     34  C   UNL     1      -7.071  13.323  19.012  0.00  0.00    +0.000 C 
ENDBRANCH  28  29
ENDBRANCH  25  28
ENDBRANCH   3  24
BRANCH   2  35
ATOM     35  C   UNL     1      -1.710  10.548  17.653  0.00  0.00    +0.000 C 
ATOM     36  N   UNL     1      -1.876  10.167  16.569  0.00  0.00    +0.000 NA
ENDBRANCH   2  35
TORSDOF 6
ENDMDL
MODEL 6
REMARK VINA RESULT:      -6.4      0.663      1.047
REMARK  Name = 
REMARK  7 active torsions:
REMARK  status: ('A' for Active; 'I' for Inactive)
REMARK    1  A    between atoms: C_1  and  O_2
REMARK    2  A    between atoms: O_2  and  C_3
REMARK    3  A    between atoms: C_6  and  C_7
REMARK    4  A    between atoms: C_8  and  C_9
REMARK    5  A    between atoms: C_11  and  N_12
REMARK    6  A    between atoms: C_13  and  C_15
REMARK    7  A    between atoms: C_15  and  N_16
REMARK                            x       y       z     vdW  Elec       q    Type
REMARK                         _______ _______ _______ _____ _____    ______ ____
ROOT
ATOM      1  C   UNL     1       0.617  11.459  19.099  0.00  0.00    +0.000 C 
ATOM      2  C   UNL     1      -0.853  11.250  19.463  0.00  0.00    +0.000 C 
ATOM      3  C   UNL     1      -1.461  12.195  20.202  0.00  0.00    +0.000 C 
ATOM      4  O   UNL     1      -0.780  13.023  21.062  0.00  0.00    +0.000 OA
ATOM      5  C   UNL     1       0.461  13.444  20.636  0.00  0.00    +0.000 A 
ATOM      6  C   UNL     1       1.196  12.720  19.764  0.00  0.00    +0.000 A 
ATOM      7  C   UNL     1       2.391  13.359  19.172  0.00  0.00    +0.000 A 
ATOM      8  O   UNL     1       3.003  12.841  18.247  0.00  0.00    +0.000 OA
ATOM      9  O   UNL     1       2.793  14.596  19.700  0.00  0.00    +0.000 OA
ATOM     10  C   UNL     1       1.994  15.346  20.591  0.00  0.00    +0.000 A 
ATOM     11  C   UNL     1       2.407  16.631  20.940  0.00  0.00    +0.000 A 
ATOM     12  C   UNL     1       1.584  17.419  21.747  0.00  0.00    +0.000 A 
ATOM     13  C   UNL     1       0.351  16.930  22.172  0.00  0.00    +0.000 A 
ATOM     14  C   UNL     1      -0.042  15.632  21.821  0.00  0.00    +0.000 A 
ATOM     15  C   UNL     1       0.801  14.810  21.050  0.00  0.00    +0.000 A 
ENDROOT
BRANCH   1  19
ATOM     16  C   UNL     1       2.316   7.477  18.653  0.00  0.00    +0.000 A 
ATOM     17  C   UNL     1       2.326   8.398  17.617  0.00  0.00    +0.000 A 
ATOM     18  C   UNL     1       1.876   9.699  17.834  0.00  0.00    +0.000 A 
ATOM     19  C   UNL     1       1.345  10.112  19.082  0.00  0.00    +0.000 A 
ATOM     20  C   UNL     1       1.338   9.180  20.119  0.00  0.00    +0.000 A 
ATOM     21  C   UNL     1       1.836   7.870  19.907  0.00  0.00    +0.000 A 
BRANCH  16  23
ATOM     22  C   UNL     1       1.737   5.280  17.971  0.00  0.00    +0.000 C 
ATOM     23  O   UNL     1       2.742   6.227  18.298  0.00  0.00    +0.000 OA
ENDBRANCH  16  23
ENDBRANCH   1  19
BRANCH   3  24
ATOM     24  N   UNL     1      -2.590  12.819  19.719  0.00  0.00    +0.000 N 
ATOM     25  C   UNL     1      -3.729  12.815  20.566  0.00  0.00    +0.000 C 
ATOM     26  O   UNL     1      -3.708  12.513  21.754  0.00  0.00    +0.000 OA
ATOM     27  H   UNL     1      -2.805  12.589  18.756  0.00  0.00    +0.000 HD
BRANCH  25  28
ATOM     28  C   UNL     1      -4.996  13.177  19.844  0.00  0.00    +0.000 C 
BRANCH  28  29
ATOM     29  N   UNL     1      -5.850  12.006  19.577  0.00  0.00    +0.000 NA
ATOM     30  C   UNL     1      -5.445  11.405  18.290  0.00  0.00    +0.000 C 
ATOM     31  C   UNL     1      -5.792  12.305  17.089  0.00  0.00    +0.000 C 
ATOM     32  O   UNL     1      -7.189  12.616  17.046  0.00  0.00    +0.000 OA
ATOM     33  C   UNL     1      -7.668  13.177  18.278  0.00  0.00    +0.000 C 
ATOM     34  C   UNL     1      -7.299  12.304  19.487  0.00  0.00    +0.000 C 
ENDBRANCH  28  29
ENDBRANCH  25  28
ENDBRANCH   3  24
BRANCH   2  35
ATOM     35  C   UNL     1      -1.666  10.321  18.741  0.00  0.00    +0.000 C 
ATOM     36  N   UNL     1      -2.368   9.630  18.125  0.00  0.00    +0.000 NA
ENDBRANCH   2  35
TORSDOF 6
ENDMDL
MODEL 7
REMARK VINA RESULT:      -6.4      6.983      9.940
REMARK  Name = 
REMARK  7 active torsions:
REMARK  status: ('A' for Active; 'I' for Inactive)
REMARK    1  A    between atoms: C_1  and  O_2
REMARK    2  A    between atoms: O_2  and  C_3
REMARK    3  A    between atoms: C_6  and  C_7
REMARK    4  A    between atoms: C_8  and  C_9
REMARK    5  A    between atoms: C_11  and  N_12
REMARK    6  A    between atoms: C_13  and  C_15
REMARK    7  A    between atoms: C_15  and  N_16
REMARK                            x       y       z     vdW  Elec       q    Type
REMARK                         _______ _______ _______ _____ _____    ______ ____
ROOT
ATOM      1  C   UNL     1       7.642  12.902  22.093  0.00  0.00    +0.000 C 
ATOM      2  C   UNL     1       6.798  14.156  21.861  0.00  0.00    +0.000 C 
ATOM      3  C   UNL     1       7.120  14.950  20.824  0.00  0.00    +0.000 C 
ATOM      4  O   UNL     1       8.391  15.022  20.305  0.00  0.00    +0.000 OA
ATOM      5  C   UNL     1       9.091  13.835  20.262  0.00  0.00    +0.000 A 
ATOM      6  C   UNL     1       8.830  12.825  21.118  0.00  0.00    +0.000 A 
ATOM      7  C   UNL     1       9.448  11.510  20.843  0.00  0.00    +0.000 A 
ATOM      8  O   UNL     1       9.123  10.506  21.464  0.00  0.00    +0.000 OA
ATOM      9  O   UNL     1      10.415  11.449  19.828  0.00  0.00    +0.000 OA
ATOM     10  C   UNL     1      10.651  12.510  18.928  0.00  0.00    +0.000 A 
ATOM     11  C   UNL     1      11.521  12.300  17.858  0.00  0.00    +0.000 A 
ATOM     12  C   UNL     1      11.694  13.310  16.909  0.00  0.00    +0.000 A 
ATOM     13  C   UNL     1      10.981  14.501  17.019  0.00  0.00    +0.000 A 
ATOM     14  C   UNL     1      10.120  14.697  18.107  0.00  0.00    +0.000 A 
ATOM     15  C   UNL     1       9.975  13.709  19.097  0.00  0.00    +0.000 A 
ENDROOT
BRANCH   1  19
ATOM     16  C   UNL     1       7.459  12.253  26.394  0.00  0.00    +0.000 A 
ATOM     17  C   UNL     1       6.760  11.455  25.502  0.00  0.00    +0.000 A 
ATOM     18  C   UNL     1       6.934  11.622  24.129  0.00  0.00    +0.000 A 
ATOM     19  C   UNL     1       7.772  12.634  23.595  0.00  0.00    +0.000 A 
ATOM     20  C   UNL     1       8.472  13.433  24.498  0.00  0.00    +0.000 A 
ATOM     21  C   UNL     1       8.325  13.233  25.894  0.00  0.00    +0.000 A 
BRANCH  16  23
ATOM     22  C   UNL     1       6.500  13.057  28.409  0.00  0.00    +0.000 C 
ATOM     23  O   UNL     1       7.166  12.018  27.708  0.00  0.00    +0.000 OA
ENDBRANCH  16  23
ENDBRANCH   1  19
BRANCH   3  24
ATOM     24  N   UNL     1       6.182  15.218  19.853  0.00  0.00    +0.000 N 
ATOM     25  C   UNL     1       5.966  16.586  19.539  0.00  0.00    +0.000 C 
ATOM     26  O   UNL     1       6.702  17.502  19.891  0.00  0.00    +0.000 OA
ATOM     27  H   UNL     1       5.324  14.689  19.954  0.00  0.00    +0.000 HD
BRANCH  25  28
ATOM     28  C   UNL     1       4.702  16.814  18.758  0.00  0.00    +0.000 C 
BRANCH  28  29
ATOM     29  N   UNL     1       3.566  16.035  19.281  0.00  0.00    +0.000 NA
ATOM     30  C   UNL     1       2.553  15.897  18.214  0.00  0.00    +0.000 C 
ATOM     31  C   UNL     1       1.867  17.236  17.883  0.00  0.00    +0.000 C 
ATOM     32  O   UNL     1       1.259  17.821  19.041  0.00  0.00    +0.000 OA
ATOM     33  C   UNL     1       2.176  17.957  20.138  0.00  0.00    +0.000 C 
ATOM     34  C   UNL     1       2.891  16.635  20.455  0.00  0.00    +0.000 C 
ENDBRANCH  28  29
ENDBRANCH  25  28
ENDBRANCH   3  24
BRANCH   2  35
ATOM     35  C   UNL     1       5.499  14.288  22.445  0.00  0.00    +0.000 C 
ATOM     36  N   UNL     1       4.461  14.474  22.929  0.00  0.00    +0.000 NA
ENDBRANCH   2  35
TORSDOF 6
ENDMDL
MODEL 8
REMARK VINA RESULT:      -6.4      2.127      2.994
REMARK  Name = 
REMARK  7 active torsions:
REMARK  status: ('A' for Active; 'I' for Inactive)
REMARK    1  A    between atoms: C_1  and  O_2
REMARK    2  A    between atoms: O_2  and  C_3
REMARK    3  A    between atoms: C_6  and  C_7
REMARK    4  A    between atoms: C_8  and  C_9
REMARK    5  A    between atoms: C_11  and  N_12
REMARK    6  A    between atoms: C_13  and  C_15
REMARK    7  A    between atoms: C_15  and  N_16
REMARK                            x       y       z     vdW  Elec       q    Type
REMARK                         _______ _______ _______ _____ _____    ______ ____
ROOT
ATOM      1  C   UNL     1      -0.806  12.258  20.193  0.00  0.00    +0.000 C 
ATOM      2  C   UNL     1      -2.182  11.952  19.599  0.00  0.00    +0.000 C 
ATOM      3  C   UNL     1      -3.265  12.418  20.244  0.00  0.00    +0.000 C 
ATOM      4  O   UNL     1      -3.279  12.671  21.595  0.00  0.00    +0.000 OA
ATOM      5  C   UNL     1      -2.119  13.200  22.119  0.00  0.00    +0.000 A 
ATOM      6  C   UNL     1      -0.917  12.987  21.542  0.00  0.00    +0.000 A 
ATOM      7  C   UNL     1       0.230  13.790  22.021  0.00  0.00    +0.000 A 
ATOM      8  O   UNL     1       1.305  13.786  21.434  0.00  0.00    +0.000 OA
ATOM      9  O   UNL     1       0.038  14.574  23.168  0.00  0.00    +0.000 OA
ATOM     10  C   UNL     1      -1.234  14.803  23.738  0.00  0.00    +0.000 A 
ATOM     11  C   UNL     1      -1.344  15.719  24.783  0.00  0.00    +0.000 A 
ATOM     12  C   UNL     1      -2.607  16.023  25.295  0.00  0.00    +0.000 A 
ATOM     13  C   UNL     1      -3.744  15.436  24.744  0.00  0.00    +0.000 A 
ATOM     14  C   UNL     1      -3.611  14.509  23.702  0.00  0.00    +0.000 A 
ATOM     15  C   UNL     1      -2.341  14.156  23.211  0.00  0.00    +0.000 A 
ENDROOT
BRANCH   1  19
ATOM     16  C   UNL     1       1.601   8.824  19.026  0.00  0.00    +0.000 A 
ATOM     17  C   UNL     1       1.603  10.002  18.296  0.00  0.00    +0.000 A 
ATOM     18  C   UNL     1       0.909  11.117  18.764  0.00  0.00    +0.000 A 
ATOM     19  C   UNL     1       0.138  11.076  19.953  0.00  0.00    +0.000 A 
ATOM     20  C   UNL     1       0.140   9.887  20.682  0.00  0.00    +0.000 A 
ATOM     21  C   UNL     1       0.882   8.770  20.225  0.00  0.00    +0.000 A 
BRANCH  16  23
ATOM     22  C   UNL     1       2.682   6.728  19.281  0.00  0.00    +0.000 C 
ATOM     23  O   UNL     1       2.284   7.797  18.437  0.00  0.00    +0.000 OA
ENDBRANCH  16  23
ENDBRANCH   1  19
BRANCH   3  24
ATOM     24  N   UNL     1      -4.149  13.244  19.587  0.00  0.00    +0.000 N 
ATOM     25  C   UNL     1      -5.494  12.796  19.501  0.00  0.00    +0.000 C 
ATOM     26  O   UNL     1      -5.958  11.869  20.156  0.00  0.00    +0.000 OA
ATOM     27  H   UNL     1      -3.793  13.613  18.712  0.00  0.00    +0.000 HD
BRANCH  25  28
ATOM     28  C   UNL     1      -6.297  13.549  18.479  0.00  0.00    +0.000 C 
BRANCH  28  29
ATOM     29  N   UNL     1      -7.305  14.433  19.091  0.00  0.00    +0.000 NA
ATOM     30  C   UNL     1      -7.916  15.263  18.033  0.00  0.00    +0.000 C 
ATOM     31  C   UNL     1      -6.929  16.295  17.456  0.00  0.00    +0.000 C 
ATOM     32  O   UNL     1      -6.395  17.147  18.476  0.00  0.00    +0.000 OA
ATOM     33  C   UNL     1      -5.811  16.410  19.561  0.00  0.00    +0.000 C 
ATOM     34  C   UNL     1      -6.775  15.355  20.123  0.00  0.00    +0.000 C 
ENDBRANCH  28  29
ENDBRANCH  25  28
ENDBRANCH   3  24
BRANCH   2  35
ATOM     35  C   UNL     1      -2.321  11.547  18.234  0.00  0.00    +0.000 C 
ATOM     36  N   UNL     1      -2.354  11.226  17.119  0.00  0.00    +0.000 NA
ENDBRANCH   2  35
TORSDOF 6
ENDMDL
MODEL 9
REMARK VINA RESULT:      -6.4      1.403      1.789
REMARK  Name = 
REMARK  7 active torsions:
REMARK  status: ('A' for Active; 'I' for Inactive)
REMARK    1  A    between atoms: C_1  and  O_2
REMARK    2  A    between atoms: O_2  and  C_3
REMARK    3  A    between atoms: C_6  and  C_7
REMARK    4  A    between atoms: C_8  and  C_9
REMARK    5  A    between atoms: C_11  and  N_12
REMARK    6  A    between atoms: C_13  and  C_15
REMARK    7  A    between atoms: C_15  and  N_16
REMARK                            x       y       z     vdW  Elec       q    Type
REMARK                         _______ _______ _______ _____ _____    ______ ____
ROOT
ATOM      1  C   UNL     1       0.099  11.529  19.319  0.00  0.00    +0.000 C 
ATOM      2  C   UNL     1      -1.407  11.386  19.540  0.00  0.00    +0.000 C 
ATOM      3  C   UNL     1      -1.997  12.212  20.422  0.00  0.00    +0.000 C 
ATOM      4  O   UNL     1      -1.326  12.779  21.478  0.00  0.00    +0.000 OA
ATOM      5  C   UNL     1      -0.025  13.163  21.227  0.00  0.00    +0.000 A 
ATOM      6  C   UNL     1       0.718  12.569  20.269  0.00  0.00    +0.000 A 
ATOM      7  C   UNL     1       2.002  13.203  19.901  0.00  0.00    +0.000 A 
ATOM      8  O   UNL     1       2.645  12.832  18.926  0.00  0.00    +0.000 OA
ATOM      9  O   UNL     1       2.455  14.263  20.701  0.00  0.00    +0.000 OA
ATOM     10  C   UNL     1       1.648  14.885  21.679  0.00  0.00    +0.000 A 
ATOM     11  C   UNL     1       2.129  16.029  22.315  0.00  0.00    +0.000 A 
ATOM     12  C   UNL     1       1.307  16.707  23.218  0.00  0.00    +0.000 A 
ATOM     13  C   UNL     1       0.010  16.256  23.454  0.00  0.00    +0.000 A 
ATOM     14  C   UNL     1      -0.451  15.099  22.813  0.00  0.00    +0.000 A 
ATOM     15  C   UNL     1       0.384  14.379  21.940  0.00  0.00    +0.000 A 
ENDROOT
BRANCH   1  19
ATOM     16  C   UNL     1       2.254   7.763  18.973  0.00  0.00    +0.000 A 
ATOM     17  C   UNL     1       1.640   8.150  20.154  0.00  0.00    +0.000 A 
ATOM     18  C   UNL     1       0.864   9.308  20.192  0.00  0.00    +0.000 A 
ATOM     19  C   UNL     1       0.720  10.153  19.064  0.00  0.00    +0.000 A 
ATOM     20  C   UNL     1       1.341   9.758  17.879  0.00  0.00    +0.000 A 
ATOM     21  C   UNL     1       2.094   8.558  17.832  0.00  0.00    +0.000 A 
BRANCH  16  23
ATOM     22  C   UNL     1       2.572   5.646  19.995  0.00  0.00    +0.000 C 
ATOM     23  O   UNL     1       3.019   6.636  19.081  0.00  0.00    +0.000 OA
ENDBRANCH  16  23
ENDBRANCH   1  19
BRANCH   3  24
ATOM     24  N   UNL     1      -3.033  13.021  20.013  0.00  0.00    +0.000 N 
ATOM     25  C   UNL     1      -4.260  12.887  20.713  0.00  0.00    +0.000 C 
ATOM     26  O   UNL     1      -4.388  12.289  21.777  0.00  0.00    +0.000 OA
ATOM     27  H   UNL     1      -3.148  13.063  19.007  0.00  0.00    +0.000 HD
BRANCH  25  28
ATOM     28  C   UNL     1      -5.418  13.517  19.992  0.00  0.00    +0.000 C 
BRANCH  28  29
ATOM     29  N   UNL     1      -5.375  14.989  20.030  0.00  0.00    +0.000 NA
ATOM     30  C   UNL     1      -5.486  15.433  21.435  0.00  0.00    +0.000 C 
ATOM     31  C   UNL     1      -6.883  15.162  22.025  0.00  0.00    +0.000 C 
ATOM     32  O   UNL     1      -7.915  15.783  21.250  0.00  0.00    +0.000 OA
ATOM     33  C   UNL     1      -7.853  15.426  19.860  0.00  0.00    +0.000 C 
ATOM     34  C   UNL     1      -6.454  15.660  19.269  0.00  0.00    +0.000 C 
ENDBRANCH  28  29
ENDBRANCH  25  28
ENDBRANCH   3  24
BRANCH   2  35
ATOM     35  C   UNL     1      -2.229  10.703  18.589  0.00  0.00    +0.000 C 
ATOM     36  N   UNL     1      -2.923  10.102  17.878  0.00  0.00    +0.000 NA
ENDBRANCH   2  35
TORSDOF 6
ENDMDL
