MODEL 1
REMARK VINA RESULT:      -7.7      0.000      0.000
REMARK  Name = 
REMARK  5 active torsions:
REMARK  status: ('A' for Active; 'I' for Inactive)
REMARK    1  A    between atoms: C_2  and  C_4
REMARK    2  A    between atoms: C_4  and  C_5
REMARK    3  A    between atoms: C_5  and  C_6
REMARK    4  A    between atoms: N_22  and  C_23
REMARK    5  A    between atoms: C_23  and  C_24
REMARK                            x       y       z     vdW  Elec       q    Type
REMARK                         _______ _______ _______ _____ _____    ______ ____
ROOT
ATOM      1  C   UNL     1      10.084  11.220  18.560  0.00  0.00    +0.000 C 
ATOM      2  N   UNL     1      10.922  11.701  19.752  0.00  0.00    +0.000 NA
ATOM      3  C   UNL     1      10.335  12.958  20.243  0.00  0.00    +0.000 C 
ATOM      4  C   UNL     1      11.283  14.177  20.357  0.00  0.00    +0.000 C 
ATOM      5  O   UNL     1      12.248  14.426  19.648  0.00  0.00    +0.000 OA
ATOM      6  N   UNL     1      10.746  14.982  21.369  0.00  0.00    +0.000 N 
ATOM      7  C   UNL     1       9.821  14.272  22.128  0.00  0.00    +0.000 A 
ATOM      8  C   UNL     1       9.118  14.713  23.229  0.00  0.00    +0.000 A 
ATOM      9  C   UNL     1       8.235  13.812  23.833  0.00  0.00    +0.000 A 
ATOM     10  C   UNL     1       8.057  12.519  23.308  0.00  0.00    +0.000 A 
ATOM     11 CL   UNL     1       6.922  11.453  24.040  0.00  0.00    +0.000 Cl
ATOM     12  C   UNL     1       8.758  12.101  22.177  0.00  0.00    +0.000 A 
ATOM     13  C   UNL     1       9.658  12.988  21.599  0.00  0.00    +0.000 A 
ATOM     14  C   UNL     1       9.224  13.239  19.294  0.00  0.00    +0.000 C 
ATOM     15  C   UNL     1       8.984  14.567  18.715  0.00  0.00    +0.000 C 
ATOM     16  O   UNL     1       9.736  15.539  18.650  0.00  0.00    +0.000 OA
ATOM     17  N   UNL     1       7.880  14.386  17.991  0.00  0.00    +0.000 N 
ATOM     18  C   UNL     1       7.976  13.093  17.475  0.00  0.00    +0.000 C 
ATOM     19  O   UNL     1       7.233  12.579  16.650  0.00  0.00    +0.000 OA
ATOM     20  C   UNL     1       9.365  12.477  18.018  0.00  0.00    +0.000 C 
ATOM     21  H   UNL     1      11.866  11.939  19.410  0.00  0.00    +0.000 HD
ATOM     22  H   UNL     1      11.043  15.934  21.528  0.00  0.00    +0.000 HD
ENDROOT
BRANCH   1  23
ATOM     23  C   UNL     1       9.346   9.951  19.028  0.00  0.00    +0.000 C 
BRANCH  23  24
ATOM     24  C   UNL     1       8.161   9.527  18.159  0.00  0.00    +0.000 C 
BRANCH  24  26
ATOM     25  N   UNL     1       8.494   7.284  19.037  0.00  0.00    +0.000 N 
ATOM     26  C   UNL     1       8.090   8.017  17.965  0.00  0.00    +0.000 C 
ATOM     27  O   UNL     1       7.701   7.463  16.944  0.00  0.00    +0.000 OA
ATOM     28  H   UNL     1       8.443   6.274  18.973  0.00  0.00    +0.000 HD
ATOM     29  H   UNL     1       8.783   7.691  19.920  0.00  0.00    +0.000 HD
ENDBRANCH  24  26
ENDBRANCH  23  24
ENDBRANCH   1  23
BRANCH  17  30
ATOM     30  C   UNL     1       7.014  15.578  17.743  0.00  0.00    +0.000 C 
BRANCH  30  31
ATOM     31  C   UNL     1       5.614  15.520  18.392  0.00  0.00    +0.000 C 
ATOM     32  C   UNL     1       5.026  16.844  18.840  0.00  0.00    +0.000 C 
ATOM     33  C   UNL     1       3.620  16.422  19.198  0.00  0.00    +0.000 C 
ATOM     34  C   UNL     1       3.308  15.369  18.144  0.00  0.00    +0.000 C 
ATOM     35  O   UNL     1       4.572  15.011  17.529  0.00  0.00    +0.000 OA
ENDBRANCH  30  31
ENDBRANCH  17  30
TORSDOF 5
ENDMDL
MODEL 2
REMARK VINA RESULT:      -7.5      1.060      1.182
REMARK  Name = 
REMARK  5 active torsions:
REMARK  status: ('A' for Active; 'I' for Inactive)
REMARK    1  A    between atoms: C_2  and  C_4
REMARK    2  A    between atoms: C_4  and  C_5
REMARK    3  A    between atoms: C_5  and  C_6
REMARK    4  A    between atoms: N_22  and  C_23
REMARK    5  A    between atoms: C_23  and  C_24
REMARK                            x       y       z     vdW  Elec       q    Type
REMARK                         _______ _______ _______ _____ _____    ______ ____
ROOT
ATOM      1  C   UNL     1       9.941  11.114  18.520  0.00  0.00    +0.000 C 
ATOM      2  N   UNL     1      10.781  11.545  19.729  0.00  0.00    +0.000 NA
ATOM      3  C   UNL     1      10.253  12.831  20.214  0.00  0.00    +0.000 C 
ATOM      4  C   UNL     1      11.264  13.996  20.351  0.00  0.00    +0.000 C 
ATOM      5  O   UNL     1      12.255  14.195  19.661  0.00  0.00    +0.000 OA
ATOM      6  N   UNL     1      10.752  14.826  21.355  0.00  0.00    +0.000 N 
ATOM      7  C   UNL     1       9.776  14.165  22.095  0.00  0.00    +0.000 A 
ATOM      8  C   UNL     1       9.077  14.641  23.183  0.00  0.00    +0.000 A 
ATOM      9  C   UNL     1       8.136  13.787  23.768  0.00  0.00    +0.000 A 
ATOM     10  C   UNL     1       7.898  12.507  23.234  0.00  0.00    +0.000 A 
ATOM     11 CL   UNL     1       6.693  11.502  23.940  0.00  0.00    +0.000 Cl
ATOM     12  C   UNL     1       8.596  12.055  22.115  0.00  0.00    +0.000 A 
ATOM     13  C   UNL     1       9.554  12.893  21.557  0.00  0.00    +0.000 A 
ATOM     14  C   UNL     1       9.178  13.174  19.245  0.00  0.00    +0.000 C 
ATOM     15  C   UNL     1       9.021  14.515  18.668  0.00  0.00    +0.000 C 
ATOM     16  O   UNL     1       9.826  15.445  18.620  0.00  0.00    +0.000 OA
ATOM     17  N   UNL     1       7.923  14.396  17.923  0.00  0.00    +0.000 N 
ATOM     18  C   UNL     1       7.958  13.101  17.403  0.00  0.00    +0.000 C 
ATOM     19  O   UNL     1       7.205  12.631  16.562  0.00  0.00    +0.000 OA
ATOM     20  C   UNL     1       9.301  12.410  17.970  0.00  0.00    +0.000 C 
ATOM     21  H   UNL     1      11.743  11.732  19.406  0.00  0.00    +0.000 HD
ATOM     22  H   UNL     1      11.098  15.760  21.524  0.00  0.00    +0.000 HD
ENDROOT
BRANCH   1  23
ATOM     23  C   UNL     1       9.126   9.885  18.969  0.00  0.00    +0.000 C 
BRANCH  23  24
ATOM     24  C   UNL     1       8.090   9.386  17.962  0.00  0.00    +0.000 C 
BRANCH  24  26
ATOM     25  N   UNL     1       7.297   7.350  16.893  0.00  0.00    +0.000 N 
ATOM     26  C   UNL     1       7.958   7.867  17.964  0.00  0.00    +0.000 C 
ATOM     27  O   UNL     1       8.402   7.130  18.835  0.00  0.00    +0.000 OA
ATOM     28  H   UNL     1       7.204   6.343  16.829  0.00  0.00    +0.000 HD
ATOM     29  H   UNL     1       6.949   7.911  16.122  0.00  0.00    +0.000 HD
ENDBRANCH  24  26
ENDBRANCH  23  24
ENDBRANCH   1  23
BRANCH  17  30
ATOM     30  C   UNL     1       7.127  15.635  17.663  0.00  0.00    +0.000 C 
BRANCH  30  31
ATOM     31  C   UNL     1       6.073  15.976  18.739  0.00  0.00    +0.000 C 
ATOM     32  C   UNL     1       6.423  15.597  20.165  0.00  0.00    +0.000 C 
ATOM     33  C   UNL     1       5.298  16.269  20.919  0.00  0.00    +0.000 C 
ATOM     34  C   UNL     1       5.089  17.555  20.131  0.00  0.00    +0.000 C 
ATOM     35  O   UNL     1       5.784  17.386  18.870  0.00  0.00    +0.000 OA
ENDBRANCH  30  31
ENDBRANCH  17  30
TORSDOF 5
ENDMDL
MODEL 3
REMARK VINA RESULT:      -7.0      3.014      5.569
REMARK  Name = 
REMARK  5 active torsions:
REMARK  status: ('A' for Active; 'I' for Inactive)
REMARK    1  A    between atoms: C_2  and  C_4
REMARK    2  A    between atoms: C_4  and  C_5
REMARK    3  A    between atoms: C_5  and  C_6
REMARK    4  A    between atoms: N_22  and  C_23
REMARK    5  A    between atoms: C_23  and  C_24
REMARK                            x       y       z     vdW  Elec       q    Type
REMARK                         _______ _______ _______ _____ _____    ______ ____
ROOT
ATOM      1  C   UNL     1       6.867  15.745  18.235  0.00  0.00    +0.000 C 
ATOM      2  N   UNL     1       8.162  15.476  17.456  0.00  0.00    +0.000 NA
ATOM      3  C   UNL     1       9.168  14.976  18.407  0.00  0.00    +0.000 C 
ATOM      4  C   UNL     1      10.523  15.726  18.451  0.00  0.00    +0.000 C 
ATOM      5  O   UNL     1      10.711  16.917  18.245  0.00  0.00    +0.000 OA
ATOM      6  N   UNL     1      11.465  14.781  18.876  0.00  0.00    +0.000 N 
ATOM      7  C   UNL     1      10.962  13.490  18.756  0.00  0.00    +0.000 A 
ATOM      8  C   UNL     1      11.606  12.304  19.038  0.00  0.00    +0.000 A 
ATOM      9  C   UNL     1      10.890  11.119  18.838  0.00  0.00    +0.000 A 
ATOM     10  C   UNL     1       9.554  11.152  18.400  0.00  0.00    +0.000 A 
ATOM     11 CL   UNL     1       8.682   9.679  18.219  0.00  0.00    +0.000 Cl
ATOM     12  C   UNL     1       8.910  12.363  18.147  0.00  0.00    +0.000 A 
ATOM     13  C   UNL     1       9.635  13.537  18.314  0.00  0.00    +0.000 A 
ATOM     14  C   UNL     1       8.487  15.037  19.728  0.00  0.00    +0.000 C 
ATOM     15  C   UNL     1       9.130  15.572  20.935  0.00  0.00    +0.000 C 
ATOM     16  O   UNL     1      10.128  16.284  21.039  0.00  0.00    +0.000 OA
ATOM     17  N   UNL     1       8.208  15.379  21.878  0.00  0.00    +0.000 N 
ATOM     18  C   UNL     1       6.978  15.579  21.249  0.00  0.00    +0.000 C 
ATOM     19  O   UNL     1       5.881  15.628  21.789  0.00  0.00    +0.000 OA
ATOM     20  C   UNL     1       7.296  15.935  19.708  0.00  0.00    +0.000 C 
ATOM     21  H   UNL     1       8.521  16.376  17.103  0.00  0.00    +0.000 HD
ATOM     22  H   UNL     1      12.394  15.034  19.182  0.00  0.00    +0.000 HD
ENDROOT
BRANCH   1  23
ATOM     23  C   UNL     1       5.850  14.683  17.773  0.00  0.00    +0.000 C 
BRANCH  23  24
ATOM     24  C   UNL     1       4.384  15.115  17.830  0.00  0.00    +0.000 C 
BRANCH  24  26
ATOM     25  N   UNL     1       3.636  14.550  20.074  0.00  0.00    +0.000 N 
ATOM     26  C   UNL     1       3.551  14.233  18.754  0.00  0.00    +0.000 C 
ATOM     27  O   UNL     1       2.843  13.306  18.381  0.00  0.00    +0.000 OA
ATOM     28  H   UNL     1       3.082  14.014  20.731  0.00  0.00    +0.000 HD
ATOM     29  H   UNL     1       4.172  15.334  20.431  0.00  0.00    +0.000 HD
ENDBRANCH  24  26
ENDBRANCH  23  24
ENDBRANCH   1  23
BRANCH  17  30
ATOM     30  C   UNL     1       8.682  15.244  23.289  0.00  0.00    +0.000 C 
BRANCH  30  31
ATOM     31  C   UNL     1       8.457  13.856  23.928  0.00  0.00    +0.000 C 
ATOM     32  C   UNL     1       7.067  13.586  24.471  0.00  0.00    +0.000 C 
ATOM     33  C   UNL     1       7.173  12.112  24.791  0.00  0.00    +0.000 C 
ATOM     34  C   UNL     1       8.045  11.585  23.661  0.00  0.00    +0.000 C 
ATOM     35  O   UNL     1       8.645  12.742  23.026  0.00  0.00    +0.000 OA
ENDBRANCH  30  31
ENDBRANCH  17  30
TORSDOF 5
ENDMDL
MODEL 4
REMARK VINA RESULT:      -6.9      3.161      6.007
REMARK  Name = 
REMARK  5 active torsions:
REMARK  status: ('A' for Active; 'I' for Inactive)
REMARK    1  A    between atoms: C_2  and  C_4
REMARK    2  A    between atoms: C_4  and  C_5
REMARK    3  A    between atoms: C_5  and  C_6
REMARK    4  A    between atoms: N_22  and  C_23
REMARK    5  A    between atoms: C_23  and  C_24
REMARK                            x       y       z     vdW  Elec       q    Type
REMARK                         _______ _______ _______ _____ _____    ______ ____
ROOT
ATOM      1  C   UNL     1       6.826  15.740  18.170  0.00  0.00    +0.000 C 
ATOM      2  N   UNL     1       8.111  15.453  17.382  0.00  0.00    +0.000 NA
ATOM      3  C   UNL     1       9.118  14.943  18.326  0.00  0.00    +0.000 C 
ATOM      4  C   UNL     1      10.482  15.675  18.358  0.00  0.00    +0.000 C 
ATOM      5  O   UNL     1      10.684  16.863  18.147  0.00  0.00    +0.000 OA
ATOM      6  N   UNL     1      11.416  14.719  18.778  0.00  0.00    +0.000 N 
ATOM      7  C   UNL     1      10.895  13.434  18.665  0.00  0.00    +0.000 A 
ATOM      8  C   UNL     1      11.526  12.241  18.944  0.00  0.00    +0.000 A 
ATOM      9  C   UNL     1      10.793  11.064  18.754  0.00  0.00    +0.000 A 
ATOM     10  C   UNL     1       9.454  11.114  18.326  0.00  0.00    +0.000 A 
ATOM     11 CL   UNL     1       8.562   9.652  18.156  0.00  0.00    +0.000 Cl
ATOM     12  C   UNL     1       8.824  12.332  18.075  0.00  0.00    +0.000 A 
ATOM     13  C   UNL     1       9.566  13.498  18.233  0.00  0.00    +0.000 A 
ATOM     14  C   UNL     1       8.448  15.015  19.652  0.00  0.00    +0.000 C 
ATOM     15  C   UNL     1       9.107  15.545  20.853  0.00  0.00    +0.000 C 
ATOM     16  O   UNL     1      10.115  16.245  20.947  0.00  0.00    +0.000 OA
ATOM     17  N   UNL     1       8.191  15.367  21.804  0.00  0.00    +0.000 N 
ATOM     18  C   UNL     1       6.958  15.581  21.184  0.00  0.00    +0.000 C 
ATOM     19  O   UNL     1       5.867  15.645  21.732  0.00  0.00    +0.000 OA
ATOM     20  C   UNL     1       7.269  15.929  19.640  0.00  0.00    +0.000 C 
ATOM     21  H   UNL     1       8.479  16.347  17.024  0.00  0.00    +0.000 HD
ATOM     22  H   UNL     1      12.350  14.960  19.076  0.00  0.00    +0.000 HD
ENDROOT
BRANCH   1  23
ATOM     23  C   UNL     1       5.792  14.690  17.719  0.00  0.00    +0.000 C 
BRANCH  23  24
ATOM     24  C   UNL     1       4.465  14.712  18.480  0.00  0.00    +0.000 C 
BRANCH  24  26
ATOM     25  N   UNL     1       3.701  16.678  19.690  0.00  0.00    +0.000 N 
ATOM     26  C   UNL     1       3.809  16.088  18.469  0.00  0.00    +0.000 C 
ATOM     27  O   UNL     1       3.399  16.657  17.465  0.00  0.00    +0.000 OA
ATOM     28  H   UNL     1       3.297  17.606  19.739  0.00  0.00    +0.000 HD
ATOM     29  H   UNL     1       4.063  16.271  20.546  0.00  0.00    +0.000 HD
ENDBRANCH  24  26
ENDBRANCH  23  24
ENDBRANCH   1  23
BRANCH  17  30
ATOM     30  C   UNL     1       8.674  15.229  23.211  0.00  0.00    +0.000 C 
BRANCH  30  31
ATOM     31  C   UNL     1       8.085  14.035  23.994  0.00  0.00    +0.000 C 
ATOM     32  C   UNL     1       8.414  12.655  23.460  0.00  0.00    +0.000 C 
ATOM     33  C   UNL     1       7.876  11.787  24.574  0.00  0.00    +0.000 C 
ATOM     34  C   UNL     1       8.198  12.601  25.819  0.00  0.00    +0.000 C 
ATOM     35  O   UNL     1       8.533  13.937  25.365  0.00  0.00    +0.000 OA
ENDBRANCH  30  31
ENDBRANCH  17  30
TORSDOF 5
ENDMDL
MODEL 5
REMARK VINA RESULT:      -6.8      7.377      9.456
REMARK  Name = 
REMARK  5 active torsions:
REMARK  status: ('A' for Active; 'I' for Inactive)
REMARK    1  A    between atoms: C_2  and  C_4
REMARK    2  A    between atoms: C_4  and  C_5
REMARK    3  A    between atoms: C_5  and  C_6
REMARK    4  A    between atoms: N_22  and  C_23
REMARK    5  A    between atoms: C_23  and  C_24
REMARK                            x       y       z     vdW  Elec       q    Type
REMARK                         _______ _______ _______ _____ _____    ______ ____
ROOT
ATOM      1  C   UNL     1       1.777  11.087  19.343  0.00  0.00    +0.000 C 
ATOM      2  N   UNL     1       0.575  10.482  20.081  0.00  0.00    +0.000 NA
ATOM      3  C   UNL     1      -0.431  11.543  20.257  0.00  0.00    +0.000 C 
ATOM      4  C   UNL     1      -0.936  11.796  21.698  0.00  0.00    +0.000 C 
ATOM      5  O   UNL     1      -0.301  11.658  22.735  0.00  0.00    +0.000 OA
ATOM      6  N   UNL     1      -2.230  12.312  21.562  0.00  0.00    +0.000 N 
ATOM      7  C   UNL     1      -2.723  12.079  20.282  0.00  0.00    +0.000 A 
ATOM      8  C   UNL     1      -3.968  12.404  19.785  0.00  0.00    +0.000 A 
ATOM      9  C   UNL     1      -4.239  12.068  18.455  0.00  0.00    +0.000 A 
ATOM     10  C   UNL     1      -3.258  11.454  17.655  0.00  0.00    +0.000 A 
ATOM     11 CL   UNL     1      -3.603  11.106  16.005  0.00  0.00    +0.000 Cl
ATOM     12  C   UNL     1      -1.995  11.159  18.167  0.00  0.00    +0.000 A 
ATOM     13  C   UNL     1      -1.741  11.464  19.499  0.00  0.00    +0.000 A 
ATOM     14  C   UNL     1       0.219  12.760  19.702  0.00  0.00    +0.000 C 
ATOM     15  C   UNL     1       0.192  14.061  20.383  0.00  0.00    +0.000 C 
ATOM     16  O   UNL     1      -0.068  14.324  21.557  0.00  0.00    +0.000 OA
ATOM     17  N   UNL     1       0.823  14.863  19.526  0.00  0.00    +0.000 N 
ATOM     18  C   UNL     1       1.821  14.081  18.943  0.00  0.00    +0.000 C 
ATOM     19  O   UNL     1       2.711  14.469  18.198  0.00  0.00    +0.000 OA
ATOM     20  C   UNL     1       1.700  12.611  19.595  0.00  0.00    +0.000 C 
ATOM     21  H   UNL     1       0.878  10.212  21.029  0.00  0.00    +0.000 HD
ATOM     22  H   UNL     1      -2.729  12.749  22.323  0.00  0.00    +0.000 HD
ENDROOT
BRANCH   1  23
ATOM     23  C   UNL     1       1.791  10.455  17.937  0.00  0.00    +0.000 C 
BRANCH  23  24
ATOM     24  C   UNL     1       1.334   8.997  17.873  0.00  0.00    +0.000 C 
BRANCH  24  26
ATOM     25  N   UNL     1       2.197   7.545  19.622  0.00  0.00    +0.000 N 
ATOM     26  C   UNL     1       2.402   8.028  18.368  0.00  0.00    +0.000 C 
ATOM     27  O   UNL     1       3.381   7.679  17.720  0.00  0.00    +0.000 OA
ATOM     28  H   UNL     1       2.861   6.876  19.993  0.00  0.00    +0.000 HD
ATOM     29  H   UNL     1       1.381   7.766  20.185  0.00  0.00    +0.000 HD
ENDBRANCH  24  26
ENDBRANCH  23  24
ENDBRANCH   1  23
BRANCH  17  30
ATOM     30  C   UNL     1       0.491  16.320  19.572  0.00  0.00    +0.000 C 
BRANCH  30  31
ATOM     31  C   UNL     1       0.282  16.990  18.197  0.00  0.00    +0.000 C 
ATOM     32  C   UNL     1      -0.758  18.092  18.140  0.00  0.00    +0.000 C 
ATOM     33  C   UNL     1      -0.520  18.631  16.747  0.00  0.00    +0.000 C 
ATOM     34  C   UNL     1       0.991  18.521  16.599  0.00  0.00    +0.000 C 
ATOM     35  O   UNL     1       1.450  17.657  17.669  0.00  0.00    +0.000 OA
ENDBRANCH  30  31
ENDBRANCH  17  30
TORSDOF 5
ENDMDL
MODEL 6
REMARK VINA RESULT:      -6.7      8.634     11.774
REMARK  Name = 
REMARK  5 active torsions:
REMARK  status: ('A' for Active; 'I' for Inactive)
REMARK    1  A    between atoms: C_2  and  C_4
REMARK    2  A    between atoms: C_4  and  C_5
REMARK    3  A    between atoms: C_5  and  C_6
REMARK    4  A    between atoms: N_22  and  C_23
REMARK    5  A    between atoms: C_23  and  C_24
REMARK                            x       y       z     vdW  Elec       q    Type
REMARK                         _______ _______ _______ _____ _____    ______ ____
ROOT
ATOM      1  C   UNL     1      -0.792  12.073  22.152  0.00  0.00    +0.000 C 
ATOM      2  N   UNL     1      -1.243  13.043  21.051  0.00  0.00    +0.000 NA
ATOM      3  C   UNL     1      -1.061  12.373  19.753  0.00  0.00    +0.000 C 
ATOM      4  C   UNL     1      -0.220  13.123  18.690  0.00  0.00    +0.000 C 
ATOM      5  O   UNL     1       0.719  13.880  18.895  0.00  0.00    +0.000 OA
ATOM      6  N   UNL     1      -0.691  12.675  17.450  0.00  0.00    +0.000 N 
ATOM      7  C   UNL     1      -1.921  12.040  17.586  0.00  0.00    +0.000 A 
ATOM      8  C   UNL     1      -2.709  11.506  16.590  0.00  0.00    +0.000 A 
ATOM      9  C   UNL     1      -3.917  10.911  16.972  0.00  0.00    +0.000 A 
ATOM     10  C   UNL     1      -4.283  10.838  18.328  0.00  0.00    +0.000 A 
ATOM     11 CL   UNL     1      -5.748  10.050  18.771  0.00  0.00    +0.000 Cl
ATOM     12  C   UNL     1      -3.459  11.360  19.324  0.00  0.00    +0.000 A 
ATOM     13  C   UNL     1      -2.276  11.980  18.938  0.00  0.00    +0.000 A 
ATOM     14  C   UNL     1      -0.435  11.068  20.098  0.00  0.00    +0.000 C 
ATOM     15  C   UNL     1       0.712  10.515  19.368  0.00  0.00    +0.000 C 
ATOM     16  O   UNL     1       1.504  11.078  18.613  0.00  0.00    +0.000 OA
ATOM     17  N   UNL     1       0.900   9.332  19.954  0.00  0.00    +0.000 N 
ATOM     18  C   UNL     1       0.594   9.527  21.302  0.00  0.00    +0.000 C 
ATOM     19  O   UNL     1       0.763   8.727  22.212  0.00  0.00    +0.000 OA
ATOM     20  C   UNL     1       0.167  11.074  21.463  0.00  0.00    +0.000 C 
ATOM     21  H   UNL     1      -0.604  13.852  21.050  0.00  0.00    +0.000 HD
ATOM     22  H   UNL     1      -0.200  12.846  16.584  0.00  0.00    +0.000 HD
ENDROOT
BRANCH   1  23
ATOM     23  C   UNL     1      -2.065  11.649  22.910  0.00  0.00    +0.000 C 
BRANCH  23  24
ATOM     24  C   UNL     1      -3.220  12.650  22.857  0.00  0.00    +0.000 C 
BRANCH  24  26
ATOM     25  N   UNL     1      -3.738  13.846  24.910  0.00  0.00    +0.000 N 
ATOM     26  C   UNL     1      -3.984  12.729  24.174  0.00  0.00    +0.000 C 
ATOM     27  O   UNL     1      -4.771  11.881  24.575  0.00  0.00    +0.000 OA
ATOM     28  H   UNL     1      -4.239  13.964  25.782  0.00  0.00    +0.000 HD
ATOM     29  H   UNL     1      -3.130  14.599  24.605  0.00  0.00    +0.000 HD
ENDBRANCH  24  26
ENDBRANCH  23  24
ENDBRANCH   1  23
BRANCH  17  30
ATOM     30  C   UNL     1       1.555   8.258  19.146  0.00  0.00    +0.000 C 
BRANCH  30  31
ATOM     31  C   UNL     1       2.175   7.106  19.966  0.00  0.00    +0.000 C 
ATOM     32  C   UNL     1       1.229   6.000  20.390  0.00  0.00    +0.000 C 
ATOM     33  C   UNL     1       2.208   4.991  20.947  0.00  0.00    +0.000 C 
ATOM     34  C   UNL     1       3.403   5.133  20.015  0.00  0.00    +0.000 C 
ATOM     35  O   UNL     1       3.207   6.365  19.275  0.00  0.00    +0.000 OA
ENDBRANCH  30  31
ENDBRANCH  17  30
TORSDOF 5
ENDMDL
MODEL 7
REMARK VINA RESULT:      -6.7      6.719      9.728
REMARK  Name = 
REMARK  5 active torsions:
REMARK  status: ('A' for Active; 'I' for Inactive)
REMARK    1  A    between atoms: C_2  and  C_4
REMARK    2  A    between atoms: C_4  and  C_5
REMARK    3  A    between atoms: C_5  and  C_6
REMARK    4  A    between atoms: N_22  and  C_23
REMARK    5  A    between atoms: C_23  and  C_24
REMARK                            x       y       z     vdW  Elec       q    Type
REMARK                         _______ _______ _______ _____ _____    ______ ____
ROOT
ATOM      1  C   UNL     1       1.233  10.067  19.240  0.00  0.00    +0.000 C 
ATOM      2  N   UNL     1      -0.189   9.737  19.714  0.00  0.00    +0.000 NA
ATOM      3  C   UNL     1      -1.037  10.914  19.462  0.00  0.00    +0.000 C 
ATOM      4  C   UNL     1      -1.833  11.474  20.667  0.00  0.00    +0.000 C 
ATOM      5  O   UNL     1      -1.496  11.456  21.843  0.00  0.00    +0.000 OA
ATOM      6  N   UNL     1      -2.963  12.093  20.120  0.00  0.00    +0.000 N 
ATOM      7  C   UNL     1      -3.160  11.691  18.803  0.00  0.00    +0.000 A 
ATOM      8  C   UNL     1      -4.184  12.053  17.954  0.00  0.00    +0.000 A 
ATOM      9  C   UNL     1      -4.171  11.517  16.662  0.00  0.00    +0.000 A 
ATOM     10  C   UNL     1      -3.129  10.667  16.248  0.00  0.00    +0.000 A 
ATOM     11 CL   UNL     1      -3.111  10.069  14.634  0.00  0.00    +0.000 Cl
ATOM     12  C   UNL     1      -2.087  10.334  17.112  0.00  0.00    +0.000 A 
ATOM     13  C   UNL     1      -2.121  10.843  18.406  0.00  0.00    +0.000 A 
ATOM     14  C   UNL     1      -0.097  11.936  18.929  0.00  0.00    +0.000 C 
ATOM     15  C   UNL     1      -0.093  13.333  19.382  0.00  0.00    +0.000 C 
ATOM     16  O   UNL     1      -0.588  13.828  20.394  0.00  0.00    +0.000 OA
ATOM     17  N   UNL     1       0.840  13.896  18.615  0.00  0.00    +0.000 N 
ATOM     18  C   UNL     1       1.821  12.920  18.435  0.00  0.00    +0.000 C 
ATOM     19  O   UNL     1       2.912  13.070  17.904  0.00  0.00    +0.000 OA
ATOM     20  C   UNL     1       1.326  11.611  19.239  0.00  0.00    +0.000 C 
ATOM     21  H   UNL     1      -0.169   9.610  20.737  0.00  0.00    +0.000 HD
ATOM     22  H   UNL     1      -3.560  12.711  20.650  0.00  0.00    +0.000 HD
ENDROOT
BRANCH   1  23
ATOM     23  C   UNL     1       1.492   9.197  17.995  0.00  0.00    +0.000 C 
BRANCH  23  24
ATOM     24  C   UNL     1       2.747   8.325  18.059  0.00  0.00    +0.000 C 
BRANCH  24  26
ATOM     25  N   UNL     1       2.441   6.916  20.017  0.00  0.00    +0.000 N 
ATOM     26  C   UNL     1       2.473   6.950  18.658  0.00  0.00    +0.000 C 
ATOM     27  O   UNL     1       2.286   5.931  18.006  0.00  0.00    +0.000 OA
ATOM     28  H   UNL     1       2.236   6.033  20.469  0.00  0.00    +0.000 HD
ATOM     29  H   UNL     1       2.546   7.738  20.604  0.00  0.00    +0.000 HD
ENDBRANCH  24  26
ENDBRANCH  23  24
ENDBRANCH   1  23
BRANCH  17  30
ATOM     30  C   UNL     1       0.729  15.365  18.360  0.00  0.00    +0.000 C 
BRANCH  30  31
ATOM     31  C   UNL     1       1.866  16.223  18.957  0.00  0.00    +0.000 C 
ATOM     32  C   UNL     1       2.379  15.802  20.320  0.00  0.00    +0.000 C 
ATOM     33  C   UNL     1       3.585  16.703  20.457  0.00  0.00    +0.000 C 
ATOM     34  C   UNL     1       4.126  16.757  19.035  0.00  0.00    +0.000 C 
ATOM     35  O   UNL     1       3.081  16.238  18.174  0.00  0.00    +0.000 OA
ENDBRANCH  30  31
ENDBRANCH  17  30
TORSDOF 5
ENDMDL
MODEL 8
REMARK VINA RESULT:      -6.7      7.147      9.244
REMARK  Name = 
REMARK  5 active torsions:
REMARK  status: ('A' for Active; 'I' for Inactive)
REMARK    1  A    between atoms: C_2  and  C_4
REMARK    2  A    between atoms: C_4  and  C_5
REMARK    3  A    between atoms: C_5  and  C_6
REMARK    4  A    between atoms: N_22  and  C_23
REMARK    5  A    between atoms: C_23  and  C_24
REMARK                            x       y       z     vdW  Elec       q    Type
REMARK                         _______ _______ _______ _____ _____    ______ ____
ROOT
ATOM      1  C   UNL     1       3.293   3.647  17.829  0.00  0.00    +0.000 C 
ATOM      2  N   UNL     1       4.519   3.887  16.938  0.00  0.00    +0.000 NA
ATOM      3  C   UNL     1       4.943   5.285  17.115  0.00  0.00    +0.000 C 
ATOM      4  C   UNL     1       5.081   6.143  15.834  0.00  0.00    +0.000 C 
ATOM      5  O   UNL     1       4.424   6.042  14.807  0.00  0.00    +0.000 OA
ATOM      6  N   UNL     1       6.040   7.119  16.132  0.00  0.00    +0.000 N 
ATOM      7  C   UNL     1       6.762   6.772  17.269  0.00  0.00    +0.000 A 
ATOM      8  C   UNL     1       7.808   7.461  17.846  0.00  0.00    +0.000 A 
ATOM      9  C   UNL     1       8.383   6.913  18.998  0.00  0.00    +0.000 A 
ATOM     10  C   UNL     1       7.881   5.723  19.555  0.00  0.00    +0.000 A 
ATOM     11 CL   UNL     1       8.572   5.104  21.005  0.00  0.00    +0.000 Cl
ATOM     12  C   UNL     1       6.803   5.056  18.973  0.00  0.00    +0.000 A 
ATOM     13  C   UNL     1       6.256   5.585  17.809  0.00  0.00    +0.000 A 
ATOM     14  C   UNL     1       3.924   5.864  18.032  0.00  0.00    +0.000 C 
ATOM     15  C   UNL     1       3.300   7.174  17.807  0.00  0.00    +0.000 C 
ATOM     16  O   UNL     1       3.254   7.853  16.781  0.00  0.00    +0.000 OA
ATOM     17  N   UNL     1       2.518   7.322  18.876  0.00  0.00    +0.000 N 
ATOM     18  C   UNL     1       2.041   6.045  19.174  0.00  0.00    +0.000 C 
ATOM     19  O   UNL     1       1.187   5.759  20.002  0.00  0.00    +0.000 OA
ATOM     20  C   UNL     1       2.679   5.044  18.082  0.00  0.00    +0.000 C 
ATOM     21  H   UNL     1       4.227   3.797  15.953  0.00  0.00    +0.000 HD
ATOM     22  H   UNL     1       6.192   7.932  15.553  0.00  0.00    +0.000 HD
ENDROOT
BRANCH   1  23
ATOM     23  C   UNL     1       3.749   2.699  18.955  0.00  0.00    +0.000 C 
BRANCH  23  24
ATOM     24  C   UNL     1       2.634   1.890  19.619  0.00  0.00    +0.000 C 
BRANCH  24  26
ATOM     25  N   UNL     1       0.839   3.031  20.798  0.00  0.00    +0.000 N 
ATOM     26  C   UNL     1       2.109   2.550  20.888  0.00  0.00    +0.000 C 
ATOM     27  O   UNL     1       2.741   2.658  21.931  0.00  0.00    +0.000 OA
ATOM     28  H   UNL     1       0.429   3.457  21.621  0.00  0.00    +0.000 HD
ATOM     29  H   UNL     1       0.256   2.930  19.974  0.00  0.00    +0.000 HD
ENDBRANCH  24  26
ENDBRANCH  23  24
ENDBRANCH   1  23
BRANCH  17  30
ATOM     30  C   UNL     1       2.190   8.717  19.303  0.00  0.00    +0.000 C 
BRANCH  30  31
ATOM     31  C   UNL     1       1.011   8.841  20.292  0.00  0.00    +0.000 C 
ATOM     32  C   UNL     1       1.360   8.761  21.765  0.00  0.00    +0.000 C 
ATOM     33  C   UNL     1       0.035   9.137  22.389  0.00  0.00    +0.000 C 
ATOM     34  C   UNL     1      -0.500  10.191  21.430  0.00  0.00    +0.000 C 
ATOM     35  O   UNL     1       0.299  10.097  20.224  0.00  0.00    +0.000 OA
ENDBRANCH  30  31
ENDBRANCH  17  30
TORSDOF 5
ENDMDL
MODEL 9
REMARK VINA RESULT:      -6.6      7.495      9.803
REMARK  Name = 
REMARK  5 active torsions:
REMARK  status: ('A' for Active; 'I' for Inactive)
REMARK    1  A    between atoms: C_2  and  C_4
REMARK    2  A    between atoms: C_4  and  C_5
REMARK    3  A    between atoms: C_5  and  C_6
REMARK    4  A    between atoms: N_22  and  C_23
REMARK    5  A    between atoms: C_23  and  C_24
REMARK                            x       y       z     vdW  Elec       q    Type
REMARK                         _______ _______ _______ _____ _____    ______ ____
ROOT
ATOM      1  C   UNL     1       1.489  10.684  19.119  0.00  0.00    +0.000 C 
ATOM      2  N   UNL     1       0.139  10.121  19.586  0.00  0.00    +0.000 NA
ATOM      3  C   UNL     1      -0.883  11.158  19.374  0.00  0.00    +0.000 C 
ATOM      4  C   UNL     1      -1.748  11.550  20.597  0.00  0.00    +0.000 C 
ATOM      5  O   UNL     1      -1.404  11.550  21.771  0.00  0.00    +0.000 OA
ATOM      6  N   UNL     1      -2.965  12.001  20.072  0.00  0.00    +0.000 N 
ATOM      7  C   UNL     1      -3.106  11.613  18.744  0.00  0.00    +0.000 A 
ATOM      8  C   UNL     1      -4.181  11.837  17.909  0.00  0.00    +0.000 A 
ATOM      9  C   UNL     1      -4.094  11.348  16.601  0.00  0.00    +0.000 A 
ATOM     10  C   UNL     1      -2.935  10.685  16.158  0.00  0.00    +0.000 A 
ATOM     11 CL   UNL     1      -2.836  10.146  14.526  0.00  0.00    +0.000 Cl
ATOM     12  C   UNL     1      -1.847  10.493  17.009  0.00  0.00    +0.000 A 
ATOM     13  C   UNL     1      -1.951  10.950  18.318  0.00  0.00    +0.000 A 
ATOM     14  C   UNL     1      -0.118  12.330  18.869  0.00  0.00    +0.000 C 
ATOM     15  C   UNL     1      -0.330  13.696  19.366  0.00  0.00    +0.000 C 
ATOM     16  O   UNL     1      -0.889  14.076  20.394  0.00  0.00    +0.000 OA
ATOM     17  N   UNL     1       0.498  14.421  18.614  0.00  0.00    +0.000 N 
ATOM     18  C   UNL     1       1.618  13.616  18.402  0.00  0.00    +0.000 C 
ATOM     19  O   UNL     1       2.669  13.951  17.873  0.00  0.00    +0.000 OA
ATOM     20  C   UNL     1       1.340  12.222  19.166  0.00  0.00    +0.000 C 
ATOM     21  H   UNL     1       0.187   9.968  20.605  0.00  0.00    +0.000 HD
ATOM     22  H   UNL     1      -3.648  12.501  20.623  0.00  0.00    +0.000 HD
ENDROOT
BRANCH   1  23
ATOM     23  C   UNL     1       1.872   9.902  17.847  0.00  0.00    +0.000 C 
BRANCH  23  24
ATOM     24  C   UNL     1       1.466   8.428  17.840  0.00  0.00    +0.000 C 
BRANCH  24  26
ATOM     25  N   UNL     1       2.176   7.365  19.909  0.00  0.00    +0.000 N 
ATOM     26  C   UNL     1       2.457   7.546  18.590  0.00  0.00    +0.000 C 
ATOM     27  O   UNL     1       3.440   7.017  18.086  0.00  0.00    +0.000 OA
ATOM     28  H   UNL     1       2.787   6.766  20.451  0.00  0.00    +0.000 HD
ATOM     29  H   UNL     1       1.353   7.744  20.366  0.00  0.00    +0.000 HD
ENDBRANCH  24  26
ENDBRANCH  23  24
ENDBRANCH   1  23
BRANCH  17  30
ATOM     30  C   UNL     1       0.157  15.861  18.405  0.00  0.00    +0.000 C 
BRANCH  30  31
ATOM     31  C   UNL     1       1.016  16.863  19.208  0.00  0.00    +0.000 C 
ATOM     32  C   UNL     1       0.277  18.029  19.834  0.00  0.00    +0.000 C 
ATOM     33  C   UNL     1       1.370  18.631  20.687  0.00  0.00    +0.000 C 
ATOM     34  C   UNL     1       2.126  17.403  21.177  0.00  0.00    +0.000 C 
ATOM     35  O   UNL     1       1.692  16.293  20.352  0.00  0.00    +0.000 OA
ENDBRANCH  30  31
ENDBRANCH  17  30
TORSDOF 5
ENDMDL
