MODEL 1
REMARK VINA RESULT:      -6.0      0.000      0.000
REMARK  Name = 
REMARK  11 active torsions:
REMARK  status: ('A' for Active; 'I' for Inactive)
REMARK    1  A    between atoms: C_1  and  C_2
REMARK    2  A    between atoms: C_2  and  O_3
REMARK    3  A    between atoms: O_3  and  C_4
REMARK    4  A    between atoms: C_4  and  C_6
REMARK    5  A    between atoms: C_6  and  C_7
REMARK    6  A    between atoms: C_6  and  C_8
REMARK    7  A    between atoms: C_6  and  C_12
REMARK    8  A    between atoms: C_8  and  C_9
REMARK    9  A    between atoms: C_9  and  C_10
REMARK   10  A    between atoms: C_9  and  C_11
REMARK   11  A    between atoms: N_14  and  O_15
REMARK                            x       y       z     vdW  Elec       q    Type
REMARK                         _______ _______ _______ _____ _____    ______ ____
ROOT
ATOM      1  C   UNL     1       3.781   4.289  17.887  0.00  0.00    +0.000 C 
ATOM      2  C   UNL     1       2.912   3.229  17.172  0.00  0.00    +0.000 C 
ENDROOT
BRANCH   1   3
ATOM      3  C   UNL     1       4.646   3.567  18.922  0.00  0.00    +0.000 C 
ATOM      4  O   UNL     1       5.600   4.083  19.506  0.00  0.00    +0.000 OA
ATOM      5  N   UNL     1       4.324   2.248  19.169  0.00  0.00    +0.000 N 
ATOM      6  H   UNL     1       3.779   1.669  18.540  0.00  0.00    +0.000 HD
BRANCH   5   7
ATOM      7  O   UNL     1       5.227   1.561  20.013  0.00  0.00    +0.000 OA
ATOM      8  H   UNL     1       5.322   2.182  20.772  0.00  0.00    +0.000 HD
ENDBRANCH   5   7
ENDBRANCH   1   3
BRANCH   1   9
ATOM      9  C   UNL     1       2.834   5.292  18.548  0.00  0.00    +0.000 C 
ATOM     10  O   UNL     1       3.070   6.488  18.664  0.00  0.00    +0.000 OA
BRANCH   9  11
ATOM     11  O   UNL     1       1.687   4.704  18.983  0.00  0.00    +0.000 OA
BRANCH  11  13
ATOM     12  C   UNL     1       1.253   3.240  20.920  0.00  0.00    +0.000 C 
ATOM     13  C   UNL     1       1.531   4.642  20.410  0.00  0.00    +0.000 C 
ENDBRANCH  11  13
ENDBRANCH   9  11
ENDBRANCH   1   9
BRANCH   1  14
ATOM     14  C   UNL     1       4.655   5.013  16.814  0.00  0.00    +0.000 C 
BRANCH  14  15
ATOM     15  C   UNL     1       5.658   4.166  15.981  0.00  0.00    +0.000 C 
ATOM     16  C   UNL     1       5.503   4.322  14.470  0.00  0.00    +0.000 C 
ATOM     17  C   UNL     1       7.094   4.534  16.378  0.00  0.00    +0.000 C 
ENDBRANCH  14  15
ENDBRANCH   1  14
TORSDOF 7
ENDMDL
MODEL 2
REMARK VINA RESULT:      -6.0      3.145      5.362
REMARK  Name = 
REMARK  11 active torsions:
REMARK  status: ('A' for Active; 'I' for Inactive)
REMARK    1  A    between atoms: C_1  and  C_2
REMARK    2  A    between atoms: C_2  and  O_3
REMARK    3  A    between atoms: O_3  and  C_4
REMARK    4  A    between atoms: C_4  and  C_6
REMARK    5  A    between atoms: C_6  and  C_7
REMARK    6  A    between atoms: C_6  and  C_8
REMARK    7  A    between atoms: C_6  and  C_12
REMARK    8  A    between atoms: C_8  and  C_9
REMARK    9  A    between atoms: C_9  and  C_10
REMARK   10  A    between atoms: C_9  and  C_11
REMARK   11  A    between atoms: N_14  and  O_15
REMARK                            x       y       z     vdW  Elec       q    Type
REMARK                         _______ _______ _______ _____ _____    ______ ____
ROOT
ATOM      1  C   UNL     1       5.996   5.169  16.463  0.00  0.00    +0.000 C 
ATOM      2  C   UNL     1       5.142   6.456  16.416  0.00  0.00    +0.000 C 
ENDROOT
BRANCH   1   3
ATOM      3  C   UNL     1       7.078   5.361  17.529  0.00  0.00    +0.000 C 
ATOM      4  O   UNL     1       7.610   4.439  18.149  0.00  0.00    +0.000 OA
ATOM      5  N   UNL     1       7.433   6.665  17.805  0.00  0.00    +0.000 N 
ATOM      6  H   UNL     1       6.859   7.470  17.582  0.00  0.00    +0.000 HD
BRANCH   5   7
ATOM      7  O   UNL     1       8.321   6.825  18.894  0.00  0.00    +0.000 OA
ATOM      8  H   UNL     1       8.596   5.897  19.082  0.00  0.00    +0.000 HD
ENDBRANCH   5   7
ENDBRANCH   1   3
BRANCH   1   9
ATOM      9  C   UNL     1       6.606   4.968  15.075  0.00  0.00    +0.000 C 
ATOM     10  O   UNL     1       7.701   5.397  14.735  0.00  0.00    +0.000 OA
BRANCH   9  11
ATOM     11  O   UNL     1       5.793   4.244  14.259  0.00  0.00    +0.000 OA
BRANCH  11  13
ATOM     12  C   UNL     1       5.407   3.227  12.045  0.00  0.00    +0.000 C 
ATOM     13  C   UNL     1       6.409   3.754  13.056  0.00  0.00    +0.000 C 
ENDBRANCH  11  13
ENDBRANCH   9  11
ENDBRANCH   1   9
BRANCH   1  14
ATOM     14  C   UNL     1       5.058   3.969  16.809  0.00  0.00    +0.000 C 
BRANCH  14  15
ATOM     15  C   UNL     1       4.001   4.155  17.934  0.00  0.00    +0.000 C 
ATOM     16  C   UNL     1       2.573   3.822  17.508  0.00  0.00    +0.000 C 
ATOM     17  C   UNL     1       4.380   3.287  19.142  0.00  0.00    +0.000 C 
ENDBRANCH  14  15
ENDBRANCH   1  14
TORSDOF 7
ENDMDL
MODEL 3
REMARK VINA RESULT:      -6.0      1.218      1.426
REMARK  Name = 
REMARK  11 active torsions:
REMARK  status: ('A' for Active; 'I' for Inactive)
REMARK    1  A    between atoms: C_1  and  C_2
REMARK    2  A    between atoms: C_2  and  O_3
REMARK    3  A    between atoms: O_3  and  C_4
REMARK    4  A    between atoms: C_4  and  C_6
REMARK    5  A    between atoms: C_6  and  C_7
REMARK    6  A    between atoms: C_6  and  C_8
REMARK    7  A    between atoms: C_6  and  C_12
REMARK    8  A    between atoms: C_8  and  C_9
REMARK    9  A    between atoms: C_9  and  C_10
REMARK   10  A    between atoms: C_9  and  C_11
REMARK   11  A    between atoms: N_14  and  O_15
REMARK                            x       y       z     vdW  Elec       q    Type
REMARK                         _______ _______ _______ _____ _____    ______ ____
ROOT
ATOM      1  C   UNL     1       3.808   4.014  18.277  0.00  0.00    +0.000 C 
ATOM      2  C   UNL     1       2.680   3.854  17.233  0.00  0.00    +0.000 C 
ENDROOT
BRANCH   1   3
ATOM      3  C   UNL     1       4.091   2.636  18.879  0.00  0.00    +0.000 C 
ATOM      4  O   UNL     1       3.416   1.631  18.655  0.00  0.00    +0.000 OA
ATOM      5  N   UNL     1       5.163   2.562  19.746  0.00  0.00    +0.000 N 
ATOM      6  H   UNL     1       5.572   3.362  20.214  0.00  0.00    +0.000 HD
BRANCH   5   7
ATOM      7  O   UNL     1       5.314   1.319  20.404  0.00  0.00    +0.000 OA
ATOM      8  H   UNL     1       5.940   1.538  21.132  0.00  0.00    +0.000 HD
ENDBRANCH   5   7
ENDBRANCH   1   3
BRANCH   1   9
ATOM      9  C   UNL     1       3.319   5.001  19.337  0.00  0.00    +0.000 C 
ATOM     10  O   UNL     1       3.180   6.203  19.148  0.00  0.00    +0.000 OA
BRANCH   9  11
ATOM     11  O   UNL     1       3.040   4.387  20.519  0.00  0.00    +0.000 OA
BRANCH  11  13
ATOM     12  C   UNL     1       1.255   2.853  21.254  0.00  0.00    +0.000 C 
ATOM     13  C   UNL     1       1.644   4.257  20.831  0.00  0.00    +0.000 C 
ENDBRANCH  11  13
ENDBRANCH   9  11
ENDBRANCH   1   9
BRANCH   1  14
ATOM     14  C   UNL     1       5.067   4.593  17.555  0.00  0.00    +0.000 C 
BRANCH  14  15
ATOM     15  C   UNL     1       4.998   4.831  16.020  0.00  0.00    +0.000 C 
ATOM     16  C   UNL     1       5.251   6.277  15.601  0.00  0.00    +0.000 C 
ATOM     17  C   UNL     1       6.011   3.920  15.314  0.00  0.00    +0.000 C 
ENDBRANCH  14  15
ENDBRANCH   1  14
TORSDOF 7
ENDMDL
MODEL 4
REMARK VINA RESULT:      -6.0      2.034      3.527
REMARK  Name = 
REMARK  11 active torsions:
REMARK  status: ('A' for Active; 'I' for Inactive)
REMARK    1  A    between atoms: C_1  and  C_2
REMARK    2  A    between atoms: C_2  and  O_3
REMARK    3  A    between atoms: O_3  and  C_4
REMARK    4  A    between atoms: C_4  and  C_6
REMARK    5  A    between atoms: C_6  and  C_7
REMARK    6  A    between atoms: C_6  and  C_8
REMARK    7  A    between atoms: C_6  and  C_12
REMARK    8  A    between atoms: C_8  and  C_9
REMARK    9  A    between atoms: C_9  and  C_10
REMARK   10  A    between atoms: C_9  and  C_11
REMARK   11  A    between atoms: N_14  and  O_15
REMARK                            x       y       z     vdW  Elec       q    Type
REMARK                         _______ _______ _______ _____ _____    ______ ____
ROOT
ATOM      1  C   UNL     1       4.413   4.256  18.134  0.00  0.00    +0.000 C 
ATOM      2  C   UNL     1       3.247   4.045  17.141  0.00  0.00    +0.000 C 
ENDROOT
BRANCH   1   3
ATOM      3  C   UNL     1       5.723   4.152  17.351  0.00  0.00    +0.000 C 
ATOM      4  O   UNL     1       5.793   3.892  16.149  0.00  0.00    +0.000 OA
ATOM      5  N   UNL     1       6.881   4.341  18.078  0.00  0.00    +0.000 N 
ATOM      6  H   UNL     1       6.939   4.256  19.086  0.00  0.00    +0.000 HD
BRANCH   5   7
ATOM      7  O   UNL     1       8.079   4.093  17.368  0.00  0.00    +0.000 OA
ATOM      8  H   UNL     1       8.609   4.903  17.555  0.00  0.00    +0.000 HD
ENDBRANCH   5   7
ENDBRANCH   1   3
BRANCH   1   9
ATOM      9  C   UNL     1       4.310   3.168  19.204  0.00  0.00    +0.000 C 
ATOM     10  O   UNL     1       5.231   2.838  19.941  0.00  0.00    +0.000 OA
BRANCH   9  11
ATOM     11  O   UNL     1       3.069   2.614  19.254  0.00  0.00    +0.000 OA
BRANCH  11  13
ATOM     12  C   UNL     1       1.039   3.368  20.434  0.00  0.00    +0.000 C 
ATOM     13  C   UNL     1       2.403   2.710  20.524  0.00  0.00    +0.000 C 
ENDBRANCH  11  13
ENDBRANCH   9  11
ENDBRANCH   1   9
BRANCH   1  14
ATOM     14  C   UNL     1       4.250   5.664  18.792  0.00  0.00    +0.000 C 
BRANCH  14  15
ATOM     15  C   UNL     1       2.898   6.411  18.618  0.00  0.00    +0.000 C 
ATOM     16  C   UNL     1       2.226   6.799  19.934  0.00  0.00    +0.000 C 
ATOM     17  C   UNL     1       3.115   7.675  17.775  0.00  0.00    +0.000 C 
ENDBRANCH  14  15
ENDBRANCH   1  14
TORSDOF 7
ENDMDL
MODEL 5
REMARK VINA RESULT:      -5.9      1.352      1.773
REMARK  Name = 
REMARK  11 active torsions:
REMARK  status: ('A' for Active; 'I' for Inactive)
REMARK    1  A    between atoms: C_1  and  C_2
REMARK    2  A    between atoms: C_2  and  O_3
REMARK    3  A    between atoms: O_3  and  C_4
REMARK    4  A    between atoms: C_4  and  C_6
REMARK    5  A    between atoms: C_6  and  C_7
REMARK    6  A    between atoms: C_6  and  C_8
REMARK    7  A    between atoms: C_6  and  C_12
REMARK    8  A    between atoms: C_8  and  C_9
REMARK    9  A    between atoms: C_9  and  C_10
REMARK   10  A    between atoms: C_9  and  C_11
REMARK   11  A    between atoms: N_14  and  O_15
REMARK                            x       y       z     vdW  Elec       q    Type
REMARK                         _______ _______ _______ _____ _____    ______ ____
ROOT
ATOM      1  C   UNL     1       4.293   4.506  18.545  0.00  0.00    +0.000 C 
ATOM      2  C   UNL     1       4.038   4.515  17.021  0.00  0.00    +0.000 C 
ENDROOT
BRANCH   1   3
ATOM      3  C   UNL     1       4.459   3.050  18.986  0.00  0.00    +0.000 C 
ATOM      4  O   UNL     1       5.029   2.700  20.021  0.00  0.00    +0.000 OA
ATOM      5  N   UNL     1       3.950   2.094  18.130  0.00  0.00    +0.000 N 
ATOM      6  H   UNL     1       3.749   2.259  17.150  0.00  0.00    +0.000 HD
BRANCH   5   7
ATOM      7  O   UNL     1       4.247   0.757  18.482  0.00  0.00    +0.000 OA
ATOM      8  H   UNL     1       5.057   0.573  17.953  0.00  0.00    +0.000 HD
ENDBRANCH   5   7
ENDBRANCH   1   3
BRANCH   1   9
ATOM      9  C   UNL     1       3.087   5.162  19.218  0.00  0.00    +0.000 C 
ATOM     10  O   UNL     1       3.065   6.321  19.613  0.00  0.00    +0.000 OA
BRANCH   9  11
ATOM     11  O   UNL     1       2.030   4.311  19.318  0.00  0.00    +0.000 OA
BRANCH  11  13
ATOM     12  C   UNL     1       1.367   2.877  21.212  0.00  0.00    +0.000 C 
ATOM     13  C   UNL     1       1.394   4.268  20.606  0.00  0.00    +0.000 C 
ENDBRANCH  11  13
ENDBRANCH   9  11
ENDBRANCH   1   9
BRANCH   1  14
ATOM     14  C   UNL     1       5.581   5.341  18.833  0.00  0.00    +0.000 C 
BRANCH  14  15
ATOM     15  C   UNL     1       6.572   5.604  17.665  0.00  0.00    +0.000 C 
ATOM     16  C   UNL     1       7.209   6.991  17.687  0.00  0.00    +0.000 C 
ATOM     17  C   UNL     1       7.680   4.543  17.683  0.00  0.00    +0.000 C 
ENDBRANCH  14  15
ENDBRANCH   1  14
TORSDOF 7
ENDMDL
MODEL 6
REMARK VINA RESULT:      -5.9      2.810      5.185
REMARK  Name = 
REMARK  11 active torsions:
REMARK  status: ('A' for Active; 'I' for Inactive)
REMARK    1  A    between atoms: C_1  and  C_2
REMARK    2  A    between atoms: C_2  and  O_3
REMARK    3  A    between atoms: O_3  and  C_4
REMARK    4  A    between atoms: C_4  and  C_6
REMARK    5  A    between atoms: C_6  and  C_7
REMARK    6  A    between atoms: C_6  and  C_8
REMARK    7  A    between atoms: C_6  and  C_12
REMARK    8  A    between atoms: C_8  and  C_9
REMARK    9  A    between atoms: C_9  and  C_10
REMARK   10  A    between atoms: C_9  and  C_11
REMARK   11  A    between atoms: N_14  and  O_15
REMARK                            x       y       z     vdW  Elec       q    Type
REMARK                         _______ _______ _______ _____ _____    ______ ____
ROOT
ATOM      1  C   UNL     1       5.662   5.246  16.284  0.00  0.00    +0.000 C 
ATOM      2  C   UNL     1       4.954   6.598  16.044  0.00  0.00    +0.000 C 
ENDROOT
BRANCH   1   3
ATOM      3  C   UNL     1       6.624   5.420  17.461  0.00  0.00    +0.000 C 
ATOM      4  O   UNL     1       6.761   6.468  18.094  0.00  0.00    +0.000 OA
ATOM      5  N   UNL     1       7.391   4.320  17.786  0.00  0.00    +0.000 N 
ATOM      6  H   UNL     1       7.568   3.545  17.157  0.00  0.00    +0.000 HD
BRANCH   5   7
ATOM      7  O   UNL     1       8.376   4.549  18.775  0.00  0.00    +0.000 OA
ATOM      8  H   UNL     1       8.271   5.511  18.961  0.00  0.00    +0.000 HD
ENDBRANCH   5   7
ENDBRANCH   1   3
BRANCH   1   9
ATOM      9  C   UNL     1       6.406   4.879  14.999  0.00  0.00    +0.000 C 
ATOM     10  O   UNL     1       7.553   5.225  14.746  0.00  0.00    +0.000 OA
BRANCH   9  11
ATOM     11  O   UNL     1       5.650   4.110  14.170  0.00  0.00    +0.000 OA
BRANCH  11  13
ATOM     12  C   UNL     1       5.331   3.144  11.924  0.00  0.00    +0.000 C 
ATOM     13  C   UNL     1       6.297   3.694  12.957  0.00  0.00    +0.000 C 
ENDBRANCH  11  13
ENDBRANCH   9  11
ENDBRANCH   1   9
BRANCH   1  14
ATOM     14  C   UNL     1       4.572   4.169  16.591  0.00  0.00    +0.000 C 
BRANCH  14  15
ATOM     15  C   UNL     1       3.752   4.298  17.905  0.00  0.00    +0.000 C 
ATOM     16  C   UNL     1       2.244   4.402  17.691  0.00  0.00    +0.000 C 
ATOM     17  C   UNL     1       4.048   3.098  18.815  0.00  0.00    +0.000 C 
ENDBRANCH  14  15
ENDBRANCH   1  14
TORSDOF 7
ENDMDL
MODEL 7
REMARK VINA RESULT:      -5.9      1.852      2.404
REMARK  Name = 
REMARK  11 active torsions:
REMARK  status: ('A' for Active; 'I' for Inactive)
REMARK    1  A    between atoms: C_1  and  C_2
REMARK    2  A    between atoms: C_2  and  O_3
REMARK    3  A    between atoms: O_3  and  C_4
REMARK    4  A    between atoms: C_4  and  C_6
REMARK    5  A    between atoms: C_6  and  C_7
REMARK    6  A    between atoms: C_6  and  C_8
REMARK    7  A    between atoms: C_6  and  C_12
REMARK    8  A    between atoms: C_8  and  C_9
REMARK    9  A    between atoms: C_9  and  C_10
REMARK   10  A    between atoms: C_9  and  C_11
REMARK   11  A    between atoms: N_14  and  O_15
REMARK                            x       y       z     vdW  Elec       q    Type
REMARK                         _______ _______ _______ _____ _____    ______ ____
ROOT
ATOM      1  C   UNL     1       3.397   3.714  18.075  0.00  0.00    +0.000 C 
ATOM      2  C   UNL     1       3.839   3.613  16.598  0.00  0.00    +0.000 C 
ENDROOT
BRANCH   1   3
ATOM      3  C   UNL     1       4.104   2.604  18.856  0.00  0.00    +0.000 C 
ATOM      4  O   UNL     1       4.827   2.799  19.834  0.00  0.00    +0.000 OA
ATOM      5  N   UNL     1       3.920   1.319  18.387  0.00  0.00    +0.000 N 
ATOM      6  H   UNL     1       3.610   1.096  17.448  0.00  0.00    +0.000 HD
BRANCH   5   7
ATOM      7  O   UNL     1       4.700   0.331  19.030  0.00  0.00    +0.000 OA
ATOM      8  H   UNL     1       4.877   0.738  19.910  0.00  0.00    +0.000 HD
ENDBRANCH   5   7
ENDBRANCH   1   3
BRANCH   1   9
ATOM      9  C   UNL     1       1.877   3.546  18.114  0.00  0.00    +0.000 C 
ATOM     10  O   UNL     1       1.104   4.092  17.338  0.00  0.00    +0.000 OA
BRANCH   9  11
ATOM     11  O   UNL     1       1.479   2.705  19.107  0.00  0.00    +0.000 OA
BRANCH  11  13
ATOM     12  C   UNL     1       1.601   2.844  21.567  0.00  0.00    +0.000 C 
ATOM     13  C   UNL     1       0.962   3.346  20.285  0.00  0.00    +0.000 C 
ENDBRANCH  11  13
ENDBRANCH   9  11
ENDBRANCH   1   9
BRANCH   1  14
ATOM     14  C   UNL     1       3.788   5.128  18.610  0.00  0.00    +0.000 C 
BRANCH  14  15
ATOM     15  C   UNL     1       3.773   6.326  17.619  0.00  0.00    +0.000 C 
ATOM     16  C   UNL     1       2.881   7.486  18.055  0.00  0.00    +0.000 C 
ATOM     17  C   UNL     1       5.204   6.842  17.418  0.00  0.00    +0.000 C 
ENDBRANCH  14  15
ENDBRANCH   1  14
TORSDOF 7
ENDMDL
MODEL 8
REMARK VINA RESULT:      -5.9      1.614      2.042
REMARK  Name = 
REMARK  11 active torsions:
REMARK  status: ('A' for Active; 'I' for Inactive)
REMARK    1  A    between atoms: C_1  and  C_2
REMARK    2  A    between atoms: C_2  and  O_3
REMARK    3  A    between atoms: O_3  and  C_4
REMARK    4  A    between atoms: C_4  and  C_6
REMARK    5  A    between atoms: C_6  and  C_7
REMARK    6  A    between atoms: C_6  and  C_8
REMARK    7  A    between atoms: C_6  and  C_12
REMARK    8  A    between atoms: C_8  and  C_9
REMARK    9  A    between atoms: C_9  and  C_10
REMARK   10  A    between atoms: C_9  and  C_11
REMARK   11  A    between atoms: N_14  and  O_15
REMARK                            x       y       z     vdW  Elec       q    Type
REMARK                         _______ _______ _______ _____ _____    ______ ____
ROOT
ATOM      1  C   UNL     1       3.668   3.913  18.141  0.00  0.00    +0.000 C 
ATOM      2  C   UNL     1       3.981   3.817  16.631  0.00  0.00    +0.000 C 
ENDROOT
BRANCH   1   3
ATOM      3  C   UNL     1       4.032   2.572  18.783  0.00  0.00    +0.000 C 
ATOM      4  O   UNL     1       3.443   1.514  18.559  0.00  0.00    +0.000 OA
ATOM      5  N   UNL     1       5.075   2.596  19.687  0.00  0.00    +0.000 N 
ATOM      6  H   UNL     1       5.406   3.434  20.151  0.00  0.00    +0.000 HD
BRANCH   5   7
ATOM      7  O   UNL     1       5.296   1.381  20.377  0.00  0.00    +0.000 OA
ATOM      8  H   UNL     1       4.450   0.897  20.230  0.00  0.00    +0.000 HD
ENDBRANCH   5   7
ENDBRANCH   1   3
BRANCH   1   9
ATOM      9  C   UNL     1       2.176   4.217  18.284  0.00  0.00    +0.000 C 
ATOM     10  O   UNL     1       1.349   4.037  17.400  0.00  0.00    +0.000 OA
BRANCH   9  11
ATOM     11  O   UNL     1       1.868   4.700  19.518  0.00  0.00    +0.000 OA
BRANCH  11  13
ATOM     12  C   UNL     1       1.545   3.083  21.353  0.00  0.00    +0.000 C 
ATOM     13  C   UNL     1       0.912   3.926  20.261  0.00  0.00    +0.000 C 
ENDBRANCH  11  13
ENDBRANCH   9  11
ENDBRANCH   1   9
BRANCH   1  14
ATOM     14  C   UNL     1       4.509   5.083  18.744  0.00  0.00    +0.000 C 
BRANCH  14  15
ATOM     15  C   UNL     1       5.775   5.558  17.978  0.00  0.00    +0.000 C 
ATOM     16  C   UNL     1       5.616   6.912  17.290  0.00  0.00    +0.000 C 
ATOM     17  C   UNL     1       6.965   5.623  18.945  0.00  0.00    +0.000 C 
ENDBRANCH  14  15
ENDBRANCH   1  14
TORSDOF 7
ENDMDL
MODEL 9
REMARK VINA RESULT:      -5.8      2.107      3.846
REMARK  Name = 
REMARK  11 active torsions:
REMARK  status: ('A' for Active; 'I' for Inactive)
REMARK    1  A    between atoms: C_1  and  C_2
REMARK    2  A    between atoms: C_2  and  O_3
REMARK    3  A    between atoms: O_3  and  C_4
REMARK    4  A    between atoms: C_4  and  C_6
REMARK    5  A    between atoms: C_6  and  C_7
REMARK    6  A    between atoms: C_6  and  C_8
REMARK    7  A    between atoms: C_6  and  C_12
REMARK    8  A    between atoms: C_8  and  C_9
REMARK    9  A    between atoms: C_9  and  C_10
REMARK   10  A    between atoms: C_9  and  C_11
REMARK   11  A    between atoms: N_14  and  O_15
REMARK                            x       y       z     vdW  Elec       q    Type
REMARK                         _______ _______ _______ _____ _____    ______ ____
ROOT
ATOM      1  C   UNL     1       4.685   4.729  18.498  0.00  0.00    +0.000 C 
ATOM      2  C   UNL     1       4.350   5.247  17.081  0.00  0.00    +0.000 C 
ENDROOT
BRANCH   1   3
ATOM      3  C   UNL     1       6.209   4.702  18.641  0.00  0.00    +0.000 C 
ATOM      4  O   UNL     1       6.832   5.292  19.524  0.00  0.00    +0.000 OA
ATOM      5  N   UNL     1       6.895   3.982  17.684  0.00  0.00    +0.000 N 
ATOM      6  H   UNL     1       6.513   3.730  16.780  0.00  0.00    +0.000 HD
BRANCH   5   7
ATOM      7  O   UNL     1       8.304   4.095  17.748  0.00  0.00    +0.000 OA
ATOM      8  H   UNL     1       8.455   4.335  18.692  0.00  0.00    +0.000 HD
ENDBRANCH   5   7
ENDBRANCH   1   3
BRANCH   1   9
ATOM      9  C   UNL     1       4.084   3.330  18.632  0.00  0.00    +0.000 C 
ATOM     10  O   UNL     1       4.427   2.511  19.475  0.00  0.00    +0.000 OA
BRANCH   9  11
ATOM     11  O   UNL     1       3.109   3.100  17.712  0.00  0.00    +0.000 OA
BRANCH  11  13
ATOM     12  C   UNL     1       0.939   2.557  18.751  0.00  0.00    +0.000 C 
ATOM     13  C   UNL     1       2.183   2.052  18.043  0.00  0.00    +0.000 C 
ENDBRANCH  11  13
ENDBRANCH   9  11
ENDBRANCH   1   9
BRANCH   1  14
ATOM     14  C   UNL     1       4.030   5.691  19.540  0.00  0.00    +0.000 C 
BRANCH  14  15
ATOM     15  C   UNL     1       2.513   6.001  19.411  0.00  0.00    +0.000 C 
ATOM     16  C   UNL     1       1.687   5.597  20.631  0.00  0.00    +0.000 C 
ATOM     17  C   UNL     1       2.316   7.500  19.146  0.00  0.00    +0.000 C 
ENDBRANCH  14  15
ENDBRANCH   1  14
TORSDOF 7
ENDMDL
