MODEL 1
REMARK VINA RESULT:      -8.1      0.000      0.000
REMARK  Name = 
REMARK  7 active torsions:
REMARK  status: ('A' for Active; 'I' for Inactive)
REMARK    1  A    between atoms: C_1  and  C_2
REMARK    2  A    between atoms: C_2  and  C_3
REMARK    3  A    between atoms: C_2  and  N_4
REMARK    4  A    between atoms: C_6  and  C_7
REMARK    5  A    between atoms: C_10  and  N_11
REMARK    6  A    between atoms: N_14  and  C_15
REMARK    7  A    between atoms: C_30  and  C_31
REMARK                            x       y       z     vdW  Elec       q    Type
REMARK                         _______ _______ _______ _____ _____    ______ ____
ROOT
ATOM      1  C   UNL     1       1.733   8.774  17.757  0.00  0.00    +0.000 C 
ATOM      2  C   UNL     1       0.273   9.151  18.079  0.00  0.00    +0.000 C 
ATOM      3  C   UNL     1      -0.055  10.635  18.245  0.00  0.00    +0.000 C 
ATOM      4  C   UNL     1       1.010  11.554  18.870  0.00  0.00    +0.000 C 
ATOM      5  C   UNL     1       2.300  11.323  18.075  0.00  0.00    +0.000 C 
ATOM      6  C   UNL     1       2.778   9.883  18.057  0.00  0.00    +0.000 C 
ENDROOT
BRANCH   1   9
ATOM      7  N   UNL     1       2.096   5.593  19.665  0.00  0.00    +0.000 N 
ATOM      8  C   UNL     1       1.550   6.824  19.434  0.00  0.00    +0.000 A 
ATOM      9  C   UNL     1       2.192   7.439  18.371  0.00  0.00    +0.000 A 
ATOM     10  C   UNL     1       3.320   6.588  18.071  0.00  0.00    +0.000 A 
ATOM     11  C   UNL     1       4.413   6.664  17.170  0.00  0.00    +0.000 A 
ATOM     12  C   UNL     1       5.374   5.650  17.116  0.00  0.00    +0.000 A 
ATOM     13  C   UNL     1       5.268   4.543  17.973  0.00  0.00    +0.000 A 
ATOM     14  C   UNL     1       4.203   4.432  18.869  0.00  0.00    +0.000 A 
ATOM     15  C   UNL     1       3.239   5.456  18.901  0.00  0.00    +0.000 A 
BRANCH   7  17
ATOM     16  C   UNL     1       0.877   3.455  19.833  0.00  0.00    +0.000 C 
ATOM     17  C   UNL     1       1.536   4.606  20.592  0.00  0.00    +0.000 C 
ATOM     18  C   UNL     1       2.573   4.063  21.587  0.00  0.00    +0.000 C 
ENDBRANCH   7  17
BRANCH  12  19
ATOM     19  C   UNL     1       6.480   5.736  16.196  0.00  0.00    +0.000 C 
ATOM     20  N   UNL     1       7.374   5.800  15.459  0.00  0.00    +0.000 NA
ENDBRANCH  12  19
ENDBRANCH   1   9
BRANCH   4  21
ATOM     21  N   UNL     1       1.216  11.707  20.324  0.00  0.00    +0.000 NA
ATOM     22  C   UNL     1       0.976  13.062  20.858  0.00  0.00    +0.000 C 
ATOM     23  C   UNL     1      -0.494  13.392  21.203  0.00  0.00    +0.000 C 
ATOM     24  N   UNL     1      -1.147  12.333  22.001  0.00  0.00    +0.000 N 
ATOM     25  C   UNL     1      -0.850  10.949  21.574  0.00  0.00    +0.000 C 
ATOM     26  C   UNL     1       0.644  10.762  21.286  0.00  0.00    +0.000 C 
BRANCH  24  27
ATOM     27  C   UNL     1      -2.476  12.548  22.420  0.00  0.00    +0.000 A 
ATOM     28  C   UNL     1      -2.833  12.595  23.793  0.00  0.00    +0.000 A 
ATOM     29  C   UNL     1      -4.146  12.761  24.240  0.00  0.00    +0.000 A 
ATOM     30  C   UNL     1      -5.191  12.900  23.335  0.00  0.00    +0.000 A 
ATOM     31  C   UNL     1      -4.868  12.861  21.980  0.00  0.00    +0.000 A 
ATOM     32  N   UNL     1      -5.700  12.975  20.886  0.00  0.00    +0.000 N 
ATOM     33  C   UNL     1      -4.990  12.832  19.729  0.00  0.00    +0.000 A 
ATOM     34  C   UNL     1      -3.684  12.598  20.078  0.00  0.00    +0.000 A 
ATOM     35  C   UNL     1      -3.565  12.673  21.504  0.00  0.00    +0.000 A 
ATOM     36  H   UNL     1      -6.697  13.120  20.944  0.00  0.00    +0.000 HD
ENDBRANCH  24  27
ENDBRANCH   4  21
TORSDOF 5
ENDMDL
MODEL 2
REMARK VINA RESULT:      -8.1      1.153      1.892
REMARK  Name = 
REMARK  7 active torsions:
REMARK  status: ('A' for Active; 'I' for Inactive)
REMARK    1  A    between atoms: C_1  and  C_2
REMARK    2  A    between atoms: C_2  and  C_3
REMARK    3  A    between atoms: C_2  and  N_4
REMARK    4  A    between atoms: C_6  and  C_7
REMARK    5  A    between atoms: C_10  and  N_11
REMARK    6  A    between atoms: N_14  and  C_15
REMARK    7  A    between atoms: C_30  and  C_31
REMARK                            x       y       z     vdW  Elec       q    Type
REMARK                         _______ _______ _______ _____ _____    ______ ____
ROOT
ATOM      1  C   UNL     1       1.696   8.795  17.802  0.00  0.00    +0.000 C 
ATOM      2  C   UNL     1       0.253   9.195  18.167  0.00  0.00    +0.000 C 
ATOM      3  C   UNL     1      -0.052  10.684  18.328  0.00  0.00    +0.000 C 
ATOM      4  C   UNL     1       1.045  11.596  18.908  0.00  0.00    +0.000 C 
ATOM      5  C   UNL     1       2.305  11.340  18.073  0.00  0.00    +0.000 C 
ATOM      6  C   UNL     1       2.764   9.894  18.055  0.00  0.00    +0.000 C 
ENDROOT
BRANCH   1   9
ATOM      7  N   UNL     1       2.067   5.615  19.709  0.00  0.00    +0.000 N 
ATOM      8  C   UNL     1       1.519   6.844  19.479  0.00  0.00    +0.000 A 
ATOM      9  C   UNL     1       2.158   7.461  18.415  0.00  0.00    +0.000 A 
ATOM     10  C   UNL     1       3.288   6.612  18.113  0.00  0.00    +0.000 A 
ATOM     11  C   UNL     1       4.379   6.691  17.211  0.00  0.00    +0.000 A 
ATOM     12  C   UNL     1       5.342   5.679  17.156  0.00  0.00    +0.000 A 
ATOM     13  C   UNL     1       5.239   4.571  18.013  0.00  0.00    +0.000 A 
ATOM     14  C   UNL     1       4.175   4.458  18.909  0.00  0.00    +0.000 A 
ATOM     15  C   UNL     1       3.209   5.480  18.943  0.00  0.00    +0.000 A 
BRANCH   7  17
ATOM     16  C   UNL     1       0.843   3.480  19.877  0.00  0.00    +0.000 C 
ATOM     17  C   UNL     1       1.510   4.626  20.636  0.00  0.00    +0.000 C 
ATOM     18  C   UNL     1       2.552   4.076  21.622  0.00  0.00    +0.000 C 
ENDBRANCH   7  17
BRANCH  12  19
ATOM     19  C   UNL     1       6.447   5.766  16.235  0.00  0.00    +0.000 C 
ATOM     20  N   UNL     1       7.341   5.839  15.498  0.00  0.00    +0.000 NA
ENDBRANCH  12  19
ENDBRANCH   1   9
BRANCH   4  21
ATOM     21  N   UNL     1       1.300  11.761  20.353  0.00  0.00    +0.000 NA
ATOM     22  C   UNL     1       1.221  13.148  20.854  0.00  0.00    +0.000 C 
ATOM     23  C   UNL     1      -0.195  13.644  21.221  0.00  0.00    +0.000 C 
ATOM     24  N   UNL     1      -0.940  12.682  22.061  0.00  0.00    +0.000 N 
ATOM     25  C   UNL     1      -0.805  11.263  21.665  0.00  0.00    +0.000 C 
ATOM     26  C   UNL     1       0.652  10.908  21.352  0.00  0.00    +0.000 C 
BRANCH  24  27
ATOM     27  C   UNL     1      -2.228  13.051  22.502  0.00  0.00    +0.000 A 
ATOM     28  C   UNL     1      -3.403  12.628  21.828  0.00  0.00    +0.000 A 
ATOM     29  C   UNL     1      -4.689  13.013  22.213  0.00  0.00    +0.000 A 
ATOM     30  C   UNL     1      -4.884  13.842  23.310  0.00  0.00    +0.000 A 
ATOM     31  C   UNL     1      -3.746  14.268  23.994  0.00  0.00    +0.000 A 
ATOM     32  N   UNL     1      -3.655  15.083  25.102  0.00  0.00    +0.000 N 
ATOM     33  C   UNL     1      -2.348  15.298  25.431  0.00  0.00    +0.000 A 
ATOM     34  C   UNL     1      -1.581  14.634  24.507  0.00  0.00    +0.000 A 
ATOM     35  C   UNL     1      -2.445  13.918  23.617  0.00  0.00    +0.000 A 
ATOM     36  H   UNL     1      -4.450  15.479  25.583  0.00  0.00    +0.000 HD
ENDBRANCH  24  27
ENDBRANCH   4  21
TORSDOF 5
ENDMDL
MODEL 3
REMARK VINA RESULT:      -8.1      3.155      6.949
REMARK  Name = 
REMARK  7 active torsions:
REMARK  status: ('A' for Active; 'I' for Inactive)
REMARK    1  A    between atoms: C_1  and  C_2
REMARK    2  A    between atoms: C_2  and  C_3
REMARK    3  A    between atoms: C_2  and  N_4
REMARK    4  A    between atoms: C_6  and  C_7
REMARK    5  A    between atoms: C_10  and  N_11
REMARK    6  A    between atoms: N_14  and  C_15
REMARK    7  A    between atoms: C_30  and  C_31
REMARK                            x       y       z     vdW  Elec       q    Type
REMARK                         _______ _______ _______ _____ _____    ______ ____
ROOT
ATOM      1  C   UNL     1       3.684   3.013  16.905  0.00  0.00    +0.000 C 
ATOM      2  C   UNL     1       4.075   1.872  17.865  0.00  0.00    +0.000 C 
ATOM      3  C   UNL     1       3.042   1.434  18.903  0.00  0.00    +0.000 C 
ATOM      4  C   UNL     1       2.111   2.502  19.504  0.00  0.00    +0.000 C 
ATOM      5  C   UNL     1       1.477   3.238  18.318  0.00  0.00    +0.000 C 
ATOM      6  C   UNL     1       2.473   3.871  17.365  0.00  0.00    +0.000 C 
ENDROOT
BRANCH   1   9
ATOM      7  N   UNL     1       6.472   5.481  16.746  0.00  0.00    +0.000 N 
ATOM      8  C   UNL     1       5.354   4.936  17.309  0.00  0.00    +0.000 A 
ATOM      9  C   UNL     1       4.853   3.928  16.500  0.00  0.00    +0.000 A 
ATOM     10  C   UNL     1       5.625   4.009  15.281  0.00  0.00    +0.000 A 
ATOM     11  C   UNL     1       5.584   3.340  14.031  0.00  0.00    +0.000 A 
ATOM     12  C   UNL     1       6.493   3.654  13.016  0.00  0.00    +0.000 A 
ATOM     13  C   UNL     1       7.457   4.653  13.228  0.00  0.00    +0.000 A 
ATOM     14  C   UNL     1       7.530   5.328  14.448  0.00  0.00    +0.000 A 
ATOM     15  C   UNL     1       6.614   4.991  15.461  0.00  0.00    +0.000 A 
BRANCH   7  17
ATOM     16  C   UNL     1       6.766   7.849  17.372  0.00  0.00    +0.000 C 
ATOM     17  C   UNL     1       7.351   6.438  17.423  0.00  0.00    +0.000 C 
ATOM     18  C   UNL     1       7.662   6.043  18.874  0.00  0.00    +0.000 C 
ENDBRANCH   7  17
BRANCH  12  19
ATOM     19  C   UNL     1       6.444   2.968  11.750  0.00  0.00    +0.000 C 
ATOM     20  N   UNL     1       6.411   2.416  10.730  0.00  0.00    +0.000 NA
ENDBRANCH  12  19
ENDBRANCH   1   9
BRANCH   4  21
ATOM     21  N   UNL     1       2.483   3.380  20.631  0.00  0.00    +0.000 NA
ATOM     22  C   UNL     1       3.672   4.227  20.407  0.00  0.00    +0.000 C 
ATOM     23  C   UNL     1       3.410   5.562  19.675  0.00  0.00    +0.000 C 
ATOM     24  N   UNL     1       2.266   6.310  20.237  0.00  0.00    +0.000 N 
ATOM     25  C   UNL     1       1.085   5.489  20.582  0.00  0.00    +0.000 C 
ATOM     26  C   UNL     1       1.492   4.210  21.321  0.00  0.00    +0.000 C 
BRANCH  24  27
ATOM     27  C   UNL     1       1.964   7.571  19.682  0.00  0.00    +0.000 A 
ATOM     28  C   UNL     1       2.305   7.905  18.345  0.00  0.00    +0.000 A 
ATOM     29  C   UNL     1       2.061   9.159  17.781  0.00  0.00    +0.000 A 
ATOM     30  C   UNL     1       1.447  10.162  18.520  0.00  0.00    +0.000 A 
ATOM     31  C   UNL     1       1.098   9.860  19.835  0.00  0.00    +0.000 A 
ATOM     32  N   UNL     1       0.484  10.660  20.776  0.00  0.00    +0.000 N 
ATOM     33  C   UNL     1       0.366   9.997  21.963  0.00  0.00    +0.000 A 
ATOM     34  C   UNL     1       0.933   8.759  21.797  0.00  0.00    +0.000 A 
ATOM     35  C   UNL     1       1.351   8.620  20.434  0.00  0.00    +0.000 A 
ATOM     36  H   UNL     1       0.189  11.610  20.607  0.00  0.00    +0.000 HD
ENDBRANCH  24  27
ENDBRANCH   4  21
TORSDOF 5
ENDMDL
MODEL 4
REMARK VINA RESULT:      -8.1      2.713     10.564
REMARK  Name = 
REMARK  7 active torsions:
REMARK  status: ('A' for Active; 'I' for Inactive)
REMARK    1  A    between atoms: C_1  and  C_2
REMARK    2  A    between atoms: C_2  and  C_3
REMARK    3  A    between atoms: C_2  and  N_4
REMARK    4  A    between atoms: C_6  and  C_7
REMARK    5  A    between atoms: C_10  and  N_11
REMARK    6  A    between atoms: N_14  and  C_15
REMARK    7  A    between atoms: C_30  and  C_31
REMARK                            x       y       z     vdW  Elec       q    Type
REMARK                         _______ _______ _______ _____ _____    ______ ____
ROOT
ATOM      1  C   UNL     1      -1.425  12.711  19.758  0.00  0.00    +0.000 C 
ATOM      2  C   UNL     1      -1.219  12.182  18.325  0.00  0.00    +0.000 C 
ATOM      3  C   UNL     1      -0.997  10.680  18.149  0.00  0.00    +0.000 C 
ATOM      4  C   UNL     1      -0.221   9.923  19.243  0.00  0.00    +0.000 C 
ATOM      5  C   UNL     1      -0.905  10.265  20.571  0.00  0.00    +0.000 C 
ATOM      6  C   UNL     1      -0.964  11.748  20.886  0.00  0.00    +0.000 C 
ENDROOT
BRANCH   1   9
ATOM      7  N   UNL     1       0.054  16.122  19.492  0.00  0.00    +0.000 N 
ATOM      8  C   UNL     1      -0.220  14.869  19.022  0.00  0.00    +0.000 A 
ATOM      9  C   UNL     1      -0.852  14.119  20.001  0.00  0.00    +0.000 A 
ATOM     10  C   UNL     1      -0.779  14.927  21.197  0.00  0.00    +0.000 A 
ATOM     11  C   UNL     1      -1.150  14.735  22.552  0.00  0.00    +0.000 A 
ATOM     12  C   UNL     1      -0.941  15.736  23.505  0.00  0.00    +0.000 A 
ATOM     13  C   UNL     1      -0.344  16.948  23.123  0.00  0.00    +0.000 A 
ATOM     14  C   UNL     1       0.029  17.174  21.797  0.00  0.00    +0.000 A 
ATOM     15  C   UNL     1      -0.200  16.160  20.850  0.00  0.00    +0.000 A 
BRANCH   7  17
ATOM     16  C   UNL     1       1.912  16.885  18.061  0.00  0.00    +0.000 C 
ATOM     17  C   UNL     1       0.548  17.222  18.660  0.00  0.00    +0.000 C 
ATOM     18  C   UNL     1      -0.437  17.622  17.550  0.00  0.00    +0.000 C 
ENDBRANCH   7  17
BRANCH  12  19
ATOM     19  C   UNL     1      -1.323  15.532  24.880  0.00  0.00    +0.000 C 
ATOM     20  N   UNL     1      -1.624  15.366  25.988  0.00  0.00    +0.000 NA
ENDBRANCH  12  19
ENDBRANCH   1   9
BRANCH   4  21
ATOM     21  N   UNL     1       1.252   9.866  19.319  0.00  0.00    +0.000 NA
ATOM     22  C   UNL     1       1.798   8.967  20.356  0.00  0.00    +0.000 C 
ATOM     23  C   UNL     1       1.931   7.483  19.948  0.00  0.00    +0.000 C 
ATOM     24  N   UNL     1       2.578   7.305  18.631  0.00  0.00    +0.000 N 
ATOM     25  C   UNL     1       2.145   8.256  17.583  0.00  0.00    +0.000 C 
ATOM     26  C   UNL     1       2.079   9.688  18.122  0.00  0.00    +0.000 C 
BRANCH  24  27
ATOM     27  C   UNL     1       2.801   5.989  18.177  0.00  0.00    +0.000 A 
ATOM     28  C   UNL     1       1.759   5.027  18.119  0.00  0.00    +0.000 A 
ATOM     29  C   UNL     1       1.957   3.704  17.717  0.00  0.00    +0.000 A 
ATOM     30  C   UNL     1       3.217   3.260  17.336  0.00  0.00    +0.000 A 
ATOM     31  C   UNL     1       4.258   4.185  17.380  0.00  0.00    +0.000 A 
ATOM     32  N   UNL     1       5.587   4.011  17.058  0.00  0.00    +0.000 N 
ATOM     33  C   UNL     1       6.289   5.159  17.287  0.00  0.00    +0.000 A 
ATOM     34  C   UNL     1       5.407   6.082  17.789  0.00  0.00    +0.000 A 
ATOM     35  C   UNL     1       4.094   5.510  17.800  0.00  0.00    +0.000 A 
ATOM     36  H   UNL     1       5.982   3.144  16.722  0.00  0.00    +0.000 HD
ENDBRANCH  24  27
ENDBRANCH   4  21
TORSDOF 5
ENDMDL
MODEL 5
REMARK VINA RESULT:      -8.0      2.191      9.886
REMARK  Name = 
REMARK  7 active torsions:
REMARK  status: ('A' for Active; 'I' for Inactive)
REMARK    1  A    between atoms: C_1  and  C_2
REMARK    2  A    between atoms: C_2  and  C_3
REMARK    3  A    between atoms: C_2  and  N_4
REMARK    4  A    between atoms: C_6  and  C_7
REMARK    5  A    between atoms: C_10  and  N_11
REMARK    6  A    between atoms: N_14  and  C_15
REMARK    7  A    between atoms: C_30  and  C_31
REMARK                            x       y       z     vdW  Elec       q    Type
REMARK                         _______ _______ _______ _____ _____    ______ ____
ROOT
ATOM      1  C   UNL     1      -0.930  12.347  20.457  0.00  0.00    +0.000 C 
ATOM      2  C   UNL     1      -0.504  11.358  21.560  0.00  0.00    +0.000 C 
ATOM      3  C   UNL     1       0.834  10.639  21.389  0.00  0.00    +0.000 C 
ATOM      4  C   UNL     1       1.285  10.263  19.965  0.00  0.00    +0.000 C 
ATOM      5  C   UNL     1       1.197  11.547  19.133  0.00  0.00    +0.000 C 
ATOM      6  C   UNL     1      -0.178  12.188  19.107  0.00  0.00    +0.000 C 
ENDROOT
BRANCH   1   9
ATOM      7  N   UNL     1      -4.614  12.887  20.618  0.00  0.00    +0.000 N 
ATOM      8  C   UNL     1      -3.366  12.806  21.167  0.00  0.00    +0.000 A 
ATOM      9  C   UNL     1      -2.449  12.404  20.210  0.00  0.00    +0.000 A 
ATOM     10  C   UNL     1      -3.243  12.042  19.058  0.00  0.00    +0.000 A 
ATOM     11  C   UNL     1      -2.955  11.485  17.786  0.00  0.00    +0.000 A 
ATOM     12  C   UNL     1      -3.973  11.241  16.860  0.00  0.00    +0.000 A 
ATOM     13  C   UNL     1      -5.305  11.540  17.193  0.00  0.00    +0.000 A 
ATOM     14  C   UNL     1      -5.624  12.094  18.433  0.00  0.00    +0.000 A 
ATOM     15  C   UNL     1      -4.585  12.343  19.348  0.00  0.00    +0.000 A 
BRANCH   7  17
ATOM     16  C   UNL     1      -5.638  13.331  22.818  0.00  0.00    +0.000 C 
ATOM     17  C   UNL     1      -5.778  13.458  21.302  0.00  0.00    +0.000 C 
ATOM     18  C   UNL     1      -6.043  14.920  20.913  0.00  0.00    +0.000 C 
ENDBRANCH   7  17
BRANCH  12  19
ATOM     19  C   UNL     1      -3.671  10.676  15.569  0.00  0.00    +0.000 C 
ATOM     20  N   UNL     1      -3.425  10.226  14.528  0.00  0.00    +0.000 NA
ENDBRANCH  12  19
ENDBRANCH   1   9
BRANCH   4  21
ATOM     21  N   UNL     1       0.840   9.049  19.253  0.00  0.00    +0.000 NA
ATOM     22  C   UNL     1       1.273   8.948  17.845  0.00  0.00    +0.000 C 
ATOM     23  C   UNL     1       2.683   8.356  17.622  0.00  0.00    +0.000 C 
ATOM     24  N   UNL     1       2.910   7.111  18.388  0.00  0.00    +0.000 N 
ATOM     25  C   UNL     1       2.395   7.122  19.775  0.00  0.00    +0.000 C 
ATOM     26  C   UNL     1       0.984   7.715  19.841  0.00  0.00    +0.000 C 
BRANCH  24  27
ATOM     27  C   UNL     1       4.145   6.451  18.223  0.00  0.00    +0.000 A 
ATOM     28  C   UNL     1       5.223   7.039  17.512  0.00  0.00    +0.000 A 
ATOM     29  C   UNL     1       6.442   6.393  17.294  0.00  0.00    +0.000 A 
ATOM     30  C   UNL     1       6.665   5.113  17.785  0.00  0.00    +0.000 A 
ATOM     31  C   UNL     1       5.623   4.513  18.490  0.00  0.00    +0.000 A 
ATOM     32  N   UNL     1       5.579   3.267  19.079  0.00  0.00    +0.000 N 
ATOM     33  C   UNL     1       4.351   3.042  19.631  0.00  0.00    +0.000 A 
ATOM     34  C   UNL     1       3.581   4.148  19.374  0.00  0.00    +0.000 A 
ATOM     35  C   UNL     1       4.384   5.127  18.705  0.00  0.00    +0.000 A 
ATOM     36  H   UNL     1       6.346   2.610  19.076  0.00  0.00    +0.000 HD
ENDBRANCH  24  27
ENDBRANCH   4  21
TORSDOF 5
ENDMDL
MODEL 6
REMARK VINA RESULT:      -7.9      2.856      9.640
REMARK  Name = 
REMARK  7 active torsions:
REMARK  status: ('A' for Active; 'I' for Inactive)
REMARK    1  A    between atoms: C_1  and  C_2
REMARK    2  A    between atoms: C_2  and  C_3
REMARK    3  A    between atoms: C_2  and  N_4
REMARK    4  A    between atoms: C_6  and  C_7
REMARK    5  A    between atoms: C_10  and  N_11
REMARK    6  A    between atoms: N_14  and  C_15
REMARK    7  A    between atoms: C_30  and  C_31
REMARK                            x       y       z     vdW  Elec       q    Type
REMARK                         _______ _______ _______ _____ _____    ______ ____
ROOT
ATOM      1  C   UNL     1      -0.827  12.998  19.448  0.00  0.00    +0.000 C 
ATOM      2  C   UNL     1      -0.751  12.149  18.164  0.00  0.00    +0.000 C 
ATOM      3  C   UNL     1      -0.791  10.629  18.315  0.00  0.00    +0.000 C 
ATOM      4  C   UNL     1      -0.127  10.000  19.553  0.00  0.00    +0.000 C 
ATOM      5  C   UNL     1      -0.707  10.728  20.771  0.00  0.00    +0.000 C 
ATOM      6  C   UNL     1      -0.506  12.232  20.760  0.00  0.00    +0.000 C 
ENDROOT
BRANCH   1   9
ATOM      7  N   UNL     1       0.438  16.461  18.901  0.00  0.00    +0.000 N 
ATOM      8  C   UNL     1      -0.396  15.411  18.645  0.00  0.00    +0.000 A 
ATOM      9  C   UNL     1      -0.017  14.306  19.391  0.00  0.00    +0.000 A 
ATOM     10  C   UNL     1       1.245  14.674  19.991  0.00  0.00    +0.000 A 
ATOM     11  C   UNL     1       2.201  13.999  20.792  0.00  0.00    +0.000 A 
ATOM     12  C   UNL     1       3.361  14.647  21.227  0.00  0.00    +0.000 A 
ATOM     13  C   UNL     1       3.595  15.982  20.859  0.00  0.00    +0.000 A 
ATOM     14  C   UNL     1       2.673  16.678  20.077  0.00  0.00    +0.000 A 
ATOM     15  C   UNL     1       1.505  16.015  19.658  0.00  0.00    +0.000 A 
BRANCH   7  17
ATOM     16  C   UNL     1       0.978  18.089  17.128  0.00  0.00    +0.000 C 
ATOM     17  C   UNL     1       0.211  17.827  18.423  0.00  0.00    +0.000 C 
ATOM     18  C   UNL     1      -1.278  18.156  18.235  0.00  0.00    +0.000 C 
ENDBRANCH   7  17
BRANCH  12  19
ATOM     19  C   UNL     1       4.327  13.953  22.042  0.00  0.00    +0.000 C 
ATOM     20  N   UNL     1       5.101  13.396  22.703  0.00  0.00    +0.000 NA
ENDBRANCH  12  19
ENDBRANCH   1   9
BRANCH   4  21
ATOM     21  N   UNL     1       1.317   9.709  19.655  0.00  0.00    +0.000 NA
ATOM     22  C   UNL     1       1.741   9.040  20.902  0.00  0.00    +0.000 C 
ATOM     23  C   UNL     1       1.603   7.502  20.913  0.00  0.00    +0.000 C 
ATOM     24  N   UNL     1       2.160   6.867  19.699  0.00  0.00    +0.000 N 
ATOM     25  C   UNL     1       1.855   7.562  18.429  0.00  0.00    +0.000 C 
ATOM     26  C   UNL     1       2.054   9.075  18.559  0.00  0.00    +0.000 C 
BRANCH  24  27
ATOM     27  C   UNL     1       2.137   5.459  19.621  0.00  0.00    +0.000 A 
ATOM     28  C   UNL     1       1.203   4.680  20.352  0.00  0.00    +0.000 A 
ATOM     29  C   UNL     1       1.184   3.284  20.330  0.00  0.00    +0.000 A 
ATOM     30  C   UNL     1       2.098   2.574  19.563  0.00  0.00    +0.000 A 
ATOM     31  C   UNL     1       3.026   3.314  18.832  0.00  0.00    +0.000 A 
ATOM     32  N   UNL     1       4.029   2.868  17.998  0.00  0.00    +0.000 N 
ATOM     33  C   UNL     1       4.749   3.919  17.511  0.00  0.00    +0.000 A 
ATOM     34  C   UNL     1       4.221   5.062  18.057  0.00  0.00    +0.000 A 
ATOM     35  C   UNL     1       3.083   4.712  18.852  0.00  0.00    +0.000 A 
ATOM     36  H   UNL     1       4.212   1.895  17.800  0.00  0.00    +0.000 HD
ENDBRANCH  24  27
ENDBRANCH   4  21
TORSDOF 5
ENDMDL
MODEL 7
REMARK VINA RESULT:      -7.8      2.597      9.807
REMARK  Name = 
REMARK  7 active torsions:
REMARK  status: ('A' for Active; 'I' for Inactive)
REMARK    1  A    between atoms: C_1  and  C_2
REMARK    2  A    between atoms: C_2  and  C_3
REMARK    3  A    between atoms: C_2  and  N_4
REMARK    4  A    between atoms: C_6  and  C_7
REMARK    5  A    between atoms: C_10  and  N_11
REMARK    6  A    between atoms: N_14  and  C_15
REMARK    7  A    between atoms: C_30  and  C_31
REMARK                            x       y       z     vdW  Elec       q    Type
REMARK                         _______ _______ _______ _____ _____    ______ ____
ROOT
ATOM      1  C   UNL     1      -1.534  12.685  19.703  0.00  0.00    +0.000 C 
ATOM      2  C   UNL     1      -1.277  12.196  18.264  0.00  0.00    +0.000 C 
ATOM      3  C   UNL     1      -1.019  10.704  18.057  0.00  0.00    +0.000 C 
ATOM      4  C   UNL     1      -0.260   9.934  19.153  0.00  0.00    +0.000 C 
ATOM      5  C   UNL     1      -0.988  10.229  20.469  0.00  0.00    +0.000 C 
ATOM      6  C   UNL     1      -1.086  11.702  20.819  0.00  0.00    +0.000 C 
ENDROOT
BRANCH   1   9
ATOM      7  N   UNL     1      -0.979  16.193  20.832  0.00  0.00    +0.000 N 
ATOM      8  C   UNL     1      -1.760  15.106  20.562  0.00  0.00    +0.000 A 
ATOM      9  C   UNL     1      -0.996  14.097  19.998  0.00  0.00    +0.000 A 
ATOM     10  C   UNL     1       0.292  14.699  19.744  0.00  0.00    +0.000 A 
ATOM     11  C   UNL     1       1.490  14.263  19.122  0.00  0.00    +0.000 A 
ATOM     12  C   UNL     1       2.600  15.108  19.025  0.00  0.00    +0.000 A 
ATOM     13  C   UNL     1       2.530  16.413  19.541  0.00  0.00    +0.000 A 
ATOM     14  C   UNL     1       1.370  16.873  20.165  0.00  0.00    +0.000 A 
ATOM     15  C   UNL     1       0.267  16.005  20.263  0.00  0.00    +0.000 A 
BRANCH   7  17
ATOM     16  C   UNL     1      -2.787  17.849  21.099  0.00  0.00    +0.000 C 
ATOM     17  C   UNL     1      -1.428  17.359  21.597  0.00  0.00    +0.000 C 
ATOM     18  C   UNL     1      -1.478  17.100  23.110  0.00  0.00    +0.000 C 
ENDBRANCH   7  17
BRANCH  12  19
ATOM     19  C   UNL     1       3.813  14.656  18.392  0.00  0.00    +0.000 C 
ATOM     20  N   UNL     1       4.790  14.298  17.878  0.00  0.00    +0.000 NA
ENDBRANCH  12  19
ENDBRANCH   1   9
BRANCH   4  21
ATOM     21  N   UNL     1       1.211   9.903  19.270  0.00  0.00    +0.000 NA
ATOM     22  C   UNL     1       1.744   9.013  20.320  0.00  0.00    +0.000 C 
ATOM     23  C   UNL     1       1.915   7.532  19.914  0.00  0.00    +0.000 C 
ATOM     24  N   UNL     1       2.602   7.369  18.615  0.00  0.00    +0.000 N 
ATOM     25  C   UNL     1       2.181   8.314  17.558  0.00  0.00    +0.000 C 
ATOM     26  C   UNL     1       2.074   9.744  18.097  0.00  0.00    +0.000 C 
BRANCH  24  27
ATOM     27  C   UNL     1       2.862   6.058  18.166  0.00  0.00    +0.000 A 
ATOM     28  C   UNL     1       1.842   5.074  18.088  0.00  0.00    +0.000 A 
ATOM     29  C   UNL     1       2.076   3.756  17.690  0.00  0.00    +0.000 A 
ATOM     30  C   UNL     1       3.351   3.338  17.332  0.00  0.00    +0.000 A 
ATOM     31  C   UNL     1       4.371   4.286  17.395  0.00  0.00    +0.000 A 
ATOM     32  N   UNL     1       5.710   4.141  17.097  0.00  0.00    +0.000 N 
ATOM     33  C   UNL     1       6.382   5.303  17.340  0.00  0.00    +0.000 A 
ATOM     34  C   UNL     1       5.471   6.207  17.826  0.00  0.00    +0.000 A 
ATOM     35  C   UNL     1       4.171   5.607  17.812  0.00  0.00    +0.000 A 
ATOM     36  H   UNL     1       6.129   3.283  16.768  0.00  0.00    +0.000 HD
ENDBRANCH  24  27
ENDBRANCH   4  21
TORSDOF 5
ENDMDL
MODEL 8
REMARK VINA RESULT:      -7.8      2.576      9.572
REMARK  Name = 
REMARK  7 active torsions:
REMARK  status: ('A' for Active; 'I' for Inactive)
REMARK    1  A    between atoms: C_1  and  C_2
REMARK    2  A    between atoms: C_2  and  C_3
REMARK    3  A    between atoms: C_2  and  N_4
REMARK    4  A    between atoms: C_6  and  C_7
REMARK    5  A    between atoms: C_10  and  N_11
REMARK    6  A    between atoms: N_14  and  C_15
REMARK    7  A    between atoms: C_30  and  C_31
REMARK                            x       y       z     vdW  Elec       q    Type
REMARK                         _______ _______ _______ _____ _____    ______ ____
ROOT
ATOM      1  C   UNL     1      -1.617  12.661  19.593  0.00  0.00    +0.000 C 
ATOM      2  C   UNL     1      -1.263  12.217  18.160  0.00  0.00    +0.000 C 
ATOM      3  C   UNL     1      -1.021  10.727  17.920  0.00  0.00    +0.000 C 
ATOM      4  C   UNL     1      -0.362   9.903  19.041  0.00  0.00    +0.000 C 
ATOM      5  C   UNL     1      -1.180  10.168  20.309  0.00  0.00    +0.000 C 
ATOM      6  C   UNL     1      -1.273  11.631  20.703  0.00  0.00    +0.000 C 
ENDROOT
BRANCH   1   9
ATOM      7  N   UNL     1      -1.054  16.092  20.936  0.00  0.00    +0.000 N 
ATOM      8  C   UNL     1      -1.838  15.028  20.593  0.00  0.00    +0.000 A 
ATOM      9  C   UNL     1      -1.074  14.049  19.978  0.00  0.00    +0.000 A 
ATOM     10  C   UNL     1       0.220  14.658  19.774  0.00  0.00    +0.000 A 
ATOM     11  C   UNL     1       1.422  14.252  19.140  0.00  0.00    +0.000 A 
ATOM     12  C   UNL     1       2.538  15.094  19.105  0.00  0.00    +0.000 A 
ATOM     13  C   UNL     1       2.470  16.366  19.697  0.00  0.00    +0.000 A 
ATOM     14  C   UNL     1       1.306  16.795  20.336  0.00  0.00    +0.000 A 
ATOM     15  C   UNL     1       0.197  15.931  20.370  0.00  0.00    +0.000 A 
BRANCH   7  17
ATOM     16  C   UNL     1      -2.201  18.276  20.914  0.00  0.00    +0.000 C 
ATOM     17  C   UNL     1      -1.505  17.213  21.764  0.00  0.00    +0.000 C 
ATOM     18  C   UNL     1      -2.416  16.775  22.920  0.00  0.00    +0.000 C 
ENDBRANCH   7  17
BRANCH  12  19
ATOM     19  C   UNL     1       3.756  14.673  18.459  0.00  0.00    +0.000 C 
ATOM     20  N   UNL     1       4.737  14.331  17.944  0.00  0.00    +0.000 NA
ENDBRANCH  12  19
ENDBRANCH   1   9
BRANCH   4  21
ATOM     21  N   UNL     1       1.096   9.834  19.265  0.00  0.00    +0.000 NA
ATOM     22  C   UNL     1       1.509   9.408  20.617  0.00  0.00    +0.000 C 
ATOM     23  C   UNL     1       1.574   7.881  20.843  0.00  0.00    +0.000 C 
ATOM     24  N   UNL     1       2.299   7.172  19.767  0.00  0.00    +0.000 N 
ATOM     25  C   UNL     1       2.002   7.638  18.395  0.00  0.00    +0.000 C 
ATOM     26  C   UNL     1       1.991   9.168  18.315  0.00  0.00    +0.000 C 
BRANCH  24  27
ATOM     27  C   UNL     1       2.468   5.778  19.893  0.00  0.00    +0.000 A 
ATOM     28  C   UNL     1       1.483   4.953  20.495  0.00  0.00    +0.000 A 
ATOM     29  C   UNL     1       1.640   3.576  20.674  0.00  0.00    +0.000 A 
ATOM     30  C   UNL     1       2.795   2.933  20.250  0.00  0.00    +0.000 A 
ATOM     31  C   UNL     1       3.778   3.719  19.652  0.00  0.00    +0.000 A 
ATOM     32  N   UNL     1       5.003   3.341  19.146  0.00  0.00    +0.000 N 
ATOM     33  C   UNL     1       5.689   4.429  18.689  0.00  0.00    +0.000 A 
ATOM     34  C   UNL     1       4.907   5.531  18.925  0.00  0.00    +0.000 A 
ATOM     35  C   UNL     1       3.658   5.103  19.480  0.00  0.00    +0.000 A 
ATOM     36  H   UNL     1       5.347   2.391  19.139  0.00  0.00    +0.000 HD
ENDBRANCH  24  27
ENDBRANCH   4  21
TORSDOF 5
ENDMDL
MODEL 9
REMARK VINA RESULT:      -7.8      1.106      1.664
REMARK  Name = 
REMARK  7 active torsions:
REMARK  status: ('A' for Active; 'I' for Inactive)
REMARK    1  A    between atoms: C_1  and  C_2
REMARK    2  A    between atoms: C_2  and  C_3
REMARK    3  A    between atoms: C_2  and  N_4
REMARK    4  A    between atoms: C_6  and  C_7
REMARK    5  A    between atoms: C_10  and  N_11
REMARK    6  A    between atoms: N_14  and  C_15
REMARK    7  A    between atoms: C_30  and  C_31
REMARK                            x       y       z     vdW  Elec       q    Type
REMARK                         _______ _______ _______ _____ _____    ______ ____
ROOT
ATOM      1  C   UNL     1       1.791   8.741  17.708  0.00  0.00    +0.000 C 
ATOM      2  C   UNL     1       0.297   9.067  17.906  0.00  0.00    +0.000 C 
ATOM      3  C   UNL     1      -0.092  10.535  18.081  0.00  0.00    +0.000 C 
ATOM      4  C   UNL     1       0.884  11.465  18.824  0.00  0.00    +0.000 C 
ATOM      5  C   UNL     1       2.246  11.295  18.143  0.00  0.00    +0.000 C 
ATOM      6  C   UNL     1       2.769   9.870  18.131  0.00  0.00    +0.000 C 
ENDROOT
BRANCH   1   9
ATOM      7  N   UNL     1       2.117   5.562  19.625  0.00  0.00    +0.000 N 
ATOM      8  C   UNL     1       1.586   6.798  19.391  0.00  0.00    +0.000 A 
ATOM      9  C   UNL     1       2.234   7.402  18.325  0.00  0.00    +0.000 A 
ATOM     10  C   UNL     1       3.352   6.537  18.027  0.00  0.00    +0.000 A 
ATOM     11  C   UNL     1       4.445   6.598  17.125  0.00  0.00    +0.000 A 
ATOM     12  C   UNL     1       5.394   5.573  17.074  0.00  0.00    +0.000 A 
ATOM     13  C   UNL     1       5.275   4.469  17.934  0.00  0.00    +0.000 A 
ATOM     14  C   UNL     1       4.210   4.374  18.830  0.00  0.00    +0.000 A 
ATOM     15  C   UNL     1       3.258   5.409  18.860  0.00  0.00    +0.000 A 
BRANCH   7  17
ATOM     16  C   UNL     1       0.903   3.421  19.799  0.00  0.00    +0.000 C 
ATOM     17  C   UNL     1       1.546   4.584  20.555  0.00  0.00    +0.000 C 
ATOM     18  C   UNL     1       2.570   4.056  21.572  0.00  0.00    +0.000 C 
ENDBRANCH   7  17
BRANCH  12  19
ATOM     19  C   UNL     1       6.501   5.643  16.153  0.00  0.00    +0.000 C 
ATOM     20  N   UNL     1       7.390   5.705  15.409  0.00  0.00    +0.000 NA
ENDBRANCH  12  19
ENDBRANCH   1   9
BRANCH   4  21
ATOM     21  N   UNL     1       0.953  11.581  20.294  0.00  0.00    +0.000 NA
ATOM     22  C   UNL     1       1.164  12.948  20.812  0.00  0.00    +0.000 C 
ATOM     23  C   UNL     1      -0.112  13.803  20.974  0.00  0.00    +0.000 C 
ATOM     24  N   UNL     1      -1.200  13.084  21.670  0.00  0.00    +0.000 N 
ATOM     25  C   UNL     1      -1.382  11.673  21.265  0.00  0.00    +0.000 C 
ATOM     26  C   UNL     1      -0.038  10.944  21.165  0.00  0.00    +0.000 C 
BRANCH  24  27
ATOM     27  C   UNL     1      -2.398  13.783  21.923  0.00  0.00    +0.000 A 
ATOM     28  C   UNL     1      -2.747  14.960  21.210  0.00  0.00    +0.000 A 
ATOM     29  C   UNL     1      -3.904  15.699  21.467  0.00  0.00    +0.000 A 
ATOM     30  C   UNL     1      -4.795  15.300  22.454  0.00  0.00    +0.000 A 
ATOM     31  C   UNL     1      -4.480  14.146  23.168  0.00  0.00    +0.000 A 
ATOM     32  N   UNL     1      -5.182  13.535  24.185  0.00  0.00    +0.000 N 
ATOM     33  C   UNL     1      -4.501  12.447  24.650  0.00  0.00    +0.000 A 
ATOM     34  C   UNL     1      -3.329  12.366  23.941  0.00  0.00    +0.000 A 
ATOM     35  C   UNL     1      -3.317  13.398  22.948  0.00  0.00    +0.000 A 
ATOM     36  H   UNL     1      -6.065  13.867  24.545  0.00  0.00    +0.000 HD
ENDBRANCH  24  27
ENDBRANCH   4  21
TORSDOF 5
ENDMDL
