MODEL 1
REMARK VINA RESULT:      -8.1      0.000      0.000
REMARK  Name = 
REMARK  9 active torsions:
REMARK  status: ('A' for Active; 'I' for Inactive)
REMARK    1  A    between atoms: C_1  and  N_2
REMARK    2  A    between atoms: N_2  and  C_3
REMARK    3  A    between atoms: N_2  and  C_4
REMARK    4  A    between atoms: C_4  and  C_5
REMARK    5  A    between atoms: C_5  and  O_6
REMARK    6  A    between atoms: O_6  and  C_7
REMARK    7  A    between atoms: C_11  and  O_12
REMARK    8  A    between atoms: C_19  and  C_20
REMARK    9  A    between atoms: C_21  and  O_22
REMARK                            x       y       z     vdW  Elec       q    Type
REMARK                         _______ _______ _______ _____ _____    ______ ____
ROOT
ATOM      1  C   UNL     1       3.435   6.765  17.622  0.00  0.00    +0.000 C 
ATOM      2  C   UNL     1       2.674   8.105  17.556  0.00  0.00    +0.000 C 
ATOM      3  C   UNL     1       1.996   8.538  18.830  0.00  0.00    +0.000 A 
ATOM      4  C   UNL     1       1.515   9.861  18.882  0.00  0.00    +0.000 A 
ATOM      5  C   UNL     1       0.827  10.314  20.003  0.00  0.00    +0.000 A 
ATOM      6  C   UNL     1       0.600   9.466  21.071  0.00  0.00    +0.000 A 
ATOM      7  C   UNL     1       1.083   8.154  21.029  0.00  0.00    +0.000 A 
ATOM      8  C   UNL     1       1.785   7.662  19.912  0.00  0.00    +0.000 A 
ATOM      9  C   UNL     1       2.388   6.255  19.893  0.00  0.00    +0.000 C 
ATOM     10  C   UNL     1       1.606   5.219  20.750  0.00  0.00    +0.000 C 
ATOM     11  C   UNL     1       2.172   3.792  20.656  0.00  0.00    +0.000 C 
ATOM     12  C   UNL     1       2.264   3.329  19.200  0.00  0.00    +0.000 C 
ATOM     13  C   UNL     1       0.831   3.159  18.627  0.00  0.00    +0.000 C 
ATOM     14  C   UNL     1       3.085   2.043  18.973  0.00  0.00    +0.000 C 
ATOM     15  C   UNL     1       3.500   2.130  17.490  0.00  0.00    +0.000 C 
ATOM     16  C   UNL     1       3.400   3.621  17.107  0.00  0.00    +0.000 C 
ATOM     17  C   UNL     1       3.161   4.333  18.439  0.00  0.00    +0.000 C 
ATOM     18  C   UNL     1       2.589   5.756  18.433  0.00  0.00    +0.000 C 
ENDROOT
BRANCH   5  19
ATOM     19  O   UNL     1       0.358  11.593  20.070  0.00  0.00    +0.000 OA
ATOM     20  H   UNL     1       1.007  12.181  19.666  0.00  0.00    +0.000 HD
ENDBRANCH   5  19
BRANCH  14  21
ATOM     21  O   UNL     1       2.391   0.849  19.274  0.00  0.00    +0.000 OA
ATOM     22  H   UNL     1       1.458   1.059  19.433  0.00  0.00    +0.000 HD
ENDBRANCH  14  21
BRANCH   1  23
ATOM     23  O   UNL     1       4.800   6.915  18.098  0.00  0.00    +0.000 OA
BRANCH  23  24
ATOM     24  C   UNL     1       5.700   6.966  16.975  0.00  0.00    +0.000 C 
BRANCH  24  25
ATOM     25  C   UNL     1       5.298   6.217  15.692  0.00  0.00    +0.000 C 
BRANCH  25  27
ATOM     26  C   UNL     1       7.055   4.665  16.403  0.00  0.00    +0.000 C 
ATOM     27  N   UNL     1       6.407   5.318  15.268  0.00  0.00    +0.000 NA
ATOM     28  C   UNL     1       5.983   4.310  14.293  0.00  0.00    +0.000 C 
ENDBRANCH  25  27
ENDBRANCH  24  25
ENDBRANCH  23  24
ENDBRANCH   1  23
TORSDOF 6
ENDMDL
MODEL 2
REMARK VINA RESULT:      -8.0      0.987      1.421
REMARK  Name = 
REMARK  9 active torsions:
REMARK  status: ('A' for Active; 'I' for Inactive)
REMARK    1  A    between atoms: C_1  and  N_2
REMARK    2  A    between atoms: N_2  and  C_3
REMARK    3  A    between atoms: N_2  and  C_4
REMARK    4  A    between atoms: C_4  and  C_5
REMARK    5  A    between atoms: C_5  and  O_6
REMARK    6  A    between atoms: O_6  and  C_7
REMARK    7  A    between atoms: C_11  and  O_12
REMARK    8  A    between atoms: C_19  and  C_20
REMARK    9  A    between atoms: C_21  and  O_22
REMARK                            x       y       z     vdW  Elec       q    Type
REMARK                         _______ _______ _______ _____ _____    ______ ____
ROOT
ATOM      1  C   UNL     1       3.205   6.875  17.599  0.00  0.00    +0.000 C 
ATOM      2  C   UNL     1       2.421   8.203  17.611  0.00  0.00    +0.000 C 
ATOM      3  C   UNL     1       1.839   8.608  18.941  0.00  0.00    +0.000 A 
ATOM      4  C   UNL     1       1.342   9.922  19.050  0.00  0.00    +0.000 A 
ATOM      5  C   UNL     1       0.738  10.348  20.228  0.00  0.00    +0.000 A 
ATOM      6  C   UNL     1       0.609   9.483  21.298  0.00  0.00    +0.000 A 
ATOM      7  C   UNL     1       1.108   8.179  21.199  0.00  0.00    +0.000 A 
ATOM      8  C   UNL     1       1.727   7.714  20.024  0.00  0.00    +0.000 A 
ATOM      9  C   UNL     1       2.349   6.318  19.937  0.00  0.00    +0.000 C 
ATOM     10  C   UNL     1       1.653   5.257  20.837  0.00  0.00    +0.000 C 
ATOM     11  C   UNL     1       2.231   3.841  20.679  0.00  0.00    +0.000 C 
ATOM     12  C   UNL     1       2.216   3.400  19.213  0.00  0.00    +0.000 C 
ATOM     13  C   UNL     1       0.745   3.214  18.752  0.00  0.00    +0.000 C 
ATOM     14  C   UNL     1       3.036   2.130  18.904  0.00  0.00    +0.000 C 
ATOM     15  C   UNL     1       3.332   2.243  17.395  0.00  0.00    +0.000 C 
ATOM     16  C   UNL     1       3.180   3.738  17.043  0.00  0.00    +0.000 C 
ATOM     17  C   UNL     1       3.035   4.429  18.399  0.00  0.00    +0.000 C 
ATOM     18  C   UNL     1       2.442   5.842  18.459  0.00  0.00    +0.000 C 
ENDROOT
BRANCH   5  19
ATOM     19  O   UNL     1       0.256  11.618  20.350  0.00  0.00    +0.000 OA
ATOM     20  H   UNL     1       0.917  12.157  20.801  0.00  0.00    +0.000 HD
ENDBRANCH   5  19
BRANCH  14  21
ATOM     21  O   UNL     1       2.387   0.921  19.241  0.00  0.00    +0.000 OA
ATOM     22  H   UNL     1       2.120   0.957  20.173  0.00  0.00    +0.000 HD
ENDBRANCH  14  21
BRANCH   1  23
ATOM     23  O   UNL     1       4.602   7.041  17.968  0.00  0.00    +0.000 OA
BRANCH  23  24
ATOM     24  C   UNL     1       5.434   6.849  16.810  0.00  0.00    +0.000 C 
BRANCH  24  25
ATOM     25  C   UNL     1       6.554   5.796  16.892  0.00  0.00    +0.000 C 
BRANCH  25  27
ATOM     26  C   UNL     1       7.758   7.821  17.563  0.00  0.00    +0.000 C 
ATOM     27  N   UNL     1       7.721   6.362  17.623  0.00  0.00    +0.000 NA
ATOM     28  C   UNL     1       7.787   5.922  19.019  0.00  0.00    +0.000 C 
ENDBRANCH  25  27
ENDBRANCH  24  25
ENDBRANCH  23  24
ENDBRANCH   1  23
TORSDOF 6
ENDMDL
MODEL 3
REMARK VINA RESULT:      -7.3      2.340      6.110
REMARK  Name = 
REMARK  9 active torsions:
REMARK  status: ('A' for Active; 'I' for Inactive)
REMARK    1  A    between atoms: C_1  and  N_2
REMARK    2  A    between atoms: N_2  and  C_3
REMARK    3  A    between atoms: N_2  and  C_4
REMARK    4  A    between atoms: C_4  and  C_5
REMARK    5  A    between atoms: C_5  and  O_6
REMARK    6  A    between atoms: O_6  and  C_7
REMARK    7  A    between atoms: C_11  and  O_12
REMARK    8  A    between atoms: C_19  and  C_20
REMARK    9  A    between atoms: C_21  and  O_22
REMARK                            x       y       z     vdW  Elec       q    Type
REMARK                         _______ _______ _______ _____ _____    ______ ____
ROOT
ATOM      1  C   UNL     1       4.166   6.814  17.914  0.00  0.00    +0.000 C 
ATOM      2  C   UNL     1       5.538   6.901  17.214  0.00  0.00    +0.000 C 
ATOM      3  C   UNL     1       5.788   5.882  16.134  0.00  0.00    +0.000 A 
ATOM      4  C   UNL     1       6.911   6.086  15.306  0.00  0.00    +0.000 A 
ATOM      5  C   UNL     1       7.238   5.156  14.326  0.00  0.00    +0.000 A 
ATOM      6  C   UNL     1       6.473   4.018  14.161  0.00  0.00    +0.000 A 
ATOM      7  C   UNL     1       5.352   3.813  14.974  0.00  0.00    +0.000 A 
ATOM      8  C   UNL     1       4.989   4.733  15.975  0.00  0.00    +0.000 A 
ATOM      9  C   UNL     1       3.718   4.557  16.810  0.00  0.00    +0.000 C 
ATOM     10  C   UNL     1       3.304   3.074  17.029  0.00  0.00    +0.000 C 
ATOM     11  C   UNL     1       2.076   2.907  17.939  0.00  0.00    +0.000 C 
ATOM     12  C   UNL     1       2.283   3.613  19.281  0.00  0.00    +0.000 C 
ATOM     13  C   UNL     1       3.393   2.877  20.079  0.00  0.00    +0.000 C 
ATOM     14  C   UNL     1       1.014   3.760  20.146  0.00  0.00    +0.000 C 
ATOM     15  C   UNL     1       1.342   4.942  21.081  0.00  0.00    +0.000 C 
ATOM     16  C   UNL     1       2.467   5.736  20.384  0.00  0.00    +0.000 C 
ATOM     17  C   UNL     1       2.562   5.107  18.993  0.00  0.00    +0.000 C 
ATOM     18  C   UNL     1       3.830   5.326  18.159  0.00  0.00    +0.000 C 
ENDROOT
BRANCH   5  19
ATOM     19  O   UNL     1       8.319   5.342  13.515  0.00  0.00    +0.000 OA
ATOM     20  H   UNL     1       8.078   5.086  12.616  0.00  0.00    +0.000 HD
ENDBRANCH   5  19
BRANCH  14  21
ATOM     21  O   UNL     1       0.653   2.591  20.854  0.00  0.00    +0.000 OA
ATOM     22  H   UNL     1      -0.179   2.249  20.492  0.00  0.00    +0.000 HD
ENDBRANCH  14  21
BRANCH   1  23
ATOM     23  O   UNL     1       3.128   7.551  17.213  0.00  0.00    +0.000 OA
BRANCH  23  24
ATOM     24  C   UNL     1       2.629   8.605  18.057  0.00  0.00    +0.000 C 
BRANCH  24  25
ATOM     25  C   UNL     1       1.242   9.193  17.737  0.00  0.00    +0.000 C 
BRANCH  25  27
ATOM     26  C   UNL     1      -0.659  10.344  18.768  0.00  0.00    +0.000 C 
ATOM     27  N   UNL     1       0.746   9.971  18.906  0.00  0.00    +0.000 NA
ATOM     28  C   UNL     1       0.953   9.279  20.181  0.00  0.00    +0.000 C 
ENDBRANCH  25  27
ENDBRANCH  24  25
ENDBRANCH  23  24
ENDBRANCH   1  23
TORSDOF 6
ENDMDL
MODEL 4
REMARK VINA RESULT:      -6.8      1.972      4.479
REMARK  Name = 
REMARK  9 active torsions:
REMARK  status: ('A' for Active; 'I' for Inactive)
REMARK    1  A    between atoms: C_1  and  N_2
REMARK    2  A    between atoms: N_2  and  C_3
REMARK    3  A    between atoms: N_2  and  C_4
REMARK    4  A    between atoms: C_4  and  C_5
REMARK    5  A    between atoms: C_5  and  O_6
REMARK    6  A    between atoms: O_6  and  C_7
REMARK    7  A    between atoms: C_11  and  O_12
REMARK    8  A    between atoms: C_19  and  C_20
REMARK    9  A    between atoms: C_21  and  O_22
REMARK                            x       y       z     vdW  Elec       q    Type
REMARK                         _______ _______ _______ _____ _____    ______ ____
ROOT
ATOM      1  C   UNL     1       3.110   5.432  19.656  0.00  0.00    +0.000 C 
ATOM      2  C   UNL     1       2.407   6.390  20.638  0.00  0.00    +0.000 C 
ATOM      3  C   UNL     1       1.828   7.642  20.031  0.00  0.00    +0.000 A 
ATOM      4  C   UNL     1       0.965   8.408  20.840  0.00  0.00    +0.000 A 
ATOM      5  C   UNL     1       0.440   9.606  20.368  0.00  0.00    +0.000 A 
ATOM      6  C   UNL     1       0.768  10.062  19.106  0.00  0.00    +0.000 A 
ATOM      7  C   UNL     1       1.617   9.302  18.294  0.00  0.00    +0.000 A 
ATOM      8  C   UNL     1       2.166   8.084  18.737  0.00  0.00    +0.000 A 
ATOM      9  C   UNL     1       3.028   7.208  17.824  0.00  0.00    +0.000 C 
ATOM     10  C   UNL     1       3.838   8.003  16.762  0.00  0.00    +0.000 C 
ATOM     11  C   UNL     1       4.764   7.122  15.907  0.00  0.00    +0.000 C 
ATOM     12  C   UNL     1       5.699   6.288  16.787  0.00  0.00    +0.000 C 
ATOM     13  C   UNL     1       6.703   7.232  17.502  0.00  0.00    +0.000 C 
ATOM     14  C   UNL     1       6.456   5.162  16.053  0.00  0.00    +0.000 C 
ATOM     15  C   UNL     1       6.824   4.173  17.179  0.00  0.00    +0.000 C 
ATOM     16  C   UNL     1       5.841   4.460  18.333  0.00  0.00    +0.000 C 
ATOM     17  C   UNL     1       4.824   5.427  17.727  0.00  0.00    +0.000 C 
ATOM     18  C   UNL     1       3.946   6.269  18.660  0.00  0.00    +0.000 C 
ENDROOT
BRANCH   5  19
ATOM     19  O   UNL     1      -0.399  10.356  21.139  0.00  0.00    +0.000 OA
ATOM     20  H   UNL     1      -0.849  10.995  20.572  0.00  0.00    +0.000 HD
ENDBRANCH   5  19
BRANCH  14  21
ATOM     21  O   UNL     1       7.585   5.599  15.324  0.00  0.00    +0.000 OA
ATOM     22  H   UNL     1       7.350   5.656  14.385  0.00  0.00    +0.000 HD
ENDBRANCH  14  21
BRANCH   1  23
ATOM     23  O   UNL     1       2.193   4.498  19.024  0.00  0.00    +0.000 OA
BRANCH  23  24
ATOM     24  C   UNL     1       1.578   3.670  20.028  0.00  0.00    +0.000 C 
BRANCH  24  25
ATOM     25  C   UNL     1       2.272   2.345  20.396  0.00  0.00    +0.000 C 
BRANCH  25  27
ATOM     26  C   UNL     1       4.651   1.782  20.554  0.00  0.00    +0.000 C 
ATOM     27  N   UNL     1       3.576   2.249  19.683  0.00  0.00    +0.000 NA
ATOM     28  C   UNL     1       3.510   1.409  18.484  0.00  0.00    +0.000 C 
ENDBRANCH  25  27
ENDBRANCH  24  25
ENDBRANCH  23  24
ENDBRANCH   1  23
TORSDOF 6
ENDMDL
MODEL 5
REMARK VINA RESULT:      -6.8      2.063      4.471
REMARK  Name = 
REMARK  9 active torsions:
REMARK  status: ('A' for Active; 'I' for Inactive)
REMARK    1  A    between atoms: C_1  and  N_2
REMARK    2  A    between atoms: N_2  and  C_3
REMARK    3  A    between atoms: N_2  and  C_4
REMARK    4  A    between atoms: C_4  and  C_5
REMARK    5  A    between atoms: C_5  and  O_6
REMARK    6  A    between atoms: O_6  and  C_7
REMARK    7  A    between atoms: C_11  and  O_12
REMARK    8  A    between atoms: C_19  and  C_20
REMARK    9  A    between atoms: C_21  and  O_22
REMARK                            x       y       z     vdW  Elec       q    Type
REMARK                         _______ _______ _______ _____ _____    ______ ____
ROOT
ATOM      1  C   UNL     1       2.727   5.902  19.964  0.00  0.00    +0.000 C 
ATOM      2  C   UNL     1       2.036   7.049  20.728  0.00  0.00    +0.000 C 
ATOM      3  C   UNL     1       1.587   8.218  19.891  0.00  0.00    +0.000 A 
ATOM      4  C   UNL     1       0.735   9.158  20.504  0.00  0.00    +0.000 A 
ATOM      5  C   UNL     1       0.326  10.292  19.811  0.00  0.00    +0.000 A 
ATOM      6  C   UNL     1       0.763  10.515  18.519  0.00  0.00    +0.000 A 
ATOM      7  C   UNL     1       1.603   9.582  17.901  0.00  0.00    +0.000 A 
ATOM      8  C   UNL     1       2.034   8.421  18.570  0.00  0.00    +0.000 A 
ATOM      9  C   UNL     1       2.885   7.356  17.873  0.00  0.00    +0.000 C 
ATOM     10  C   UNL     1       3.813   7.916  16.758  0.00  0.00    +0.000 C 
ATOM     11  C   UNL     1       4.723   6.852  16.123  0.00  0.00    +0.000 C 
ATOM     12  C   UNL     1       5.540   6.118  17.189  0.00  0.00    +0.000 C 
ATOM     13  C   UNL     1       6.565   7.102  17.815  0.00  0.00    +0.000 C 
ATOM     14  C   UNL     1       6.257   4.842  16.699  0.00  0.00    +0.000 C 
ATOM     15  C   UNL     1       6.484   4.030  17.991  0.00  0.00    +0.000 C 
ATOM     16  C   UNL     1       5.456   4.561  19.012  0.00  0.00    +0.000 C 
ATOM     17  C   UNL     1       4.550   5.477  18.189  0.00  0.00    +0.000 C 
ATOM     18  C   UNL     1       3.680   6.513  18.911  0.00  0.00    +0.000 C 
ENDROOT
BRANCH   5  19
ATOM     19  O   UNL     1      -0.502  11.209  20.390  0.00  0.00    +0.000 OA
ATOM     20  H   UNL     1      -0.495  11.069  21.345  0.00  0.00    +0.000 HD
ENDBRANCH   5  19
BRANCH  14  21
ATOM     21  O   UNL     1       7.457   5.084  15.993  0.00  0.00    +0.000 OA
ATOM     22  H   UNL     1       7.903   4.238  15.831  0.00  0.00    +0.000 HD
ENDBRANCH  14  21
BRANCH   1  23
ATOM     23  O   UNL     1       1.784   4.936  19.425  0.00  0.00    +0.000 OA
BRANCH  23  24
ATOM     24  C   UNL     1       1.484   3.944  20.423  0.00  0.00    +0.000 C 
BRANCH  24  25
ATOM     25  C   UNL     1       2.349   2.670  20.460  0.00  0.00    +0.000 C 
BRANCH  25  27
ATOM     26  C   UNL     1       0.725   2.120  18.710  0.00  0.00    +0.000 C 
ATOM     27  N   UNL     1       2.035   1.818  19.280  0.00  0.00    +0.000 NA
ATOM     28  C   UNL     1       3.059   1.894  18.234  0.00  0.00    +0.000 C 
ENDBRANCH  25  27
ENDBRANCH  24  25
ENDBRANCH  23  24
ENDBRANCH   1  23
TORSDOF 6
ENDMDL
MODEL 6
REMARK VINA RESULT:      -6.7      2.159      4.638
REMARK  Name = 
REMARK  9 active torsions:
REMARK  status: ('A' for Active; 'I' for Inactive)
REMARK    1  A    between atoms: C_1  and  N_2
REMARK    2  A    between atoms: N_2  and  C_3
REMARK    3  A    between atoms: N_2  and  C_4
REMARK    4  A    between atoms: C_4  and  C_5
REMARK    5  A    between atoms: C_5  and  O_6
REMARK    6  A    between atoms: O_6  and  C_7
REMARK    7  A    between atoms: C_11  and  O_12
REMARK    8  A    between atoms: C_19  and  C_20
REMARK    9  A    between atoms: C_21  and  O_22
REMARK                            x       y       z     vdW  Elec       q    Type
REMARK                         _______ _______ _______ _____ _____    ______ ____
ROOT
ATOM      1  C   UNL     1       2.516   5.129  19.343  0.00  0.00    +0.000 C 
ATOM      2  C   UNL     1       1.979   5.953  20.531  0.00  0.00    +0.000 C 
ATOM      3  C   UNL     1       1.633   7.388  20.230  0.00  0.00    +0.000 A 
ATOM      4  C   UNL     1       0.907   8.092  21.211  0.00  0.00    +0.000 A 
ATOM      5  C   UNL     1       0.602   9.437  21.028  0.00  0.00    +0.000 A 
ATOM      6  C   UNL     1       1.017  10.097  19.887  0.00  0.00    +0.000 A 
ATOM      7  C   UNL     1       1.730   9.400  18.905  0.00  0.00    +0.000 A 
ATOM      8  C   UNL     1       2.055   8.039  19.055  0.00  0.00    +0.000 A 
ATOM      9  C   UNL     1       2.761   7.252  17.948  0.00  0.00    +0.000 C 
ATOM     10  C   UNL     1       3.708   8.111  17.063  0.00  0.00    +0.000 C 
ATOM     11  C   UNL     1       4.475   7.295  16.010  0.00  0.00    +0.000 C 
ATOM     12  C   UNL     1       5.243   6.140  16.659  0.00  0.00    +0.000 C 
ATOM     13  C   UNL     1       6.388   6.717  17.534  0.00  0.00    +0.000 C 
ATOM     14  C   UNL     1       5.801   5.091  15.675  0.00  0.00    +0.000 C 
ATOM     15  C   UNL     1       5.980   3.830  16.546  0.00  0.00    +0.000 C 
ATOM     16  C   UNL     1       5.050   4.019  17.762  0.00  0.00    +0.000 C 
ATOM     17  C   UNL     1       4.222   5.256  17.412  0.00  0.00    +0.000 C 
ATOM     18  C   UNL     1       3.494   6.009  18.532  0.00  0.00    +0.000 C 
ENDROOT
BRANCH   5  19
ATOM     19  O   UNL     1      -0.102  10.131  21.968  0.00  0.00    +0.000 OA
ATOM     20  H   UNL     1      -1.041  10.072  21.755  0.00  0.00    +0.000 HD
ENDBRANCH   5  19
BRANCH  14  21
ATOM     21  O   UNL     1       6.996   5.478  15.027  0.00  0.00    +0.000 OA
ATOM     22  H   UNL     1       6.824   6.274  14.501  0.00  0.00    +0.000 HD
ENDBRANCH  14  21
BRANCH   1  23
ATOM     23  O   UNL     1       1.457   4.528  18.548  0.00  0.00    +0.000 OA
BRANCH  23  24
ATOM     24  C   UNL     1       1.012   3.311  19.176  0.00  0.00    +0.000 C 
BRANCH  24  25
ATOM     25  C   UNL     1       1.995   2.127  19.233  0.00  0.00    +0.000 C 
BRANCH  25  27
ATOM     26  C   UNL     1       3.823   2.311  20.853  0.00  0.00    +0.000 C 
ATOM     27  N   UNL     1       2.435   1.910  20.639  0.00  0.00    +0.000 NA
ATOM     28  C   UNL     1       1.571   2.576  21.617  0.00  0.00    +0.000 C 
ENDBRANCH  25  27
ENDBRANCH  24  25
ENDBRANCH  23  24
ENDBRANCH   1  23
TORSDOF 6
ENDMDL
MODEL 7
REMARK VINA RESULT:      -6.5      2.237      4.958
REMARK  Name = 
REMARK  9 active torsions:
REMARK  status: ('A' for Active; 'I' for Inactive)
REMARK    1  A    between atoms: C_1  and  N_2
REMARK    2  A    between atoms: N_2  and  C_3
REMARK    3  A    between atoms: N_2  and  C_4
REMARK    4  A    between atoms: C_4  and  C_5
REMARK    5  A    between atoms: C_5  and  O_6
REMARK    6  A    between atoms: O_6  and  C_7
REMARK    7  A    between atoms: C_11  and  O_12
REMARK    8  A    between atoms: C_19  and  C_20
REMARK    9  A    between atoms: C_21  and  O_22
REMARK                            x       y       z     vdW  Elec       q    Type
REMARK                         _______ _______ _______ _____ _____    ______ ____
ROOT
ATOM      1  C   UNL     1       3.618   5.085  19.279  0.00  0.00    +0.000 C 
ATOM      2  C   UNL     1       2.914   5.961  20.335  0.00  0.00    +0.000 C 
ATOM      3  C   UNL     1       2.243   7.205  19.813  0.00  0.00    +0.000 A 
ATOM      4  C   UNL     1       1.382   7.888  20.695  0.00  0.00    +0.000 A 
ATOM      5  C   UNL     1       0.773   9.075  20.302  0.00  0.00    +0.000 A 
ATOM      6  C   UNL     1       1.016   9.602  19.048  0.00  0.00    +0.000 A 
ATOM      7  C   UNL     1       1.863   8.924  18.165  0.00  0.00    +0.000 A 
ATOM      8  C   UNL     1       2.495   7.719  18.526  0.00  0.00    +0.000 A 
ATOM      9  C   UNL     1       3.357   6.931  17.536  0.00  0.00    +0.000 C 
ATOM     10  C   UNL     1       4.073   7.814  16.475  0.00  0.00    +0.000 C 
ATOM     11  C   UNL     1       5.000   7.021  15.540  0.00  0.00    +0.000 C 
ATOM     12  C   UNL     1       6.019   6.202  16.337  0.00  0.00    +0.000 C 
ATOM     13  C   UNL     1       7.006   7.168  17.048  0.00  0.00    +0.000 C 
ATOM     14  C   UNL     1       6.797   5.151  15.519  0.00  0.00    +0.000 C 
ATOM     15  C   UNL     1       7.269   4.136  16.581  0.00  0.00    +0.000 C 
ATOM     16  C   UNL     1       6.329   4.319  17.791  0.00  0.00    +0.000 C 
ATOM     17  C   UNL     1       5.235   5.256  17.276  0.00  0.00    +0.000 C 
ATOM     18  C   UNL     1       4.361   6.008  18.286  0.00  0.00    +0.000 C 
ENDROOT
BRANCH   5  19
ATOM     19  O   UNL     1      -0.066   9.745  21.144  0.00  0.00    +0.000 OA
ATOM     20  H   UNL     1      -0.263   9.178  21.899  0.00  0.00    +0.000 HD
ENDBRANCH   5  19
BRANCH  14  21
ATOM     21  O   UNL     1       7.866   5.679  14.760  0.00  0.00    +0.000 OA
ATOM     22  H   UNL     1       7.757   6.640  14.691  0.00  0.00    +0.000 HD
ENDBRANCH  14  21
BRANCH   1  23
ATOM     23  O   UNL     1       2.721   4.131  18.648  0.00  0.00    +0.000 OA
BRANCH  23  24
ATOM     24  C   UNL     1       3.127   2.792  18.983  0.00  0.00    +0.000 C 
BRANCH  24  25
ATOM     25  C   UNL     1       2.037   1.790  19.406  0.00  0.00    +0.000 C 
BRANCH  25  27
ATOM     26  C   UNL     1       2.360   2.589  21.700  0.00  0.00    +0.000 C 
ATOM     27  N   UNL     1       1.387   2.259  20.662  0.00  0.00    +0.000 NA
ATOM     28  C   UNL     1       0.487   3.396  20.448  0.00  0.00    +0.000 C 
ENDBRANCH  25  27
ENDBRANCH  24  25
ENDBRANCH  23  24
ENDBRANCH   1  23
TORSDOF 6
ENDMDL
MODEL 8
REMARK VINA RESULT:      -6.0      5.106      9.869
REMARK  Name = 
REMARK  9 active torsions:
REMARK  status: ('A' for Active; 'I' for Inactive)
REMARK    1  A    between atoms: C_1  and  N_2
REMARK    2  A    between atoms: N_2  and  C_3
REMARK    3  A    between atoms: N_2  and  C_4
REMARK    4  A    between atoms: C_4  and  C_5
REMARK    5  A    between atoms: C_5  and  O_6
REMARK    6  A    between atoms: O_6  and  C_7
REMARK    7  A    between atoms: C_11  and  O_12
REMARK    8  A    between atoms: C_19  and  C_20
REMARK    9  A    between atoms: C_21  and  O_22
REMARK                            x       y       z     vdW  Elec       q    Type
REMARK                         _______ _______ _______ _____ _____    ______ ____
ROOT
ATOM      1  C   UNL     1      -1.843  11.931  18.917  0.00  0.00    +0.000 C 
ATOM      2  C   UNL     1      -0.621  11.402  18.139  0.00  0.00    +0.000 C 
ATOM      3  C   UNL     1       0.158  10.302  18.811  0.00  0.00    +0.000 A 
ATOM      4  C   UNL     1       1.115   9.623  18.029  0.00  0.00    +0.000 A 
ATOM      5  C   UNL     1       1.912   8.636  18.597  0.00  0.00    +0.000 A 
ATOM      6  C   UNL     1       1.782   8.319  19.936  0.00  0.00    +0.000 A 
ATOM      7  C   UNL     1       0.828   8.983  20.715  0.00  0.00    +0.000 A 
ATOM      8  C   UNL     1       0.002   9.985  20.174  0.00  0.00    +0.000 A 
ATOM      9  C   UNL     1      -1.099  10.656  21.000  0.00  0.00    +0.000 C 
ATOM     10  C   UNL     1      -0.790  10.740  22.521  0.00  0.00    +0.000 C 
ATOM     11  C   UNL     1      -1.863  11.490  23.327  0.00  0.00    +0.000 C 
ATOM     12  C   UNL     1      -2.112  12.885  22.749  0.00  0.00    +0.000 C 
ATOM     13  C   UNL     1      -0.852  13.763  22.973  0.00  0.00    +0.000 C 
ATOM     14  C   UNL     1      -3.366  13.603  23.291  0.00  0.00    +0.000 C 
ATOM     15  C   UNL     1      -3.700  14.636  22.195  0.00  0.00    +0.000 C 
ATOM     16  C   UNL     1      -3.025  14.121  20.906  0.00  0.00    +0.000 C 
ATOM     17  C   UNL     1      -2.542  12.717  21.273  0.00  0.00    +0.000 C 
ATOM     18  C   UNL     1      -1.463  12.050  20.411  0.00  0.00    +0.000 C 
ENDROOT
BRANCH   5  19
ATOM     19  O   UNL     1       2.840   7.969  17.853  0.00  0.00    +0.000 OA
ATOM     20  H   UNL     1       3.645   7.873  18.377  0.00  0.00    +0.000 HD
ENDBRANCH   5  19
BRANCH  14  21
ATOM     21  O   UNL     1      -3.192  14.197  24.562  0.00  0.00    +0.000 OA
ATOM     22  H   UNL     1      -3.174  13.499  25.235  0.00  0.00    +0.000 HD
ENDBRANCH  14  21
BRANCH   1  23
ATOM     23  O   UNL     1      -3.048  11.157  18.669  0.00  0.00    +0.000 OA
BRANCH  23  24
ATOM     24  C   UNL     1      -3.473  11.347  17.307  0.00  0.00    +0.000 C 
BRANCH  24  25
ATOM     25  C   UNL     1      -4.951  11.698  17.053  0.00  0.00    +0.000 C 
BRANCH  25  27
ATOM     26  C   UNL     1      -6.170  13.156  18.599  0.00  0.00    +0.000 C 
ATOM     27  N   UNL     1      -5.669  11.806  18.353  0.00  0.00    +0.000 NA
ATOM     28  C   UNL     1      -6.764  10.841  18.481  0.00  0.00    +0.000 C 
ENDBRANCH  25  27
ENDBRANCH  24  25
ENDBRANCH  23  24
ENDBRANCH   1  23
TORSDOF 6
ENDMDL
MODEL 9
REMARK VINA RESULT:      -6.0      7.298      9.750
REMARK  Name = 
REMARK  9 active torsions:
REMARK  status: ('A' for Active; 'I' for Inactive)
REMARK    1  A    between atoms: C_1  and  N_2
REMARK    2  A    between atoms: N_2  and  C_3
REMARK    3  A    between atoms: N_2  and  C_4
REMARK    4  A    between atoms: C_4  and  C_5
REMARK    5  A    between atoms: C_5  and  O_6
REMARK    6  A    between atoms: O_6  and  C_7
REMARK    7  A    between atoms: C_11  and  O_12
REMARK    8  A    between atoms: C_19  and  C_20
REMARK    9  A    between atoms: C_21  and  O_22
REMARK                            x       y       z     vdW  Elec       q    Type
REMARK                         _______ _______ _______ _____ _____    ______ ____
ROOT
ATOM      1  C   UNL     1      -1.731  12.299  19.106  0.00  0.00    +0.000 C 
ATOM      2  C   UNL     1      -0.613  12.870  18.211  0.00  0.00    +0.000 C 
ATOM      3  C   UNL     1       0.673  13.222  18.913  0.00  0.00    +0.000 A 
ATOM      4  C   UNL     1       1.791  13.501  18.102  0.00  0.00    +0.000 A 
ATOM      5  C   UNL     1       2.996  13.889  18.678  0.00  0.00    +0.000 A 
ATOM      6  C   UNL     1       3.104  14.017  20.049  0.00  0.00    +0.000 A 
ATOM      7  C   UNL     1       2.000  13.733  20.861  0.00  0.00    +0.000 A 
ATOM      8  C   UNL     1       0.766  13.335  20.313  0.00  0.00    +0.000 A 
ATOM      9  C   UNL     1      -0.420  12.943  21.199  0.00  0.00    +0.000 C 
ATOM     10  C   UNL     1      -0.458  13.676  22.569  0.00  0.00    +0.000 C 
ATOM     11  C   UNL     1      -1.698  13.338  23.414  0.00  0.00    +0.000 C 
ATOM     12  C   UNL     1      -2.987  13.594  22.629  0.00  0.00    +0.000 C 
ATOM     13  C   UNL     1      -3.147  15.121  22.395  0.00  0.00    +0.000 C 
ATOM     14  C   UNL     1      -4.267  13.015  23.266  0.00  0.00    +0.000 C 
ATOM     15  C   UNL     1      -5.243  12.888  22.078  0.00  0.00    +0.000 C 
ATOM     16  C   UNL     1      -4.365  12.857  20.809  0.00  0.00    +0.000 C 
ATOM     17  C   UNL     1      -2.938  12.735  21.344  0.00  0.00    +0.000 C 
ATOM     18  C   UNL     1      -1.764  13.099  20.428  0.00  0.00    +0.000 C 
ENDROOT
BRANCH   5  19
ATOM     19  O   UNL     1       4.088  14.159  17.906  0.00  0.00    +0.000 OA
ATOM     20  H   UNL     1       4.409  13.332  17.526  0.00  0.00    +0.000 HD
ENDBRANCH   5  19
BRANCH  14  21
ATOM     21  O   UNL     1      -4.795  13.792  24.322  0.00  0.00    +0.000 OA
ATOM     22  H   UNL     1      -4.919  13.224  25.098  0.00  0.00    +0.000 HD
ENDBRANCH  14  21
BRANCH   1  23
ATOM     23  O   UNL     1      -1.632  10.860  19.283  0.00  0.00    +0.000 OA
BRANCH  23  24
ATOM     24  C   UNL     1      -1.516  10.221  17.999  0.00  0.00    +0.000 C 
BRANCH  24  25
ATOM     25  C   UNL     1      -2.812   9.806  17.278  0.00  0.00    +0.000 C 
BRANCH  25  27
ATOM     26  C   UNL     1      -3.231  10.372  14.931  0.00  0.00    +0.000 C 
ATOM     27  N   UNL     1      -3.204  10.864  16.305  0.00  0.00    +0.000 NA
ATOM     28  C   UNL     1      -4.486  11.492  16.632  0.00  0.00    +0.000 C 
ENDBRANCH  25  27
ENDBRANCH  24  25
ENDBRANCH  23  24
ENDBRANCH   1  23
TORSDOF 6
ENDMDL
