MODEL 1
REMARK VINA RESULT:      -9.0      0.000      0.000
REMARK  Name = 
REMARK  3 active torsions:
REMARK  status: ('A' for Active; 'I' for Inactive)
REMARK    1  A    between atoms: C_2  and  C_10
REMARK    2  A    between atoms: N_3  and  C_4
REMARK    3  A    between atoms: C_12  and  C_13
REMARK                            x       y       z     vdW  Elec       q    Type
REMARK                         _______ _______ _______ _____ _____    ______ ____
ROOT
ATOM      1  C   UNL     1       2.960   6.390  18.642  0.00  0.00    +0.000 A 
ATOM      2  C   UNL     1       2.406   7.568  19.154  0.00  0.00    +0.000 A 
ATOM      3  C   UNL     1       1.640   7.499  20.307  0.00  0.00    +0.000 A 
ATOM      4  N   UNL     1       1.459   6.324  20.949  0.00  0.00    +0.000 NA
ATOM      5  C   UNL     1       1.965   5.188  20.448  0.00  0.00    +0.000 A 
ATOM      6  C   UNL     1       1.744   4.019  21.166  0.00  0.00    +0.000 A 
ATOM      7  C   UNL     1       2.219   2.783  20.725  0.00  0.00    +0.000 A 
ATOM      8  C   UNL     1       2.911   2.712  19.527  0.00  0.00    +0.000 A 
ATOM      9 CL   UNL     1       3.464   1.190  18.950  0.00  0.00    +0.000 Cl
ATOM     10  C   UNL     1       3.163   3.873  18.797  0.00  0.00    +0.000 A 
ATOM     11  C   UNL     1       2.710   5.139  19.258  0.00  0.00    +0.000 A 
ENDROOT
BRANCH   3  12
ATOM     12  C   UNL     1       0.993   8.666  20.934  0.00  0.00    +0.000 A 
ATOM     13  C   UNL     1       0.241   9.611  20.221  0.00  0.00    +0.000 A 
ATOM     14  C   UNL     1      -0.362  10.682  20.882  0.00  0.00    +0.000 A 
ATOM     15  C   UNL     1      -0.200  10.790  22.251  0.00  0.00    +0.000 A 
ATOM     16  N   UNL     1       0.513   9.916  22.985  0.00  0.00    +0.000 NA
ATOM     17  C   UNL     1       1.080   8.881  22.312  0.00  0.00    +0.000 A 
ENDBRANCH   3  12
BRANCH   1  19
ATOM     18  O   UNL     1       3.901   7.569  16.852  0.00  0.00    +0.000 OA
ATOM     19  C   UNL     1       3.859   6.511  17.462  0.00  0.00    +0.000 C 
ATOM     20  N   UNL     1       4.547   5.344  17.161  0.00  0.00    +0.000 N 
ATOM     21  H   UNL     1       4.329   4.520  17.710  0.00  0.00    +0.000 HD
BRANCH  20  22
ATOM     22  C   UNL     1       5.407   5.131  16.059  0.00  0.00    +0.000 A 
ATOM     23  C   UNL     1       5.072   4.381  14.937  0.00  0.00    +0.000 A 
ATOM     24  C   UNL     1       6.019   4.176  13.932  0.00  0.00    +0.000 A 
ATOM     25  C   UNL     1       7.273   4.742  14.077  0.00  0.00    +0.000 A 
ATOM     26  N   UNL     1       7.628   5.506  15.130  0.00  0.00    +0.000 NA
ATOM     27  C   UNL     1       6.689   5.683  16.089  0.00  0.00    +0.000 A 
ENDBRANCH  20  22
ENDBRANCH   1  19
TORSDOF 3
ENDMDL
MODEL 2
REMARK VINA RESULT:      -8.8      2.283      7.105
REMARK  Name = 
REMARK  3 active torsions:
REMARK  status: ('A' for Active; 'I' for Inactive)
REMARK    1  A    between atoms: C_2  and  C_10
REMARK    2  A    between atoms: N_3  and  C_4
REMARK    3  A    between atoms: C_12  and  C_13
REMARK                            x       y       z     vdW  Elec       q    Type
REMARK                         _______ _______ _______ _____ _____    ______ ____
ROOT
ATOM      1  C   UNL     1       3.373   5.777  18.227  0.00  0.00    +0.000 A 
ATOM      2  C   UNL     1       4.232   5.898  17.130  0.00  0.00    +0.000 A 
ATOM      3  C   UNL     1       4.741   4.747  16.551  0.00  0.00    +0.000 A 
ATOM      4  N   UNL     1       4.389   3.525  17.011  0.00  0.00    +0.000 NA
ATOM      5  C   UNL     1       3.587   3.404  18.078  0.00  0.00    +0.000 A 
ATOM      6  C   UNL     1       3.261   2.118  18.489  0.00  0.00    +0.000 A 
ATOM      7  C   UNL     1       2.442   1.883  19.595  0.00  0.00    +0.000 A 
ATOM      8  C   UNL     1       1.957   2.960  20.319  0.00  0.00    +0.000 A 
ATOM      9 CL   UNL     1       0.983   2.686  21.708  0.00  0.00    +0.000 Cl
ATOM     10  C   UNL     1       2.253   4.262  19.915  0.00  0.00    +0.000 A 
ATOM     11  C   UNL     1       3.059   4.507  18.771  0.00  0.00    +0.000 A 
ENDROOT
BRANCH   3  12
ATOM     12  C   UNL     1       5.666   4.744  15.403  0.00  0.00    +0.000 A 
ATOM     13  C   UNL     1       5.405   4.074  14.199  0.00  0.00    +0.000 A 
ATOM     14  C   UNL     1       6.318   4.130  13.144  0.00  0.00    +0.000 A 
ATOM     15  C   UNL     1       7.481   4.858  13.314  0.00  0.00    +0.000 A 
ATOM     16  N   UNL     1       7.785   5.518  14.447  0.00  0.00    +0.000 NA
ATOM     17  C   UNL     1       6.872   5.449  15.451  0.00  0.00    +0.000 A 
ENDBRANCH   3  12
BRANCH   1  19
ATOM     18  O   UNL     1       2.551   7.116  19.962  0.00  0.00    +0.000 OA
ATOM     19  C   UNL     1       2.764   7.025  18.762  0.00  0.00    +0.000 C 
ATOM     20  N   UNL     1       2.465   7.965  17.786  0.00  0.00    +0.000 N 
ATOM     21  H   UNL     1       2.617   7.698  16.820  0.00  0.00    +0.000 HD
BRANCH  20  22
ATOM     22  C   UNL     1       1.814   9.205  17.979  0.00  0.00    +0.000 A 
ATOM     23  C   UNL     1       2.469  10.426  18.093  0.00  0.00    +0.000 A 
ATOM     24  C   UNL     1       1.736  11.586  18.351  0.00  0.00    +0.000 A 
ATOM     25  C   UNL     1       0.361  11.488  18.474  0.00  0.00    +0.000 A 
ATOM     26  N   UNL     1      -0.318  10.331  18.335  0.00  0.00    +0.000 NA
ATOM     27  C   UNL     1       0.422   9.224  18.089  0.00  0.00    +0.000 A 
ENDBRANCH  20  22
ENDBRANCH   1  19
TORSDOF 3
ENDMDL
MODEL 3
REMARK VINA RESULT:      -8.6      1.385      7.424
REMARK  Name = 
REMARK  3 active torsions:
REMARK  status: ('A' for Active; 'I' for Inactive)
REMARK    1  A    between atoms: C_2  and  C_10
REMARK    2  A    between atoms: N_3  and  C_4
REMARK    3  A    between atoms: C_12  and  C_13
REMARK                            x       y       z     vdW  Elec       q    Type
REMARK                         _______ _______ _______ _____ _____    ______ ____
ROOT
ATOM      1  C   UNL     1       3.507   5.933  17.875  0.00  0.00    +0.000 A 
ATOM      2  C   UNL     1       4.361   5.992  16.769  0.00  0.00    +0.000 A 
ATOM      3  C   UNL     1       4.891   4.812  16.272  0.00  0.00    +0.000 A 
ATOM      4  N   UNL     1       4.563   3.620  16.819  0.00  0.00    +0.000 NA
ATOM      5  C   UNL     1       3.765   3.560  17.895  0.00  0.00    +0.000 A 
ATOM      6  C   UNL     1       3.465   2.301  18.398  0.00  0.00    +0.000 A 
ATOM      7  C   UNL     1       2.654   2.131  19.521  0.00  0.00    +0.000 A 
ATOM      8  C   UNL     1       2.150   3.247  20.168  0.00  0.00    +0.000 A 
ATOM      9 CL   UNL     1       1.185   3.054  21.577  0.00  0.00    +0.000 Cl
ATOM     10  C   UNL     1       2.420   4.522  19.672  0.00  0.00    +0.000 A 
ATOM     11  C   UNL     1       3.219   4.700  18.509  0.00  0.00    +0.000 A 
ENDROOT
BRANCH   3  12
ATOM     12  C   UNL     1       5.813   4.745  15.124  0.00  0.00    +0.000 A 
ATOM     13  C   UNL     1       5.564   3.982  13.973  0.00  0.00    +0.000 A 
ATOM     14  C   UNL     1       6.472   3.979  12.914  0.00  0.00    +0.000 A 
ATOM     15  C   UNL     1       7.620   4.744  13.024  0.00  0.00    +0.000 A 
ATOM     16  N   UNL     1       7.911   5.492  14.104  0.00  0.00    +0.000 NA
ATOM     17  C   UNL     1       7.002   5.478  15.114  0.00  0.00    +0.000 A 
ENDBRANCH   3  12
BRANCH   1  19
ATOM     18  O   UNL     1       2.981   8.200  17.622  0.00  0.00    +0.000 OA
ATOM     19  C   UNL     1       2.876   7.205  18.322  0.00  0.00    +0.000 C 
ATOM     20  N   UNL     1       2.243   7.112  19.555  0.00  0.00    +0.000 N 
ATOM     21  H   UNL     1       2.327   6.235  20.056  0.00  0.00    +0.000 HD
BRANCH  20  22
ATOM     22  C   UNL     1       1.628   8.166  20.268  0.00  0.00    +0.000 A 
ATOM     23  C   UNL     1       1.492   8.201  21.652  0.00  0.00    +0.000 A 
ATOM     24  C   UNL     1       0.807   9.257  22.255  0.00  0.00    +0.000 A 
ATOM     25  C   UNL     1       0.289  10.257  21.451  0.00  0.00    +0.000 A 
ATOM     26  N   UNL     1       0.429  10.281  20.110  0.00  0.00    +0.000 NA
ATOM     27  C   UNL     1       1.095   9.241  19.555  0.00  0.00    +0.000 A 
ENDBRANCH  20  22
ENDBRANCH   1  19
TORSDOF 3
ENDMDL
MODEL 4
REMARK VINA RESULT:      -8.4      1.407      1.705
REMARK  Name = 
REMARK  3 active torsions:
REMARK  status: ('A' for Active; 'I' for Inactive)
REMARK    1  A    between atoms: C_2  and  C_10
REMARK    2  A    between atoms: N_3  and  C_4
REMARK    3  A    between atoms: C_12  and  C_13
REMARK                            x       y       z     vdW  Elec       q    Type
REMARK                         _______ _______ _______ _____ _____    ______ ____
ROOT
ATOM      1  C   UNL     1       4.149   5.766  18.102  0.00  0.00    +0.000 A 
ATOM      2  C   UNL     1       3.461   6.983  18.136  0.00  0.00    +0.000 A 
ATOM      3  C   UNL     1       2.477   7.167  19.094  0.00  0.00    +0.000 A 
ATOM      4  N   UNL     1       2.208   6.204  20.004  0.00  0.00    +0.000 NA
ATOM      5  C   UNL     1       2.846   5.027  19.960  0.00  0.00    +0.000 A 
ATOM      6  C   UNL     1       2.524   4.088  20.932  0.00  0.00    +0.000 A 
ATOM      7  C   UNL     1       3.122   2.828  20.967  0.00  0.00    +0.000 A 
ATOM      8  C   UNL     1       4.049   2.491  19.994  0.00  0.00    +0.000 A 
ATOM      9 CL   UNL     1       4.762   0.928  19.999  0.00  0.00    +0.000 Cl
ATOM     10  C   UNL     1       4.405   3.422  19.018  0.00  0.00    +0.000 A 
ATOM     11  C   UNL     1       3.823   4.718  18.997  0.00  0.00    +0.000 A 
ENDROOT
BRANCH   3  12
ATOM     12  C   UNL     1       1.673   8.396  19.221  0.00  0.00    +0.000 A 
ATOM     13  C   UNL     1       1.385   9.248  18.145  0.00  0.00    +0.000 A 
ATOM     14  C   UNL     1       0.601  10.387  18.333  0.00  0.00    +0.000 A 
ATOM     15  C   UNL     1       0.117  10.655  19.600  0.00  0.00    +0.000 A 
ATOM     16  N   UNL     1       0.363   9.876  20.669  0.00  0.00    +0.000 NA
ATOM     17  C   UNL     1       1.124   8.771  20.450  0.00  0.00    +0.000 A 
ENDBRANCH   3  12
BRANCH   1  19
ATOM     18  O   UNL     1       6.360   6.105  17.412  0.00  0.00    +0.000 OA
ATOM     19  C   UNL     1       5.268   5.638  17.128  0.00  0.00    +0.000 C 
ATOM     20  N   UNL     1       4.911   5.003  15.946  0.00  0.00    +0.000 N 
ATOM     21  H   UNL     1       3.935   4.756  15.827  0.00  0.00    +0.000 HD
BRANCH  20  22
ATOM     22  C   UNL     1       5.731   4.807  14.812  0.00  0.00    +0.000 A 
ATOM     23  C   UNL     1       5.447   3.916  13.783  0.00  0.00    +0.000 A 
ATOM     24  C   UNL     1       6.358   3.749  12.739  0.00  0.00    +0.000 A 
ATOM     25  C   UNL     1       7.526   4.492  12.752  0.00  0.00    +0.000 A 
ATOM     26  N   UNL     1       7.824   5.393  13.710  0.00  0.00    +0.000 NA
ATOM     27  C   UNL     1       6.922   5.529  14.710  0.00  0.00    +0.000 A 
ENDBRANCH  20  22
ENDBRANCH   1  19
TORSDOF 3
ENDMDL
MODEL 5
REMARK VINA RESULT:      -8.3      3.865      6.357
REMARK  Name = 
REMARK  3 active torsions:
REMARK  status: ('A' for Active; 'I' for Inactive)
REMARK    1  A    between atoms: C_2  and  C_10
REMARK    2  A    between atoms: N_3  and  C_4
REMARK    3  A    between atoms: C_12  and  C_13
REMARK                            x       y       z     vdW  Elec       q    Type
REMARK                         _______ _______ _______ _____ _____    ______ ____
ROOT
ATOM      1  C   UNL     1       6.324   5.890  17.681  0.00  0.00    +0.000 A 
ATOM      2  C   UNL     1       5.343   5.521  18.607  0.00  0.00    +0.000 A 
ATOM      3  C   UNL     1       4.392   4.585  18.233  0.00  0.00    +0.000 A 
ATOM      4  N   UNL     1       4.429   4.010  17.011  0.00  0.00    +0.000 NA
ATOM      5  C   UNL     1       5.351   4.379  16.111  0.00  0.00    +0.000 A 
ATOM      6  C   UNL     1       5.333   3.739  14.878  0.00  0.00    +0.000 A 
ATOM      7  C   UNL     1       6.242   4.057  13.869  0.00  0.00    +0.000 A 
ATOM      8  C   UNL     1       7.178   5.055  14.090  0.00  0.00    +0.000 A 
ATOM      9 CL   UNL     1       8.276   5.489  12.842  0.00  0.00    +0.000 Cl
ATOM     10  C   UNL     1       7.230   5.700  15.326  0.00  0.00    +0.000 A 
ATOM     11  C   UNL     1       6.327   5.356  16.369  0.00  0.00    +0.000 A 
ENDROOT
BRANCH   3  12
ATOM     12  C   UNL     1       3.301   4.127  19.112  0.00  0.00    +0.000 A 
ATOM     13  C   UNL     1       2.610   4.971  19.994  0.00  0.00    +0.000 A 
ATOM     14  C   UNL     1       1.573   4.474  20.785  0.00  0.00    +0.000 A 
ATOM     15  C   UNL     1       1.244   3.135  20.679  0.00  0.00    +0.000 A 
ATOM     16  N   UNL     1       1.873   2.279  19.854  0.00  0.00    +0.000 NA
ATOM     17  C   UNL     1       2.874   2.797  19.093  0.00  0.00    +0.000 A 
ENDBRANCH   3  12
BRANCH   1  19
ATOM     18  O   UNL     1       8.271   6.398  18.877  0.00  0.00    +0.000 OA
ATOM     19  C   UNL     1       7.390   6.821  18.145  0.00  0.00    +0.000 C 
ATOM     20  N   UNL     1       7.228   8.124  17.697  0.00  0.00    +0.000 N 
ATOM     21  H   UNL     1       6.388   8.335  17.171  0.00  0.00    +0.000 HD
BRANCH  20  22
ATOM     22  C   UNL     1       8.030   9.238  18.034  0.00  0.00    +0.000 A 
ATOM     23  C   UNL     1       9.013   9.227  19.019  0.00  0.00    +0.000 A 
ATOM     24  C   UNL     1       9.704  10.401  19.321  0.00  0.00    +0.000 A 
ATOM     25  C   UNL     1       9.398  11.552  18.617  0.00  0.00    +0.000 A 
ATOM     26  N   UNL     1       8.479  11.600  17.631  0.00  0.00    +0.000 NA
ATOM     27  C   UNL     1       7.823  10.445  17.363  0.00  0.00    +0.000 A 
ENDBRANCH  20  22
ENDBRANCH   1  19
TORSDOF 3
ENDMDL
MODEL 6
REMARK VINA RESULT:      -8.3      1.546      2.049
REMARK  Name = 
REMARK  3 active torsions:
REMARK  status: ('A' for Active; 'I' for Inactive)
REMARK    1  A    between atoms: C_2  and  C_10
REMARK    2  A    between atoms: N_3  and  C_4
REMARK    3  A    between atoms: C_12  and  C_13
REMARK                            x       y       z     vdW  Elec       q    Type
REMARK                         _______ _______ _______ _____ _____    ______ ____
ROOT
ATOM      1  C   UNL     1       3.964   6.067  17.440  0.00  0.00    +0.000 A 
ATOM      2  C   UNL     1       3.424   7.331  17.700  0.00  0.00    +0.000 A 
ATOM      3  C   UNL     1       2.475   7.457  18.702  0.00  0.00    +0.000 A 
ATOM      4  N   UNL     1       2.102   6.389  19.441  0.00  0.00    +0.000 NA
ATOM      5  C   UNL     1       2.597   5.171  19.179  0.00  0.00    +0.000 A 
ATOM      6  C   UNL     1       2.174   4.122  19.984  0.00  0.00    +0.000 A 
ATOM      7  C   UNL     1       2.620   2.815  19.787  0.00  0.00    +0.000 A 
ATOM      8  C   UNL     1       3.494   2.547  18.745  0.00  0.00    +0.000 A 
ATOM      9 CL   UNL     1       4.019   0.936  18.464  0.00  0.00    +0.000 Cl
ATOM     10  C   UNL     1       3.950   3.586  17.934  0.00  0.00    +0.000 A 
ATOM     11  C   UNL     1       3.523   4.925  18.151  0.00  0.00    +0.000 A 
ENDROOT
BRANCH   3  12
ATOM     12  C   UNL     1       1.822   8.729  19.060  0.00  0.00    +0.000 A 
ATOM     13  C   UNL     1       1.751   9.833  18.197  0.00  0.00    +0.000 A 
ATOM     14  C   UNL     1       1.100  11.002  18.594  0.00  0.00    +0.000 A 
ATOM     15  C   UNL     1       0.529  11.047  19.853  0.00  0.00    +0.000 A 
ATOM     16  N   UNL     1       0.569  10.021  20.722  0.00  0.00    +0.000 NA
ATOM     17  C   UNL     1       1.204   8.895  20.302  0.00  0.00    +0.000 A 
ENDBRANCH   3  12
BRANCH   1  19
ATOM     18  O   UNL     1       5.921   6.841  16.414  0.00  0.00    +0.000 OA
ATOM     19  C   UNL     1       5.053   5.982  16.428  0.00  0.00    +0.000 C 
ATOM     20  N   UNL     1       4.927   4.906  15.560  0.00  0.00    +0.000 N 
ATOM     21  H   UNL     1       4.094   4.335  15.644  0.00  0.00    +0.000 HD
BRANCH  20  22
ATOM     22  C   UNL     1       5.757   4.612  14.455  0.00  0.00    +0.000 A 
ATOM     23  C   UNL     1       7.031   5.141  14.268  0.00  0.00    +0.000 A 
ATOM     24  C   UNL     1       7.744   4.839  13.107  0.00  0.00    +0.000 A 
ATOM     25  C   UNL     1       7.161   4.003  12.169  0.00  0.00    +0.000 A 
ATOM     26  N   UNL     1       5.946   3.441  12.326  0.00  0.00    +0.000 NA
ATOM     27  C   UNL     1       5.279   3.756  13.461  0.00  0.00    +0.000 A 
ENDBRANCH  20  22
ENDBRANCH   1  19
TORSDOF 3
ENDMDL
MODEL 7
REMARK VINA RESULT:      -8.2      1.405      1.654
REMARK  Name = 
REMARK  3 active torsions:
REMARK  status: ('A' for Active; 'I' for Inactive)
REMARK    1  A    between atoms: C_2  and  C_10
REMARK    2  A    between atoms: N_3  and  C_4
REMARK    3  A    between atoms: C_12  and  C_13
REMARK                            x       y       z     vdW  Elec       q    Type
REMARK                         _______ _______ _______ _____ _____    ______ ____
ROOT
ATOM      1  C   UNL     1       3.886   6.176  18.195  0.00  0.00    +0.000 A 
ATOM      2  C   UNL     1       3.179   7.378  18.301  0.00  0.00    +0.000 A 
ATOM      3  C   UNL     1       2.211   7.498  19.285  0.00  0.00    +0.000 A 
ATOM      4  N   UNL     1       1.975   6.488  20.152  0.00  0.00    +0.000 NA
ATOM      5  C   UNL     1       2.630   5.325  20.038  0.00  0.00    +0.000 A 
ATOM      6  C   UNL     1       2.341   4.335  20.969  0.00  0.00    +0.000 A 
ATOM      7  C   UNL     1       2.960   3.085  20.931  0.00  0.00    +0.000 A 
ATOM      8  C   UNL     1       3.873   2.811  19.925  0.00  0.00    +0.000 A 
ATOM      9 CL   UNL     1       4.611   1.261  19.841  0.00  0.00    +0.000 Cl
ATOM     10  C   UNL     1       4.196   3.794  18.990  0.00  0.00    +0.000 A 
ATOM     11  C   UNL     1       3.593   5.080  19.043  0.00  0.00    +0.000 A 
ENDROOT
BRANCH   3  12
ATOM     12  C   UNL     1       1.391   8.706  19.487  0.00  0.00    +0.000 A 
ATOM     13  C   UNL     1       0.776   9.031  20.705  0.00  0.00    +0.000 A 
ATOM     14  C   UNL     1       0.028  10.202  20.832  0.00  0.00    +0.000 A 
ATOM     15  C   UNL     1      -0.093  11.032  19.733  0.00  0.00    +0.000 A 
ATOM     16  N   UNL     1       0.472  10.770  18.540  0.00  0.00    +0.000 NA
ATOM     17  C   UNL     1       1.199   9.625  18.452  0.00  0.00    +0.000 A 
ENDBRANCH   3  12
BRANCH   1  19
ATOM     18  O   UNL     1       5.915   6.903  17.283  0.00  0.00    +0.000 OA
ATOM     19  C   UNL     1       4.987   6.113  17.195  0.00  0.00    +0.000 C 
ATOM     20  N   UNL     1       4.802   5.143  16.220  0.00  0.00    +0.000 N 
ATOM     21  H   UNL     1       3.929   4.630  16.233  0.00  0.00    +0.000 HD
BRANCH  20  22
ATOM     22  C   UNL     1       5.634   4.902  15.102  0.00  0.00    +0.000 A 
ATOM     23  C   UNL     1       5.299   4.067  14.041  0.00  0.00    +0.000 A 
ATOM     24  C   UNL     1       6.220   3.843  13.017  0.00  0.00    +0.000 A 
ATOM     25  C   UNL     1       7.449   4.477  13.080  0.00  0.00    +0.000 A 
ATOM     26  N   UNL     1       7.801   5.322  14.070  0.00  0.00    +0.000 NA
ATOM     27  C   UNL     1       6.887   5.516  15.050  0.00  0.00    +0.000 A 
ENDBRANCH  20  22
ENDBRANCH   1  19
TORSDOF 3
ENDMDL
MODEL 8
REMARK VINA RESULT:      -8.1      1.788      7.579
REMARK  Name = 
REMARK  3 active torsions:
REMARK  status: ('A' for Active; 'I' for Inactive)
REMARK    1  A    between atoms: C_2  and  C_10
REMARK    2  A    between atoms: N_3  and  C_4
REMARK    3  A    between atoms: C_12  and  C_13
REMARK                            x       y       z     vdW  Elec       q    Type
REMARK                         _______ _______ _______ _____ _____    ______ ____
ROOT
ATOM      1  C   UNL     1       4.195   5.865  17.326  0.00  0.00    +0.000 A 
ATOM      2  C   UNL     1       4.879   5.819  16.107  0.00  0.00    +0.000 A 
ATOM      3  C   UNL     1       5.204   4.584  15.569  0.00  0.00    +0.000 A 
ATOM      4  N   UNL     1       4.836   3.440  16.190  0.00  0.00    +0.000 NA
ATOM      5  C   UNL     1       4.204   3.478  17.371  0.00  0.00    +0.000 A 
ATOM      6  C   UNL     1       3.850   2.264  17.946  0.00  0.00    +0.000 A 
ATOM      7  C   UNL     1       3.200   2.194  19.178  0.00  0.00    +0.000 A 
ATOM      8  C   UNL     1       2.916   3.365  19.862  0.00  0.00    +0.000 A 
ATOM      9 CL   UNL     1       2.153   3.292  21.400  0.00  0.00    +0.000 Cl
ATOM     10  C   UNL     1       3.242   4.598  19.297  0.00  0.00    +0.000 A 
ATOM     11  C   UNL     1       3.876   4.677  18.028  0.00  0.00    +0.000 A 
ENDROOT
BRANCH   3  12
ATOM     12  C   UNL     1       5.935   4.405  14.302  0.00  0.00    +0.000 A 
ATOM     13  C   UNL     1       7.131   5.072  13.997  0.00  0.00    +0.000 A 
ATOM     14  C   UNL     1       7.781   4.841  12.783  0.00  0.00    +0.000 A 
ATOM     15  C   UNL     1       7.221   3.944  11.893  0.00  0.00    +0.000 A 
ATOM     16  N   UNL     1       6.076   3.279  12.131  0.00  0.00    +0.000 NA
ATOM     17  C   UNL     1       5.472   3.521  13.324  0.00  0.00    +0.000 A 
ENDBRANCH   3  12
BRANCH   1  19
ATOM     18  O   UNL     1       4.605   8.092  17.918  0.00  0.00    +0.000 OA
ATOM     19  C   UNL     1       3.773   7.201  17.826  0.00  0.00    +0.000 C 
ATOM     20  N   UNL     1       2.432   7.270  18.176  0.00  0.00    +0.000 N 
ATOM     21  H   UNL     1       1.894   6.412  18.130  0.00  0.00    +0.000 HD
BRANCH  20  22
ATOM     22  C   UNL     1       1.766   8.375  18.752  0.00  0.00    +0.000 A 
ATOM     23  C   UNL     1       1.334   9.489  18.040  0.00  0.00    +0.000 A 
ATOM     24  C   UNL     1       0.745  10.559  18.715  0.00  0.00    +0.000 A 
ATOM     25  C   UNL     1       0.594  10.475  20.088  0.00  0.00    +0.000 A 
ATOM     26  N   UNL     1       0.965   9.401  20.813  0.00  0.00    +0.000 NA
ATOM     27  C   UNL     1       1.536   8.381  20.130  0.00  0.00    +0.000 A 
ENDBRANCH  20  22
ENDBRANCH   1  19
TORSDOF 3
ENDMDL
MODEL 9
REMARK VINA RESULT:      -8.1      1.712      7.561
REMARK  Name = 
REMARK  3 active torsions:
REMARK  status: ('A' for Active; 'I' for Inactive)
REMARK    1  A    between atoms: C_2  and  C_10
REMARK    2  A    between atoms: N_3  and  C_4
REMARK    3  A    between atoms: C_12  and  C_13
REMARK                            x       y       z     vdW  Elec       q    Type
REMARK                         _______ _______ _______ _____ _____    ______ ____
ROOT
ATOM      1  C   UNL     1       3.993   5.765  17.506  0.00  0.00    +0.000 A 
ATOM      2  C   UNL     1       4.724   5.778  16.314  0.00  0.00    +0.000 A 
ATOM      3  C   UNL     1       5.083   4.570  15.738  0.00  0.00    +0.000 A 
ATOM      4  N   UNL     1       4.705   3.397  16.295  0.00  0.00    +0.000 NA
ATOM      5  C   UNL     1       4.027   3.379  17.451  0.00  0.00    +0.000 A 
ATOM      6  C   UNL     1       3.666   2.138  17.960  0.00  0.00    +0.000 A 
ATOM      7  C   UNL     1       2.969   2.009  19.162  0.00  0.00    +0.000 A 
ATOM      8  C   UNL     1       2.645   3.147  19.883  0.00  0.00    +0.000 A 
ATOM      9 CL   UNL     1       1.825   3.002  21.385  0.00  0.00    +0.000 Cl
ATOM     10  C   UNL     1       2.979   4.406  19.384  0.00  0.00    +0.000 A 
ATOM     11  C   UNL     1       3.660   4.545  18.144  0.00  0.00    +0.000 A 
ENDROOT
BRANCH   3  12
ATOM     12  C   UNL     1       5.864   4.453  14.494  0.00  0.00    +0.000 A 
ATOM     13  C   UNL     1       7.072   5.131  14.270  0.00  0.00    +0.000 A 
ATOM     14  C   UNL     1       7.771   4.959  13.074  0.00  0.00    +0.000 A 
ATOM     15  C   UNL     1       7.247   4.108  12.118  0.00  0.00    +0.000 A 
ATOM     16  N   UNL     1       6.093   3.435  12.277  0.00  0.00    +0.000 NA
ATOM     17  C   UNL     1       5.441   3.619  13.455  0.00  0.00    +0.000 A 
ENDBRANCH   3  12
BRANCH   1  19
ATOM     18  O   UNL     1       4.188   8.079  17.799  0.00  0.00    +0.000 OA
ATOM     19  C   UNL     1       3.537   7.075  18.045  0.00  0.00    +0.000 C 
ATOM     20  N   UNL     1       2.393   6.990  18.827  0.00  0.00    +0.000 N 
ATOM     21  H   UNL     1       2.024   6.065  19.015  0.00  0.00    +0.000 HD
BRANCH  20  22
ATOM     22  C   UNL     1       1.774   8.047  19.534  0.00  0.00    +0.000 A 
ATOM     23  C   UNL     1       1.496   8.022  20.896  0.00  0.00    +0.000 A 
ATOM     24  C   UNL     1       0.819   9.091  21.486  0.00  0.00    +0.000 A 
ATOM     25  C   UNL     1       0.452  10.163  20.691  0.00  0.00    +0.000 A 
ATOM     26  N   UNL     1       0.733  10.244  19.374  0.00  0.00    +0.000 NA
ATOM     27  C   UNL     1       1.387   9.190  18.832  0.00  0.00    +0.000 A 
ENDBRANCH  20  22
ENDBRANCH   1  19
TORSDOF 3
ENDMDL
