MODEL 1
REMARK VINA RESULT:      -7.8      0.000      0.000
REMARK  Name = 
REMARK  10 active torsions:
REMARK  status: ('A' for Active; 'I' for Inactive)
REMARK    1  A    between atoms: C_1  and  O_2
REMARK    2  A    between atoms: O_2  and  C_3
REMARK    3  A    between atoms: C_3  and  C_5
REMARK    4  A    between atoms: C_5  and  C_6
REMARK    5  A    between atoms: C_5  and  N_12
REMARK    6  A    between atoms: C_6  and  C_7
REMARK    7  A    between atoms: C_13  and  C_15
REMARK    8  A    between atoms: C_15  and  N_16
REMARK    9  A    between atoms: C_15  and  C_17
REMARK   10  A    between atoms: C_17  and  C_18
REMARK                            x       y       z     vdW  Elec       q    Type
REMARK                         _______ _______ _______ _____ _____    ______ ____
ROOT
ATOM      1  N   UNL     1       5.295   3.665  16.483  0.00  0.00    +0.000 N 
ATOM      2  C   UNL     1       4.863   3.240  17.716  0.00  0.00    +0.000 C 
ATOM      3  O   UNL     1       5.357   3.639  18.765  0.00  0.00    +0.000 OA
ATOM      4  H   UNL     1       4.861   3.307  15.633  0.00  0.00    +0.000 HD
ENDROOT
BRANCH   1   5
ATOM      5  C   UNL     1       6.336   4.692  16.301  0.00  0.00    +0.000 C 
BRANCH   5   6
ATOM      6  C   UNL     1       6.875   4.595  14.864  0.00  0.00    +0.000 C 
ATOM      7  O   UNL     1       7.711   5.363  14.397  0.00  0.00    +0.000 OA
BRANCH   6   9
ATOM      8  C   UNL     1       6.358   3.682  12.758  0.00  0.00    +0.000 C 
ATOM      9  O   UNL     1       6.288   3.572  14.183  0.00  0.00    +0.000 OA
ENDBRANCH   6   9
ENDBRANCH   5   6
BRANCH   5  10
ATOM     10  C   UNL     1       5.839   6.121  16.602  0.00  0.00    +0.000 C 
BRANCH  10  11
ATOM     11  C   UNL     1       6.832   6.922  17.377  0.00  0.00    +0.000 A 
ATOM     12  C   UNL     1       7.688   6.581  18.401  0.00  0.00    +0.000 A 
ATOM     13  N   UNL     1       8.484   7.640  18.744  0.00  0.00    +0.000 NA
ATOM     14  C   UNL     1       8.113   8.624  17.958  0.00  0.00    +0.000 A 
ATOM     15  N   UNL     1       7.087   8.250  17.136  0.00  0.00    +0.000 N 
ATOM     16  H   UNL     1       6.629   8.836  16.455  0.00  0.00    +0.000 HD
ENDBRANCH  10  11
ENDBRANCH   5  10
ENDBRANCH   1   5
BRANCH   2  17
ATOM     17  C   UNL     1       3.734   2.181  17.670  0.00  0.00    +0.000 C 
BRANCH  17  18
ATOM     18  N   UNL     1       3.863   1.326  18.868  0.00  0.00    +0.000 NA
ATOM     19  H   UNL     1       4.615   0.653  18.708  0.00  0.00    +0.000 HD
ATOM     20  H   UNL     1       3.012   0.786  19.001  0.00  0.00    +0.000 HD
ENDBRANCH  17  18
BRANCH  17  21
ATOM     21  C   UNL     1       2.375   2.905  17.588  0.00  0.00    +0.000 C 
BRANCH  21  22
ATOM     22  C   UNL     1       2.021   3.716  18.799  0.00  0.00    +0.000 A 
ATOM     23  C   UNL     1       1.572   3.219  20.008  0.00  0.00    +0.000 A 
ATOM     24  N   UNL     1       1.405   4.265  20.874  0.00  0.00    +0.000 N 
ATOM     25  C   UNL     1       1.724   5.449  20.254  0.00  0.00    +0.000 A 
ATOM     26  C   UNL     1       1.702   6.759  20.748  0.00  0.00    +0.000 A 
ATOM     27  C   UNL     1       2.075   7.787  19.879  0.00  0.00    +0.000 A 
ATOM     28  C   UNL     1       2.457   7.513  18.568  0.00  0.00    +0.000 A 
ATOM     29  C   UNL     1       2.480   6.197  18.093  0.00  0.00    +0.000 A 
ATOM     30  C   UNL     1       2.106   5.139  18.946  0.00  0.00    +0.000 A 
ATOM     31  H   UNL     1       1.096   4.185  21.832  0.00  0.00    +0.000 HD
ENDBRANCH  21  22
ENDBRANCH  17  21
ENDBRANCH   2  17
TORSDOF 9
ENDMDL
MODEL 2
REMARK VINA RESULT:      -7.8      2.518      6.896
REMARK  Name = 
REMARK  10 active torsions:
REMARK  status: ('A' for Active; 'I' for Inactive)
REMARK    1  A    between atoms: C_1  and  O_2
REMARK    2  A    between atoms: O_2  and  C_3
REMARK    3  A    between atoms: C_3  and  C_5
REMARK    4  A    between atoms: C_5  and  C_6
REMARK    5  A    between atoms: C_5  and  N_12
REMARK    6  A    between atoms: C_6  and  C_7
REMARK    7  A    between atoms: C_13  and  C_15
REMARK    8  A    between atoms: C_15  and  N_16
REMARK    9  A    between atoms: C_15  and  C_17
REMARK   10  A    between atoms: C_17  and  C_18
REMARK                            x       y       z     vdW  Elec       q    Type
REMARK                         _______ _______ _______ _____ _____    ______ ____
ROOT
ATOM      1  N   UNL     1       3.398   5.443  18.754  0.00  0.00    +0.000 N 
ATOM      2  C   UNL     1       4.655   4.911  18.917  0.00  0.00    +0.000 C 
ATOM      3  O   UNL     1       5.475   5.376  19.700  0.00  0.00    +0.000 OA
ATOM      4  H   UNL     1       2.746   5.030  18.089  0.00  0.00    +0.000 HD
ENDROOT
BRANCH   1   5
ATOM      5  C   UNL     1       2.888   6.572  19.554  0.00  0.00    +0.000 C 
BRANCH   5   6
ATOM      6  C   UNL     1       2.507   7.716  18.600  0.00  0.00    +0.000 C 
ATOM      7  O   UNL     1       3.067   7.924  17.528  0.00  0.00    +0.000 OA
BRANCH   6   9
ATOM      8  C   UNL     1       1.448   9.817  18.631  0.00  0.00    +0.000 C 
ATOM      9  O   UNL     1       1.494   8.470  19.112  0.00  0.00    +0.000 OA
ENDBRANCH   6   9
ENDBRANCH   5   6
BRANCH   5  10
ATOM     10  C   UNL     1       1.693   6.189  20.451  0.00  0.00    +0.000 C 
BRANCH  10  11
ATOM     11  C   UNL     1       1.599   4.716  20.681  0.00  0.00    +0.000 A 
ATOM     12  C   UNL     1       0.848   3.738  20.068  0.00  0.00    +0.000 A 
ATOM     13  N   UNL     1       1.161   2.501  20.563  0.00  0.00    +0.000 NA
ATOM     14  C   UNL     1       2.076   2.714  21.480  0.00  0.00    +0.000 A 
ATOM     15  N   UNL     1       2.348   4.047  21.617  0.00  0.00    +0.000 N 
ATOM     16  H   UNL     1       3.006   4.454  22.263  0.00  0.00    +0.000 HD
ENDBRANCH  10  11
ENDBRANCH   5  10
ENDBRANCH   1   5
BRANCH   2  17
ATOM     17  C   UNL     1       4.964   3.706  17.995  0.00  0.00    +0.000 C 
BRANCH  17  18
ATOM     18  N   UNL     1       4.219   2.538  18.508  0.00  0.00    +0.000 NA
ATOM     19  H   UNL     1       4.859   1.745  18.569  0.00  0.00    +0.000 HD
ATOM     20  H   UNL     1       3.491   2.275  17.847  0.00  0.00    +0.000 HD
ENDBRANCH  17  18
BRANCH  17  21
ATOM     21  C   UNL     1       4.587   4.076  16.547  0.00  0.00    +0.000 C 
BRANCH  21  22
ATOM     22  C   UNL     1       5.726   4.584  15.712  0.00  0.00    +0.000 A 
ATOM     23  C   UNL     1       6.738   5.423  16.140  0.00  0.00    +0.000 A 
ATOM     24  N   UNL     1       7.609   5.618  15.104  0.00  0.00    +0.000 N 
ATOM     25  C   UNL     1       7.183   4.933  13.991  0.00  0.00    +0.000 A 
ATOM     26  C   UNL     1       7.753   4.845  12.715  0.00  0.00    +0.000 A 
ATOM     27  C   UNL     1       7.089   4.072  11.760  0.00  0.00    +0.000 A 
ATOM     28  C   UNL     1       5.903   3.412  12.072  0.00  0.00    +0.000 A 
ATOM     29  C   UNL     1       5.351   3.506  13.354  0.00  0.00    +0.000 A 
ATOM     30  C   UNL     1       5.997   4.282  14.338  0.00  0.00    +0.000 A 
ATOM     31  H   UNL     1       8.447   6.180  15.144  0.00  0.00    +0.000 HD
ENDBRANCH  21  22
ENDBRANCH  17  21
ENDBRANCH   2  17
TORSDOF 9
ENDMDL
MODEL 3
REMARK VINA RESULT:      -7.1      3.481      5.736
REMARK  Name = 
REMARK  10 active torsions:
REMARK  status: ('A' for Active; 'I' for Inactive)
REMARK    1  A    between atoms: C_1  and  O_2
REMARK    2  A    between atoms: O_2  and  C_3
REMARK    3  A    between atoms: C_3  and  C_5
REMARK    4  A    between atoms: C_5  and  C_6
REMARK    5  A    between atoms: C_5  and  N_12
REMARK    6  A    between atoms: C_6  and  C_7
REMARK    7  A    between atoms: C_13  and  C_15
REMARK    8  A    between atoms: C_15  and  N_16
REMARK    9  A    between atoms: C_15  and  C_17
REMARK   10  A    between atoms: C_17  and  C_18
REMARK                            x       y       z     vdW  Elec       q    Type
REMARK                         _______ _______ _______ _____ _____    ______ ____
ROOT
ATOM      1  N   UNL     1       2.875   6.176  17.994  0.00  0.00    +0.000 N 
ATOM      2  C   UNL     1       2.489   7.129  18.905  0.00  0.00    +0.000 C 
ATOM      3  O   UNL     1       2.209   6.859  20.068  0.00  0.00    +0.000 OA
ATOM      4  H   UNL     1       3.096   6.440  17.034  0.00  0.00    +0.000 HD
ENDROOT
BRANCH   1   5
ATOM      5  C   UNL     1       3.063   4.756  18.339  0.00  0.00    +0.000 C 
BRANCH   5   6
ATOM      6  C   UNL     1       1.729   4.020  18.133  0.00  0.00    +0.000 C 
ATOM      7  O   UNL     1       0.934   4.289  17.236  0.00  0.00    +0.000 OA
BRANCH   6   9
ATOM      8  C   UNL     1       0.903   3.513  20.277  0.00  0.00    +0.000 C 
ATOM      9  O   UNL     1       1.541   3.059  19.080  0.00  0.00    +0.000 OA
ENDBRANCH   6   9
ENDBRANCH   5   6
BRANCH   5  10
ATOM     10  C   UNL     1       4.190   4.079  17.532  0.00  0.00    +0.000 C 
BRANCH  10  11
ATOM     11  C   UNL     1       5.550   4.501  17.982  0.00  0.00    +0.000 A 
ATOM     12  C   UNL     1       5.980   5.149  19.119  0.00  0.00    +0.000 A 
ATOM     13  N   UNL     1       7.345   5.249  19.136  0.00  0.00    +0.000 NA
ATOM     14  C   UNL     1       7.749   4.688  18.019  0.00  0.00    +0.000 A 
ATOM     15  N   UNL     1       6.695   4.253  17.266  0.00  0.00    +0.000 N 
ATOM     16  H   UNL     1       6.755   3.802  16.366  0.00  0.00    +0.000 HD
ENDBRANCH  10  11
ENDBRANCH   5  10
ENDBRANCH   1   5
BRANCH   2  17
ATOM     17  C   UNL     1       2.391   8.563  18.330  0.00  0.00    +0.000 C 
BRANCH  17  18
ATOM     18  N   UNL     1       3.055   8.571  17.011  0.00  0.00    +0.000 NA
ATOM     19  H   UNL     1       4.045   8.356  17.144  0.00  0.00    +0.000 HD
ATOM     20  H   UNL     1       3.012   9.504  16.607  0.00  0.00    +0.000 HD
ENDBRANCH  17  18
BRANCH  17  21
ATOM     21  C   UNL     1       0.905   8.972  18.262  0.00  0.00    +0.000 C 
BRANCH  21  22
ATOM     22  C   UNL     1       0.520  10.091  19.184  0.00  0.00    +0.000 A 
ATOM     23  C   UNL     1       0.490  11.435  18.864  0.00  0.00    +0.000 A 
ATOM     24  N   UNL     1       0.043  12.132  19.954  0.00  0.00    +0.000 N 
ATOM     25  C   UNL     1      -0.212  11.271  20.995  0.00  0.00    +0.000 A 
ATOM     26  C   UNL     1      -0.678  11.536  22.288  0.00  0.00    +0.000 A 
ATOM     27  C   UNL     1      -0.838  10.452  23.154  0.00  0.00    +0.000 A 
ATOM     28  C   UNL     1      -0.545   9.155  22.740  0.00  0.00    +0.000 A 
ATOM     29  C   UNL     1      -0.086   8.908  21.441  0.00  0.00    +0.000 A 
ATOM     30  C   UNL     1       0.088   9.983  20.546  0.00  0.00    +0.000 A 
ATOM     31  H   UNL     1      -0.088  13.132  19.993  0.00  0.00    +0.000 HD
ENDBRANCH  21  22
ENDBRANCH  17  21
ENDBRANCH   2  17
TORSDOF 9
ENDMDL
MODEL 4
REMARK VINA RESULT:      -7.1      2.178      3.331
REMARK  Name = 
REMARK  10 active torsions:
REMARK  status: ('A' for Active; 'I' for Inactive)
REMARK    1  A    between atoms: C_1  and  O_2
REMARK    2  A    between atoms: O_2  and  C_3
REMARK    3  A    between atoms: C_3  and  C_5
REMARK    4  A    between atoms: C_5  and  C_6
REMARK    5  A    between atoms: C_5  and  N_12
REMARK    6  A    between atoms: C_6  and  C_7
REMARK    7  A    between atoms: C_13  and  C_15
REMARK    8  A    between atoms: C_15  and  N_16
REMARK    9  A    between atoms: C_15  and  C_17
REMARK   10  A    between atoms: C_17  and  C_18
REMARK                            x       y       z     vdW  Elec       q    Type
REMARK                         _______ _______ _______ _____ _____    ______ ____
ROOT
ATOM      1  N   UNL     1       4.484   5.326  17.378  0.00  0.00    +0.000 N 
ATOM      2  C   UNL     1       3.487   4.750  18.128  0.00  0.00    +0.000 C 
ATOM      3  O   UNL     1       3.233   3.551  18.082  0.00  0.00    +0.000 OA
ATOM      4  H   UNL     1       4.662   6.328  17.441  0.00  0.00    +0.000 HD
ENDROOT
BRANCH   1   5
ATOM      5  C   UNL     1       5.390   4.555  16.508  0.00  0.00    +0.000 C 
BRANCH   5   6
ATOM      6  C   UNL     1       5.341   5.157  15.094  0.00  0.00    +0.000 C 
ATOM      7  O   UNL     1       5.324   6.363  14.867  0.00  0.00    +0.000 OA
BRANCH   6   9
ATOM      8  C   UNL     1       6.514   3.994  13.418  0.00  0.00    +0.000 C 
ATOM      9  O   UNL     1       5.295   4.183  14.142  0.00  0.00    +0.000 OA
ENDBRANCH   6   9
ENDBRANCH   5   6
BRANCH   5  10
ATOM     10  C   UNL     1       6.840   4.509  17.031  0.00  0.00    +0.000 C 
BRANCH  10  11
ATOM     11  C   UNL     1       7.305   5.830  17.549  0.00  0.00    +0.000 A 
ATOM     12  C   UNL     1       7.832   6.205  18.765  0.00  0.00    +0.000 A 
ATOM     13  N   UNL     1       8.196   7.524  18.752  0.00  0.00    +0.000 NA
ATOM     14  C   UNL     1       7.880   7.962  17.555  0.00  0.00    +0.000 A 
ATOM     15  N   UNL     1       7.301   6.981  16.799  0.00  0.00    +0.000 N 
ATOM     16  H   UNL     1       6.966   7.081  15.854  0.00  0.00    +0.000 HD
ENDBRANCH  10  11
ENDBRANCH   5  10
ENDBRANCH   1   5
BRANCH   2  17
ATOM     17  C   UNL     1       2.682   5.745  18.998  0.00  0.00    +0.000 C 
BRANCH  17  18
ATOM     18  N   UNL     1       2.791   5.311  20.406  0.00  0.00    +0.000 NA
ATOM     19  H   UNL     1       2.358   6.020  20.999  0.00  0.00    +0.000 HD
ATOM     20  H   UNL     1       3.770   5.262  20.678  0.00  0.00    +0.000 HD
ENDBRANCH  17  18
BRANCH  17  21
ATOM     21  C   UNL     1       3.226   7.169  18.760  0.00  0.00    +0.000 C 
BRANCH  21  22
ATOM     22  C   UNL     1       2.182   8.245  18.744  0.00  0.00    +0.000 A 
ATOM     23  C   UNL     1       1.757   8.951  17.634  0.00  0.00    +0.000 A 
ATOM     24  N   UNL     1       0.763   9.808  18.018  0.00  0.00    +0.000 N 
ATOM     25  C   UNL     1       0.530   9.692  19.368  0.00  0.00    +0.000 A 
ATOM     26  C   UNL     1      -0.385  10.365  20.186  0.00  0.00    +0.000 A 
ATOM     27  C   UNL     1      -0.397  10.047  21.545  0.00  0.00    +0.000 A 
ATOM     28  C   UNL     1       0.473   9.091  22.064  0.00  0.00    +0.000 A 
ATOM     29  C   UNL     1       1.377   8.422  21.231  0.00  0.00    +0.000 A 
ATOM     30  C   UNL     1       1.413   8.725  19.855  0.00  0.00    +0.000 A 
ATOM     31  H   UNL     1       0.265  10.436  17.404  0.00  0.00    +0.000 HD
ENDBRANCH  21  22
ENDBRANCH  17  21
ENDBRANCH   2  17
TORSDOF 9
ENDMDL
MODEL 5
REMARK VINA RESULT:      -7.0      2.688      7.024
REMARK  Name = 
REMARK  10 active torsions:
REMARK  status: ('A' for Active; 'I' for Inactive)
REMARK    1  A    between atoms: C_1  and  O_2
REMARK    2  A    between atoms: O_2  and  C_3
REMARK    3  A    between atoms: C_3  and  C_5
REMARK    4  A    between atoms: C_5  and  C_6
REMARK    5  A    between atoms: C_5  and  N_12
REMARK    6  A    between atoms: C_6  and  C_7
REMARK    7  A    between atoms: C_13  and  C_15
REMARK    8  A    between atoms: C_15  and  N_16
REMARK    9  A    between atoms: C_15  and  C_17
REMARK   10  A    between atoms: C_17  and  C_18
REMARK                            x       y       z     vdW  Elec       q    Type
REMARK                         _______ _______ _______ _____ _____    ______ ____
ROOT
ATOM      1  N   UNL     1       3.251   5.342  19.308  0.00  0.00    +0.000 N 
ATOM      2  C   UNL     1       3.484   4.471  18.272  0.00  0.00    +0.000 C 
ATOM      3  O   UNL     1       2.587   3.841  17.722  0.00  0.00    +0.000 OA
ATOM      4  H   UNL     1       4.024   5.845  19.743  0.00  0.00    +0.000 HD
ENDROOT
BRANCH   1   5
ATOM      5  C   UNL     1       1.901   5.662  19.808  0.00  0.00    +0.000 C 
BRANCH   5   6
ATOM      6  C   UNL     1       1.348   4.434  20.549  0.00  0.00    +0.000 C 
ATOM      7  O   UNL     1       0.335   3.831  20.207  0.00  0.00    +0.000 OA
BRANCH   6   9
ATOM      8  C   UNL     1       2.420   2.736  21.776  0.00  0.00    +0.000 C 
ATOM      9  O   UNL     1       2.111   4.126  21.635  0.00  0.00    +0.000 OA
ENDBRANCH   6   9
ENDBRANCH   5   6
BRANCH   5  10
ATOM     10  C   UNL     1       1.871   6.908  20.718  0.00  0.00    +0.000 C 
BRANCH  10  11
ATOM     11  C   UNL     1       1.604   8.165  19.958  0.00  0.00    +0.000 A 
ATOM     12  C   UNL     1       1.917   8.544  18.671  0.00  0.00    +0.000 A 
ATOM     13  N   UNL     1       1.387   9.772  18.382  0.00  0.00    +0.000 NA
ATOM     14  C   UNL     1       0.773  10.154  19.478  0.00  0.00    +0.000 A 
ATOM     15  N   UNL     1       0.909   9.230  20.476  0.00  0.00    +0.000 N 
ATOM     16  H   UNL     1       0.534   9.306  21.409  0.00  0.00    +0.000 HD
ENDBRANCH  10  11
ENDBRANCH   5  10
ENDBRANCH   1   5
BRANCH   2  17
ATOM     17  C   UNL     1       4.976   4.314  17.889  0.00  0.00    +0.000 C 
BRANCH  17  18
ATOM     18  N   UNL     1       5.635   3.517  18.944  0.00  0.00    +0.000 NA
ATOM     19  H   UNL     1       6.603   3.831  19.032  0.00  0.00    +0.000 HD
ATOM     20  H   UNL     1       5.670   2.538  18.668  0.00  0.00    +0.000 HD
ENDBRANCH  17  18
BRANCH  17  21
ATOM     21  C   UNL     1       5.066   3.663  16.494  0.00  0.00    +0.000 C 
BRANCH  21  22
ATOM     22  C   UNL     1       6.047   4.312  15.562  0.00  0.00    +0.000 A 
ATOM     23  C   UNL     1       7.015   5.235  15.913  0.00  0.00    +0.000 A 
ATOM     24  N   UNL     1       7.738   5.552  14.796  0.00  0.00    +0.000 N 
ATOM     25  C   UNL     1       7.257   4.864  13.707  0.00  0.00    +0.000 A 
ATOM     26  C   UNL     1       7.683   4.876  12.374  0.00  0.00    +0.000 A 
ATOM     27  C   UNL     1       6.993   4.072  11.465  0.00  0.00    +0.000 A 
ATOM     28  C   UNL     1       5.920   3.285  11.876  0.00  0.00    +0.000 A 
ATOM     29  C   UNL     1       5.512   3.280  13.215  0.00  0.00    +0.000 A 
ATOM     30  C   UNL     1       6.187   4.084  14.154  0.00  0.00    +0.000 A 
ATOM     31  H   UNL     1       8.516   6.195  14.768  0.00  0.00    +0.000 HD
ENDBRANCH  21  22
ENDBRANCH  17  21
ENDBRANCH   2  17
TORSDOF 9
ENDMDL
MODEL 6
REMARK VINA RESULT:      -7.0      2.232      3.339
REMARK  Name = 
REMARK  10 active torsions:
REMARK  status: ('A' for Active; 'I' for Inactive)
REMARK    1  A    between atoms: C_1  and  O_2
REMARK    2  A    between atoms: O_2  and  C_3
REMARK    3  A    between atoms: C_3  and  C_5
REMARK    4  A    between atoms: C_5  and  C_6
REMARK    5  A    between atoms: C_5  and  N_12
REMARK    6  A    between atoms: C_6  and  C_7
REMARK    7  A    between atoms: C_13  and  C_15
REMARK    8  A    between atoms: C_15  and  N_16
REMARK    9  A    between atoms: C_15  and  C_17
REMARK   10  A    between atoms: C_17  and  C_18
REMARK                            x       y       z     vdW  Elec       q    Type
REMARK                         _______ _______ _______ _____ _____    ______ ____
ROOT
ATOM      1  N   UNL     1       4.038   5.096  16.936  0.00  0.00    +0.000 N 
ATOM      2  C   UNL     1       3.045   4.339  17.509  0.00  0.00    +0.000 C 
ATOM      3  O   UNL     1       2.900   3.145  17.269  0.00  0.00    +0.000 OA
ATOM      4  H   UNL     1       4.124   6.087  17.159  0.00  0.00    +0.000 HD
ENDROOT
BRANCH   1   5
ATOM      5  C   UNL     1       5.066   4.536  16.040  0.00  0.00    +0.000 C 
BRANCH   5   6
ATOM      6  C   UNL     1       5.594   5.663  15.136  0.00  0.00    +0.000 C 
ATOM      7  O   UNL     1       5.149   6.807  15.144  0.00  0.00    +0.000 OA
BRANCH   6   9
ATOM      8  C   UNL     1       6.235   4.112  13.486  0.00  0.00    +0.000 C 
ATOM      9  O   UNL     1       6.591   5.218  14.322  0.00  0.00    +0.000 OA
ENDBRANCH   6   9
ENDBRANCH   5   6
BRANCH   5  10
ATOM     10  C   UNL     1       6.225   3.855  16.796  0.00  0.00    +0.000 C 
BRANCH  10  11
ATOM     11  C   UNL     1       6.742   4.688  17.923  0.00  0.00    +0.000 A 
ATOM     12  C   UNL     1       6.433   4.709  19.265  0.00  0.00    +0.000 A 
ATOM     13  N   UNL     1       7.234   5.594  19.936  0.00  0.00    +0.000 NA
ATOM     14  C   UNL     1       8.011   6.124  19.020  0.00  0.00    +0.000 A 
ATOM     15  N   UNL     1       7.725   5.636  17.775  0.00  0.00    +0.000 N 
ATOM     16  H   UNL     1       8.180   5.900  16.915  0.00  0.00    +0.000 HD
ENDBRANCH  10  11
ENDBRANCH   5  10
ENDBRANCH   1   5
BRANCH   2  17
ATOM     17  C   UNL     1       2.098   5.127  18.446  0.00  0.00    +0.000 C 
BRANCH  17  18
ATOM     18  N   UNL     1       1.527   4.176  19.421  0.00  0.00    +0.000 NA
ATOM     19  H   UNL     1       2.261   3.899  20.075  0.00  0.00    +0.000 HD
ATOM     20  H   UNL     1       1.228   3.328  18.944  0.00  0.00    +0.000 HD
ENDBRANCH  17  18
BRANCH  17  21
ATOM     21  C   UNL     1       2.891   6.270  19.110  0.00  0.00    +0.000 C 
BRANCH  21  22
ATOM     22  C   UNL     1       2.299   7.636  18.924  0.00  0.00    +0.000 A 
ATOM     23  C   UNL     1       2.374   8.406  17.779  0.00  0.00    +0.000 A 
ATOM     24  N   UNL     1       1.672   9.562  17.985  0.00  0.00    +0.000 N 
ATOM     25  C   UNL     1       1.144   9.576  19.254  0.00  0.00    +0.000 A 
ATOM     26  C   UNL     1       0.363  10.547  19.894  0.00  0.00    +0.000 A 
ATOM     27  C   UNL     1      -0.032  10.297  21.209  0.00  0.00    +0.000 A 
ATOM     28  C   UNL     1       0.337   9.121  21.857  0.00  0.00    +0.000 A 
ATOM     29  C   UNL     1       1.111   8.158  21.200  0.00  0.00    +0.000 A 
ATOM     30  C   UNL     1       1.528   8.384  19.873  0.00  0.00    +0.000 A 
ATOM     31  H   UNL     1       1.552  10.301  17.307  0.00  0.00    +0.000 HD
ENDBRANCH  21  22
ENDBRANCH  17  21
ENDBRANCH   2  17
TORSDOF 9
ENDMDL
MODEL 7
REMARK VINA RESULT:      -6.9      0.805      1.183
REMARK  Name = 
REMARK  10 active torsions:
REMARK  status: ('A' for Active; 'I' for Inactive)
REMARK    1  A    between atoms: C_1  and  O_2
REMARK    2  A    between atoms: O_2  and  C_3
REMARK    3  A    between atoms: C_3  and  C_5
REMARK    4  A    between atoms: C_5  and  C_6
REMARK    5  A    between atoms: C_5  and  N_12
REMARK    6  A    between atoms: C_6  and  C_7
REMARK    7  A    between atoms: C_13  and  C_15
REMARK    8  A    between atoms: C_15  and  N_16
REMARK    9  A    between atoms: C_15  and  C_17
REMARK   10  A    between atoms: C_17  and  C_18
REMARK                            x       y       z     vdW  Elec       q    Type
REMARK                         _______ _______ _______ _____ _____    ______ ____
ROOT
ATOM      1  N   UNL     1       4.845   3.673  16.157  0.00  0.00    +0.000 N 
ATOM      2  C   UNL     1       4.480   3.249  17.412  0.00  0.00    +0.000 C 
ATOM      3  O   UNL     1       5.107   3.552  18.422  0.00  0.00    +0.000 OA
ATOM      4  H   UNL     1       4.300   3.396  15.341  0.00  0.00    +0.000 HD
ENDROOT
BRANCH   1   5
ATOM      5  C   UNL     1       5.973   4.588  15.909  0.00  0.00    +0.000 C 
BRANCH   5   6
ATOM      6  C   UNL     1       6.268   4.606  14.400  0.00  0.00    +0.000 C 
ATOM      7  O   UNL     1       5.723   3.860  13.591  0.00  0.00    +0.000 OA
BRANCH   6   9
ATOM      8  C   UNL     1       7.945   5.266  12.888  0.00  0.00    +0.000 C 
ATOM      9  O   UNL     1       7.218   5.531  14.091  0.00  0.00    +0.000 OA
ENDBRANCH   6   9
ENDBRANCH   5   6
BRANCH   5  10
ATOM     10  C   UNL     1       5.722   6.017  16.432  0.00  0.00    +0.000 C 
BRANCH  10  11
ATOM     11  C   UNL     1       6.790   6.481  17.367  0.00  0.00    +0.000 A 
ATOM     12  C   UNL     1       7.480   7.670  17.454  0.00  0.00    +0.000 A 
ATOM     13  N   UNL     1       8.315   7.670  18.539  0.00  0.00    +0.000 NA
ATOM     14  C   UNL     1       8.158   6.493  19.100  0.00  0.00    +0.000 A 
ATOM     15  N   UNL     1       7.271   5.720  18.404  0.00  0.00    +0.000 N 
ATOM     16  H   UNL     1       6.997   4.778  18.635  0.00  0.00    +0.000 HD
ENDBRANCH  10  11
ENDBRANCH   5  10
ENDBRANCH   1   5
BRANCH   2  17
ATOM     17  C   UNL     1       3.242   2.321  17.441  0.00  0.00    +0.000 C 
BRANCH  17  18
ATOM     18  N   UNL     1       3.331   1.479  18.652  0.00  0.00    +0.000 NA
ATOM     19  H   UNL     1       4.282   1.540  19.020  0.00  0.00    +0.000 HD
ATOM     20  H   UNL     1       3.176   0.504  18.408  0.00  0.00    +0.000 HD
ENDBRANCH  17  18
BRANCH  17  21
ATOM     21  C   UNL     1       1.967   3.188  17.400  0.00  0.00    +0.000 C 
BRANCH  21  22
ATOM     22  C   UNL     1       1.686   3.949  18.663  0.00  0.00    +0.000 A 
ATOM     23  C   UNL     1       1.204   3.416  19.843  0.00  0.00    +0.000 A 
ATOM     24  N   UNL     1       1.126   4.417  20.772  0.00  0.00    +0.000 N 
ATOM     25  C   UNL     1       1.536   5.608  20.222  0.00  0.00    +0.000 A 
ATOM     26  C   UNL     1       1.621   6.883  20.795  0.00  0.00    +0.000 A 
ATOM     27  C   UNL     1       2.070   7.928  19.986  0.00  0.00    +0.000 A 
ATOM     28  C   UNL     1       2.422   7.706  18.657  0.00  0.00    +0.000 A 
ATOM     29  C   UNL     1       2.337   6.424  18.103  0.00  0.00    +0.000 A 
ATOM     30  C   UNL     1       1.884   5.349  18.894  0.00  0.00    +0.000 A 
ATOM     31  H   UNL     1       0.817   4.304  21.727  0.00  0.00    +0.000 HD
ENDBRANCH  21  22
ENDBRANCH  17  21
ENDBRANCH   2  17
TORSDOF 9
ENDMDL
MODEL 8
REMARK VINA RESULT:      -6.9      2.606      7.010
REMARK  Name = 
REMARK  10 active torsions:
REMARK  status: ('A' for Active; 'I' for Inactive)
REMARK    1  A    between atoms: C_1  and  O_2
REMARK    2  A    between atoms: O_2  and  C_3
REMARK    3  A    between atoms: C_3  and  C_5
REMARK    4  A    between atoms: C_5  and  C_6
REMARK    5  A    between atoms: C_5  and  N_12
REMARK    6  A    between atoms: C_6  and  C_7
REMARK    7  A    between atoms: C_13  and  C_15
REMARK    8  A    between atoms: C_15  and  N_16
REMARK    9  A    between atoms: C_15  and  C_17
REMARK   10  A    between atoms: C_17  and  C_18
REMARK                            x       y       z     vdW  Elec       q    Type
REMARK                         _______ _______ _______ _____ _____    ______ ____
ROOT
ATOM      1  N   UNL     1       3.490   5.201  18.937  0.00  0.00    +0.000 N 
ATOM      2  C   UNL     1       4.681   4.520  19.004  0.00  0.00    +0.000 C 
ATOM      3  O   UNL     1       5.399   4.537  19.998  0.00  0.00    +0.000 OA
ATOM      4  H   UNL     1       2.923   5.165  18.090  0.00  0.00    +0.000 HD
ENDROOT
BRANCH   1   5
ATOM      5  C   UNL     1       2.924   5.954  20.070  0.00  0.00    +0.000 C 
BRANCH   5   6
ATOM      6  C   UNL     1       2.360   7.284  19.544  0.00  0.00    +0.000 C 
ATOM      7  O   UNL     1       1.667   8.043  20.215  0.00  0.00    +0.000 OA
BRANCH   6   9
ATOM      8  C   UNL     1       2.247   8.723  17.686  0.00  0.00    +0.000 C 
ATOM      9  O   UNL     1       2.710   7.490  18.243  0.00  0.00    +0.000 OA
ENDBRANCH   6   9
ENDBRANCH   5   6
BRANCH   5  10
ATOM     10  C   UNL     1       1.840   5.170  20.839  0.00  0.00    +0.000 C 
BRANCH  10  11
ATOM     11  C   UNL     1       1.537   3.848  20.213  0.00  0.00    +0.000 A 
ATOM     12  C   UNL     1       1.744   2.558  20.648  0.00  0.00    +0.000 A 
ATOM     13  N   UNL     1       1.219   1.655  19.763  0.00  0.00    +0.000 NA
ATOM     14  C   UNL     1       0.714   2.376  18.789  0.00  0.00    +0.000 A 
ATOM     15  N   UNL     1       0.915   3.712  18.996  0.00  0.00    +0.000 N 
ATOM     16  H   UNL     1       0.627   4.458  18.382  0.00  0.00    +0.000 HD
ENDBRANCH  10  11
ENDBRANCH   5  10
ENDBRANCH   1   5
BRANCH   2  17
ATOM     17  C   UNL     1       5.064   3.768  17.706  0.00  0.00    +0.000 C 
BRANCH  17  18
ATOM     18  N   UNL     1       4.360   2.470  17.707  0.00  0.00    +0.000 NA
ATOM     19  H   UNL     1       4.733   1.898  18.467  0.00  0.00    +0.000 HD
ATOM     20  H   UNL     1       4.554   1.969  16.844  0.00  0.00    +0.000 HD
ENDBRANCH  17  18
BRANCH  17  21
ATOM     21  C   UNL     1       4.703   4.651  16.493  0.00  0.00    +0.000 C 
BRANCH  21  22
ATOM     22  C   UNL     1       5.828   4.882  15.529  0.00  0.00    +0.000 A 
ATOM     23  C   UNL     1       6.974   5.614  15.776  0.00  0.00    +0.000 A 
ATOM     24  N   UNL     1       7.777   5.552  14.670  0.00  0.00    +0.000 N 
ATOM     25  C   UNL     1       7.174   4.802  13.688  0.00  0.00    +0.000 A 
ATOM     26  C   UNL     1       7.623   4.475  12.403  0.00  0.00    +0.000 A 
ATOM     27  C   UNL     1       6.786   3.693  11.604  0.00  0.00    +0.000 A 
ATOM     28  C   UNL     1       5.551   3.254  12.075  0.00  0.00    +0.000 A 
ATOM     29  C   UNL     1       5.122   3.584  13.365  0.00  0.00    +0.000 A 
ATOM     30  C   UNL     1       5.944   4.375  14.193  0.00  0.00    +0.000 A 
ATOM     31  H   UNL     1       8.683   5.989  14.582  0.00  0.00    +0.000 HD
ENDBRANCH  21  22
ENDBRANCH  17  21
ENDBRANCH   2  17
TORSDOF 9
ENDMDL
MODEL 9
REMARK VINA RESULT:      -6.9      2.671      5.265
REMARK  Name = 
REMARK  10 active torsions:
REMARK  status: ('A' for Active; 'I' for Inactive)
REMARK    1  A    between atoms: C_1  and  O_2
REMARK    2  A    between atoms: O_2  and  C_3
REMARK    3  A    between atoms: C_3  and  C_5
REMARK    4  A    between atoms: C_5  and  C_6
REMARK    5  A    between atoms: C_5  and  N_12
REMARK    6  A    between atoms: C_6  and  C_7
REMARK    7  A    between atoms: C_13  and  C_15
REMARK    8  A    between atoms: C_15  and  N_16
REMARK    9  A    between atoms: C_15  and  C_17
REMARK   10  A    between atoms: C_17  and  C_18
REMARK                            x       y       z     vdW  Elec       q    Type
REMARK                         _______ _______ _______ _____ _____    ______ ____
ROOT
ATOM      1  N   UNL     1       3.600   4.811  18.008  0.00  0.00    +0.000 N 
ATOM      2  C   UNL     1       2.300   5.214  18.193  0.00  0.00    +0.000 C 
ATOM      3  O   UNL     1       1.367   4.761  17.540  0.00  0.00    +0.000 OA
ATOM      4  H   UNL     1       4.350   5.215  18.568  0.00  0.00    +0.000 HD
ENDROOT
BRANCH   1   5
ATOM      5  C   UNL     1       3.990   3.746  17.066  0.00  0.00    +0.000 C 
BRANCH   5   6
ATOM      6  C   UNL     1       5.415   4.033  16.563  0.00  0.00    +0.000 C 
ATOM      7  O   UNL     1       5.907   3.502  15.572  0.00  0.00    +0.000 OA
BRANCH   6   9
ATOM      8  C   UNL     1       7.434   4.634  17.612  0.00  0.00    +0.000 C 
ATOM      9  O   UNL     1       6.054   4.926  17.370  0.00  0.00    +0.000 OA
ENDBRANCH   6   9
ENDBRANCH   5   6
BRANCH   5  10
ATOM     10  C   UNL     1       3.903   2.333  17.677  0.00  0.00    +0.000 C 
BRANCH  10  11
ATOM     11  C   UNL     1       3.322   2.339  19.052  0.00  0.00    +0.000 A 
ATOM     12  C   UNL     1       3.897   2.521  20.291  0.00  0.00    +0.000 A 
ATOM     13  N   UNL     1       2.945   2.529  21.274  0.00  0.00    +0.000 NA
ATOM     14  C   UNL     1       1.803   2.336  20.655  0.00  0.00    +0.000 A 
ATOM     15  N   UNL     1       1.983   2.176  19.309  0.00  0.00    +0.000 N 
ATOM     16  H   UNL     1       1.257   2.005  18.631  0.00  0.00    +0.000 HD
ENDBRANCH  10  11
ENDBRANCH   5  10
ENDBRANCH   1   5
BRANCH   2  17
ATOM     17  C   UNL     1       2.118   6.321  19.259  0.00  0.00    +0.000 C 
BRANCH  17  18
ATOM     18  N   UNL     1       2.862   5.914  20.469  0.00  0.00    +0.000 NA
ATOM     19  H   UNL     1       3.388   6.719  20.814  0.00  0.00    +0.000 HD
ATOM     20  H   UNL     1       3.545   5.199  20.232  0.00  0.00    +0.000 HD
ENDBRANCH  17  18
BRANCH  17  21
ATOM     21  C   UNL     1       2.604   7.663  18.674  0.00  0.00    +0.000 C 
BRANCH  21  22
ATOM     22  C   UNL     1       1.647   8.805  18.845  0.00  0.00    +0.000 A 
ATOM     23  C   UNL     1       1.170   9.626  17.841  0.00  0.00    +0.000 A 
ATOM     24  N   UNL     1       0.286  10.515  18.388  0.00  0.00    +0.000 N 
ATOM     25  C   UNL     1       0.179  10.305  19.742  0.00  0.00    +0.000 A 
ATOM     26  C   UNL     1      -0.599  10.971  20.697  0.00  0.00    +0.000 A 
ATOM     27  C   UNL     1      -0.501  10.545  22.023  0.00  0.00    +0.000 A 
ATOM     28  C   UNL     1       0.340   9.493  22.378  0.00  0.00    +0.000 A 
ATOM     29  C   UNL     1       1.105   8.834  21.408  0.00  0.00    +0.000 A 
ATOM     30  C   UNL     1       1.029   9.244  20.062  0.00  0.00    +0.000 A 
ATOM     31  H   UNL     1      -0.221  11.223  17.876  0.00  0.00    +0.000 HD
ENDBRANCH  21  22
ENDBRANCH  17  21
ENDBRANCH   2  17
TORSDOF 9
ENDMDL
