MODEL 1
REMARK VINA RESULT:      -8.3      0.000      0.000
REMARK  Name = 
REMARK  11 active torsions:
REMARK  status: ('A' for Active; 'I' for Inactive)
REMARK    1  A    between atoms: C_2  and  C_27
REMARK    2  A    between atoms: N_3  and  C_4
REMARK    3  A    between atoms: C_4  and  C_5
REMARK    4  A    between atoms: C_5  and  C_6
REMARK    5  A    between atoms: C_6  and  C_7
REMARK    6  A    between atoms: C_7  and  C_8
REMARK    7  A    between atoms: C_8  and  C_9
REMARK    8  A    between atoms: C_9  and  C_10
REMARK    9  A    between atoms: C_10  and  C_11
REMARK   10  A    between atoms: C_11  and  N_12
REMARK   11  A    between atoms: N_12  and  C_13
REMARK                            x       y       z     vdW  Elec       q    Type
REMARK                         _______ _______ _______ _____ _____    ______ ____
ROOT
ATOM      1  C   UNL     1       2.486   8.581  17.844  0.00  0.00    +0.000 C 
ENDROOT
BRANCH   1   2
ATOM      2  C   UNL     1       2.397   7.073  18.070  0.00  0.00    +0.000 C 
BRANCH   2   3
ATOM      3  C   UNL     1       2.867   6.649  19.466  0.00  0.00    +0.000 C 
BRANCH   3   4
ATOM      4  C   UNL     1       1.759   5.958  20.249  0.00  0.00    +0.000 C 
BRANCH   4   5
ATOM      5  C   UNL     1       2.233   4.595  20.738  0.00  0.00    +0.000 C 
BRANCH   5   6
ATOM      6  C   UNL     1       1.275   3.493  20.298  0.00  0.00    +0.000 C 
BRANCH   6   7
ATOM      7  C   UNL     1       2.013   2.429  19.492  0.00  0.00    +0.000 C 
BRANCH   7  10
ATOM      8  O   UNL     1       2.506   3.389  16.881  0.00  0.00    +0.000 OA
ATOM      9  C   UNL     1       3.409   3.370  17.701  0.00  0.00    +0.000 C 
ATOM     10  N   UNL     1       3.282   2.927  19.000  0.00  0.00    +0.000 N 
ATOM     11  H   UNL     1       3.994   3.147  19.680  0.00  0.00    +0.000 HD
BRANCH   9  12
ATOM     12  C   UNL     1       4.754   3.887  17.333  0.00  0.00    +0.000 A 
ATOM     13  C   UNL     1       5.594   4.339  18.348  0.00  0.00    +0.000 A 
ATOM     14  C   UNL     1       6.844   4.801  17.991  0.00  0.00    +0.000 A 
ATOM     15  N   UNL     1       7.288   4.851  16.713  0.00  0.00    +0.000 NA
ATOM     16  C   UNL     1       6.438   4.435  15.750  0.00  0.00    +0.000 A 
ATOM     17  C   UNL     1       5.171   3.950  16.004  0.00  0.00    +0.000 A 
ENDBRANCH   9  12
ENDBRANCH   7  10
ENDBRANCH   6   7
ENDBRANCH   5   6
ENDBRANCH   4   5
ENDBRANCH   3   4
ENDBRANCH   2   3
ENDBRANCH   1   2
BRANCH   1  18
ATOM     18  C   UNL     1       1.412   9.299  18.638  0.00  0.00    +0.000 C 
BRANCH  18  19
ATOM     19  N   UNL     1       0.288   9.713  17.807  0.00  0.00    +0.000 N 
ATOM     20  H   UNL     1       0.040   8.999  17.141  0.00  0.00    +0.000 HD
BRANCH  19  21
ATOM     21  C   UNL     1      -0.831  10.379  18.368  0.00  0.00    +0.000 A 
ATOM     22  C   UNL     1      -0.821  10.967  19.658  0.00  0.00    +0.000 A 
ATOM     23  C   UNL     1      -1.896  11.782  20.026  0.00  0.00    +0.000 A 
ATOM     24  N   UNL     1      -2.972  11.991  19.233  0.00  0.00    +0.000 NA
ATOM     25  C   UNL     1      -3.022  11.408  18.033  0.00  0.00    +0.000 A 
ATOM     26  C   UNL     1      -4.161  11.639  17.276  0.00  0.00    +0.000 A 
ATOM     27  C   UNL     1      -4.351  11.062  16.023  0.00  0.00    +0.000 A 
ATOM     28  C   UNL     1      -3.367  10.236  15.504  0.00  0.00    +0.000 A 
ATOM     29  C   UNL     1      -2.198  10.012  16.242  0.00  0.00    +0.000 A 
ATOM     30  C   UNL     1      -1.989  10.594  17.526  0.00  0.00    +0.000 A 
ATOM     31  C   UNL     1      -1.974  12.460  21.368  0.00  0.00    +0.000 C 
ATOM     32  C   UNL     1      -0.684  12.458  22.177  0.00  0.00    +0.000 C 
ATOM     33  C   UNL     1      -0.035  11.111  22.095  0.00  0.00    +0.000 C 
ATOM     34  C   UNL     1       0.304  10.801  20.651  0.00  0.00    +0.000 C 
ENDBRANCH  19  21
ENDBRANCH  18  19
ENDBRANCH   1  18
TORSDOF 11
ENDMDL
MODEL 2
REMARK VINA RESULT:      -8.2      2.906      9.856
REMARK  Name = 
REMARK  11 active torsions:
REMARK  status: ('A' for Active; 'I' for Inactive)
REMARK    1  A    between atoms: C_2  and  C_27
REMARK    2  A    between atoms: N_3  and  C_4
REMARK    3  A    between atoms: C_4  and  C_5
REMARK    4  A    between atoms: C_5  and  C_6
REMARK    5  A    between atoms: C_6  and  C_7
REMARK    6  A    between atoms: C_7  and  C_8
REMARK    7  A    between atoms: C_8  and  C_9
REMARK    8  A    between atoms: C_9  and  C_10
REMARK    9  A    between atoms: C_10  and  C_11
REMARK   10  A    between atoms: C_11  and  N_12
REMARK   11  A    between atoms: N_12  and  C_13
REMARK                            x       y       z     vdW  Elec       q    Type
REMARK                         _______ _______ _______ _____ _____    ______ ____
ROOT
ATOM      1  C   UNL     1       2.497   2.250  17.999  0.00  0.00    +0.000 C 
ENDROOT
BRANCH   1   2
ATOM      2  C   UNL     1       2.416   3.148  19.232  0.00  0.00    +0.000 C 
BRANCH   2   3
ATOM      3  C   UNL     1       1.334   4.228  19.117  0.00  0.00    +0.000 C 
BRANCH   3   4
ATOM      4  C   UNL     1       1.748   5.341  18.164  0.00  0.00    +0.000 C 
BRANCH   4   5
ATOM      5  C   UNL     1       2.747   6.269  18.844  0.00  0.00    +0.000 C 
BRANCH   5   6
ATOM      6  C   UNL     1       3.153   7.408  17.915  0.00  0.00    +0.000 C 
BRANCH   6   7
ATOM      7  C   UNL     1       2.053   8.463  17.844  0.00  0.00    +0.000 C 
BRANCH   7  10
ATOM      8  O   UNL     1       0.117  10.437  18.419  0.00  0.00    +0.000 OA
ATOM      9  C   UNL     1       0.647   9.824  19.331  0.00  0.00    +0.000 C 
ATOM     10  N   UNL     1       1.600   8.841  19.167  0.00  0.00    +0.000 N 
ATOM     11  H   UNL     1       1.826   8.225  19.934  0.00  0.00    +0.000 HD
BRANCH   9  12
ATOM     12  C   UNL     1       0.244  10.093  20.736  0.00  0.00    +0.000 A 
ATOM     13  C   UNL     1      -0.354  11.316  21.035  0.00  0.00    +0.000 A 
ATOM     14  C   UNL     1      -0.735  11.543  22.341  0.00  0.00    +0.000 A 
ATOM     15  N   UNL     1      -0.548  10.653  23.343  0.00  0.00    +0.000 NA
ATOM     16  C   UNL     1       0.061   9.490  23.027  0.00  0.00    +0.000 A 
ATOM     17  C   UNL     1       0.475   9.164  21.750  0.00  0.00    +0.000 A 
ENDBRANCH   9  12
ENDBRANCH   7  10
ENDBRANCH   6   7
ENDBRANCH   5   6
ENDBRANCH   4   5
ENDBRANCH   3   4
ENDBRANCH   2   3
ENDBRANCH   1   2
BRANCH   1  18
ATOM     18  C   UNL     1       3.876   2.335  17.374  0.00  0.00    +0.000 C 
BRANCH  18  19
ATOM     19  N   UNL     1       3.993   3.439  16.429  0.00  0.00    +0.000 N 
ATOM     20  H   UNL     1       3.254   4.112  16.556  0.00  0.00    +0.000 HD
BRANCH  19  21
ATOM     21  C   UNL     1       5.250   4.025  16.139  0.00  0.00    +0.000 A 
ATOM     22  C   UNL     1       5.789   4.103  14.829  0.00  0.00    +0.000 A 
ATOM     23  C   UNL     1       6.928   4.888  14.625  0.00  0.00    +0.000 A 
ATOM     24  N   UNL     1       7.573   5.531  15.624  0.00  0.00    +0.000 NA
ATOM     25  C   UNL     1       7.109   5.432  16.872  0.00  0.00    +0.000 A 
ATOM     26  C   UNL     1       7.826   6.093  17.857  0.00  0.00    +0.000 A 
ATOM     27  C   UNL     1       7.466   6.040  19.202  0.00  0.00    +0.000 A 
ATOM     28  C   UNL     1       6.347   5.313  19.572  0.00  0.00    +0.000 A 
ATOM     29  C   UNL     1       5.593   4.661  18.588  0.00  0.00    +0.000 A 
ATOM     30  C   UNL     1       5.950   4.705  17.209  0.00  0.00    +0.000 A 
ATOM     31  C   UNL     1       7.570   5.044  13.272  0.00  0.00    +0.000 C 
ATOM     32  C   UNL     1       6.740   4.552  12.094  0.00  0.00    +0.000 C 
ATOM     33  C   UNL     1       6.102   3.240  12.434  0.00  0.00    +0.000 C 
ATOM     34  C   UNL     1       5.184   3.420  13.627  0.00  0.00    +0.000 C 
ENDBRANCH  19  21
ENDBRANCH  18  19
ENDBRANCH   1  18
TORSDOF 11
ENDMDL
MODEL 3
REMARK VINA RESULT:      -8.2      0.432      3.277
REMARK  Name = 
REMARK  11 active torsions:
REMARK  status: ('A' for Active; 'I' for Inactive)
REMARK    1  A    between atoms: C_2  and  C_27
REMARK    2  A    between atoms: N_3  and  C_4
REMARK    3  A    between atoms: C_4  and  C_5
REMARK    4  A    between atoms: C_5  and  C_6
REMARK    5  A    between atoms: C_6  and  C_7
REMARK    6  A    between atoms: C_7  and  C_8
REMARK    7  A    between atoms: C_8  and  C_9
REMARK    8  A    between atoms: C_9  and  C_10
REMARK    9  A    between atoms: C_10  and  C_11
REMARK   10  A    between atoms: C_11  and  N_12
REMARK   11  A    between atoms: N_12  and  C_13
REMARK                            x       y       z     vdW  Elec       q    Type
REMARK                         _______ _______ _______ _____ _____    ______ ____
ROOT
ATOM      1  C   UNL     1       2.432   8.297  18.161  0.00  0.00    +0.000 C 
ENDROOT
BRANCH   1   2
ATOM      2  C   UNL     1       2.101   7.709  19.532  0.00  0.00    +0.000 C 
BRANCH   2   3
ATOM      3  C   UNL     1       2.403   6.210  19.629  0.00  0.00    +0.000 C 
BRANCH   3   4
ATOM      4  C   UNL     1       1.679   5.563  20.801  0.00  0.00    +0.000 C 
BRANCH   4   5
ATOM      5  C   UNL     1       2.028   4.082  20.881  0.00  0.00    +0.000 C 
BRANCH   5   6
ATOM      6  C   UNL     1       1.165   3.265  19.927  0.00  0.00    +0.000 C 
BRANCH   6   7
ATOM      7  C   UNL     1       2.001   2.202  19.221  0.00  0.00    +0.000 C 
BRANCH   7  10
ATOM      8  O   UNL     1       2.539   3.435  16.737  0.00  0.00    +0.000 OA
ATOM      9  C   UNL     1       3.432   3.315  17.560  0.00  0.00    +0.000 C 
ATOM     10  N   UNL     1       3.283   2.733  18.801  0.00  0.00    +0.000 N 
ATOM     11  H   UNL     1       3.988   2.869  19.509  0.00  0.00    +0.000 HD
BRANCH   9  12
ATOM     12  C   UNL     1       4.787   3.850  17.266  0.00  0.00    +0.000 A 
ATOM     13  C   UNL     1       5.533   4.384  18.315  0.00  0.00    +0.000 A 
ATOM     14  C   UNL     1       6.795   4.863  18.027  0.00  0.00    +0.000 A 
ATOM     15  N   UNL     1       7.336   4.854  16.787  0.00  0.00    +0.000 NA
ATOM     16  C   UNL     1       6.576   4.358  15.788  0.00  0.00    +0.000 A 
ATOM     17  C   UNL     1       5.305   3.850  15.972  0.00  0.00    +0.000 A 
ENDBRANCH   9  12
ENDBRANCH   7  10
ENDBRANCH   6   7
ENDBRANCH   5   6
ENDBRANCH   4   5
ENDBRANCH   3   4
ENDBRANCH   2   3
ENDBRANCH   1   2
BRANCH   1  18
ATOM     18  C   UNL     1       1.455   9.405  17.812  0.00  0.00    +0.000 C 
BRANCH  18  19
ATOM     19  N   UNL     1       0.100   9.115  18.264  0.00  0.00    +0.000 N 
ATOM     20  H   UNL     1       0.095   8.412  18.986  0.00  0.00    +0.000 HD
BRANCH  19  21
ATOM     21  C   UNL     1      -0.839  10.155  18.478  0.00  0.00    +0.000 A 
ATOM     22  C   UNL     1      -1.904  10.439  17.585  0.00  0.00    +0.000 A 
ATOM     23  C   UNL     1      -2.893  11.337  17.995  0.00  0.00    +0.000 A 
ATOM     24  N   UNL     1      -2.855  11.992  19.178  0.00  0.00    +0.000 NA
ATOM     25  C   UNL     1      -1.836  11.774  20.012  0.00  0.00    +0.000 A 
ATOM     26  C   UNL     1      -1.838  12.493  21.199  0.00  0.00    +0.000 A 
ATOM     27  C   UNL     1      -0.815  12.382  22.138  0.00  0.00    +0.000 A 
ATOM     28  C   UNL     1       0.238  11.518  21.888  0.00  0.00    +0.000 A 
ATOM     29  C   UNL     1       0.245  10.764  20.709  0.00  0.00    +0.000 A 
ATOM     30  C   UNL     1      -0.794  10.866  19.738  0.00  0.00    +0.000 A 
ATOM     31  C   UNL     1      -4.070  11.696  17.127  0.00  0.00    +0.000 C 
ATOM     32  C   UNL     1      -4.283  10.802  15.912  0.00  0.00    +0.000 C 
ATOM     33  C   UNL     1      -2.968  10.518  15.253  0.00  0.00    +0.000 C 
ATOM     34  C   UNL     1      -2.060   9.797  16.228  0.00  0.00    +0.000 C 
ENDBRANCH  19  21
ENDBRANCH  18  19
ENDBRANCH   1  18
TORSDOF 11
ENDMDL
MODEL 4
REMARK VINA RESULT:      -8.1      1.605      1.715
REMARK  Name = 
REMARK  11 active torsions:
REMARK  status: ('A' for Active; 'I' for Inactive)
REMARK    1  A    between atoms: C_2  and  C_27
REMARK    2  A    between atoms: N_3  and  C_4
REMARK    3  A    between atoms: C_4  and  C_5
REMARK    4  A    between atoms: C_5  and  C_6
REMARK    5  A    between atoms: C_6  and  C_7
REMARK    6  A    between atoms: C_7  and  C_8
REMARK    7  A    between atoms: C_8  and  C_9
REMARK    8  A    between atoms: C_9  and  C_10
REMARK    9  A    between atoms: C_10  and  C_11
REMARK   10  A    between atoms: C_11  and  N_12
REMARK   11  A    between atoms: N_12  and  C_13
REMARK                            x       y       z     vdW  Elec       q    Type
REMARK                         _______ _______ _______ _____ _____    ______ ____
ROOT
ATOM      1  C   UNL     1       2.775   8.567  17.734  0.00  0.00    +0.000 C 
ENDROOT
BRANCH   1   2
ATOM      2  C   UNL     1       3.072   7.119  18.118  0.00  0.00    +0.000 C 
BRANCH   2   3
ATOM      3  C   UNL     1       1.875   6.414  18.765  0.00  0.00    +0.000 C 
BRANCH   3   4
ATOM      4  C   UNL     1       2.258   5.740  20.076  0.00  0.00    +0.000 C 
BRANCH   4   5
ATOM      5  C   UNL     1       1.618   4.361  20.164  0.00  0.00    +0.000 C 
BRANCH   5   6
ATOM      6  C   UNL     1       1.327   3.805  18.774  0.00  0.00    +0.000 C 
BRANCH   6   7
ATOM      7  C   UNL     1       2.416   2.825  18.348  0.00  0.00    +0.000 C 
BRANCH   7  10
ATOM      8  O   UNL     1       5.010   3.463  19.265  0.00  0.00    +0.000 OA
ATOM      9  C   UNL     1       4.682   3.751  18.126  0.00  0.00    +0.000 C 
ATOM     10  N   UNL     1       3.446   3.487  17.573  0.00  0.00    +0.000 N 
ATOM     11  H   UNL     1       3.318   3.543  16.574  0.00  0.00    +0.000 HD
BRANCH   9  12
ATOM     12  C   UNL     1       5.660   4.403  17.216  0.00  0.00    +0.000 A 
ATOM     13  C   UNL     1       6.307   5.557  17.651  0.00  0.00    +0.000 A 
ATOM     14  C   UNL     1       7.224   6.141  16.800  0.00  0.00    +0.000 A 
ATOM     15  N   UNL     1       7.514   5.662  15.568  0.00  0.00    +0.000 NA
ATOM     16  C   UNL     1       6.847   4.559  15.164  0.00  0.00    +0.000 A 
ATOM     17  C   UNL     1       5.917   3.898  15.942  0.00  0.00    +0.000 A 
ENDBRANCH   9  12
ENDBRANCH   7  10
ENDBRANCH   6   7
ENDBRANCH   5   6
ENDBRANCH   4   5
ENDBRANCH   3   4
ENDBRANCH   2   3
ENDBRANCH   1   2
BRANCH   1  18
ATOM     18  C   UNL     1       1.464   9.018  18.349  0.00  0.00    +0.000 C 
BRANCH  18  19
ATOM     19  N   UNL     1       0.963  10.249  17.751  0.00  0.00    +0.000 N 
ATOM     20  H   UNL     1       0.728  10.118  16.780  0.00  0.00    +0.000 HD
BRANCH  19  21
ATOM     21  C   UNL     1       0.052  11.083  18.448  0.00  0.00    +0.000 A 
ATOM     22  C   UNL     1       0.459  12.179  19.251  0.00  0.00    +0.000 A 
ATOM     23  C   UNL     1      -0.520  13.063  19.715  0.00  0.00    +0.000 A 
ATOM     24  N   UNL     1      -1.841  12.892  19.482  0.00  0.00    +0.000 NA
ATOM     25  C   UNL     1      -2.248  11.841  18.768  0.00  0.00    +0.000 A 
ATOM     26  C   UNL     1      -3.616  11.705  18.584  0.00  0.00    +0.000 A 
ATOM     27  C   UNL     1      -4.171  10.634  17.887  0.00  0.00    +0.000 A 
ATOM     28  C   UNL     1      -3.331   9.673  17.348  0.00  0.00    +0.000 A 
ATOM     29  C   UNL     1      -1.946   9.807  17.499  0.00  0.00    +0.000 A 
ATOM     30  C   UNL     1      -1.363  10.896  18.210  0.00  0.00    +0.000 A 
ATOM     31  C   UNL     1      -0.190  14.261  20.564  0.00  0.00    +0.000 C 
ATOM     32  C   UNL     1       1.287  14.627  20.633  0.00  0.00    +0.000 C 
ATOM     33  C   UNL     1       2.110  13.387  20.798  0.00  0.00    +0.000 C 
ATOM     34  C   UNL     1       1.896  12.477  19.605  0.00  0.00    +0.000 C 
ENDBRANCH  19  21
ENDBRANCH  18  19
ENDBRANCH   1  18
TORSDOF 11
ENDMDL
MODEL 5
REMARK VINA RESULT:      -8.1      1.236      3.423
REMARK  Name = 
REMARK  11 active torsions:
REMARK  status: ('A' for Active; 'I' for Inactive)
REMARK    1  A    between atoms: C_2  and  C_27
REMARK    2  A    between atoms: N_3  and  C_4
REMARK    3  A    between atoms: C_4  and  C_5
REMARK    4  A    between atoms: C_5  and  C_6
REMARK    5  A    between atoms: C_6  and  C_7
REMARK    6  A    between atoms: C_7  and  C_8
REMARK    7  A    between atoms: C_8  and  C_9
REMARK    8  A    between atoms: C_9  and  C_10
REMARK    9  A    between atoms: C_10  and  C_11
REMARK   10  A    between atoms: C_11  and  N_12
REMARK   11  A    between atoms: N_12  and  C_13
REMARK                            x       y       z     vdW  Elec       q    Type
REMARK                         _______ _______ _______ _____ _____    ______ ____
ROOT
ATOM      1  C   UNL     1       2.234   8.527  17.704  0.00  0.00    +0.000 C 
ENDROOT
BRANCH   1   2
ATOM      2  C   UNL     1       2.931   7.395  18.456  0.00  0.00    +0.000 C 
BRANCH   2   3
ATOM      3  C   UNL     1       1.995   6.224  18.775  0.00  0.00    +0.000 C 
BRANCH   3   4
ATOM      4  C   UNL     1       2.076   5.820  20.241  0.00  0.00    +0.000 C 
BRANCH   4   5
ATOM      5  C   UNL     1       1.367   4.490  20.459  0.00  0.00    +0.000 C 
BRANCH   5   6
ATOM      6  C   UNL     1       2.315   3.457  21.059  0.00  0.00    +0.000 C 
BRANCH   6   7
ATOM      7  C   UNL     1       2.852   2.527  19.976  0.00  0.00    +0.000 C 
BRANCH   7  10
ATOM      8  O   UNL     1       3.029   3.117  17.220  0.00  0.00    +0.000 OA
ATOM      9  C   UNL     1       3.977   3.348  17.952  0.00  0.00    +0.000 C 
ATOM     10  N   UNL     1       4.001   3.104  19.308  0.00  0.00    +0.000 N 
ATOM     11  H   UNL     1       4.716   3.521  19.884  0.00  0.00    +0.000 HD
BRANCH   9  12
ATOM     12  C   UNL     1       5.207   3.973  17.396  0.00  0.00    +0.000 A 
ATOM     13  C   UNL     1       5.433   3.891  16.023  0.00  0.00    +0.000 A 
ATOM     14  C   UNL     1       6.571   4.489  15.522  0.00  0.00    +0.000 A 
ATOM     15  N   UNL     1       7.479   5.135  16.290  0.00  0.00    +0.000 NA
ATOM     16  C   UNL     1       7.246   5.171  17.619  0.00  0.00    +0.000 A 
ATOM     17  C   UNL     1       6.136   4.609  18.218  0.00  0.00    +0.000 A 
ENDBRANCH   9  12
ENDBRANCH   7  10
ENDBRANCH   6   7
ENDBRANCH   5   6
ENDBRANCH   4   5
ENDBRANCH   3   4
ENDBRANCH   2   3
ENDBRANCH   1   2
BRANCH   1  18
ATOM     18  C   UNL     1       1.389   9.352  18.656  0.00  0.00    +0.000 C 
BRANCH  18  19
ATOM     19  N   UNL     1       1.093  10.680  18.131  0.00  0.00    +0.000 N 
ATOM     20  H   UNL     1       1.198  10.711  17.130  0.00  0.00    +0.000 HD
BRANCH  19  21
ATOM     21  C   UNL     1      -0.012  11.427  18.610  0.00  0.00    +0.000 A 
ATOM     22  C   UNL     1      -1.353  11.165  18.228  0.00  0.00    +0.000 A 
ATOM     23  C   UNL     1      -2.380  11.814  18.920  0.00  0.00    +0.000 A 
ATOM     24  N   UNL     1      -2.156  12.722  19.898  0.00  0.00    +0.000 NA
ATOM     25  C   UNL     1      -0.899  13.017  20.240  0.00  0.00    +0.000 A 
ATOM     26  C   UNL     1      -0.732  13.972  21.231  0.00  0.00    +0.000 A 
ATOM     27  C   UNL     1       0.527  14.393  21.654  0.00  0.00    +0.000 A 
ATOM     28  C   UNL     1       1.654  13.834  21.075  0.00  0.00    +0.000 A 
ATOM     29  C   UNL     1       1.506  12.848  20.092  0.00  0.00    +0.000 A 
ATOM     30  C   UNL     1       0.225  12.407  19.648  0.00  0.00    +0.000 A 
ATOM     31  C   UNL     1      -3.835  11.597  18.599  0.00  0.00    +0.000 C 
ATOM     32  C   UNL     1      -4.133  10.410  17.692  0.00  0.00    +0.000 C 
ATOM     33  C   UNL     1      -3.139  10.362  16.573  0.00  0.00    +0.000 C 
ATOM     34  C   UNL     1      -1.745  10.194  17.142  0.00  0.00    +0.000 C 
ENDBRANCH  19  21
ENDBRANCH  18  19
ENDBRANCH   1  18
TORSDOF 11
ENDMDL
MODEL 6
REMARK VINA RESULT:      -8.0      2.990      9.909
REMARK  Name = 
REMARK  11 active torsions:
REMARK  status: ('A' for Active; 'I' for Inactive)
REMARK    1  A    between atoms: C_2  and  C_27
REMARK    2  A    between atoms: N_3  and  C_4
REMARK    3  A    between atoms: C_4  and  C_5
REMARK    4  A    between atoms: C_5  and  C_6
REMARK    5  A    between atoms: C_6  and  C_7
REMARK    6  A    between atoms: C_7  and  C_8
REMARK    7  A    between atoms: C_8  and  C_9
REMARK    8  A    between atoms: C_9  and  C_10
REMARK    9  A    between atoms: C_10  and  C_11
REMARK   10  A    between atoms: C_11  and  N_12
REMARK   11  A    between atoms: N_12  and  C_13
REMARK                            x       y       z     vdW  Elec       q    Type
REMARK                         _______ _______ _______ _____ _____    ______ ____
ROOT
ATOM      1  C   UNL     1       2.389   2.872  17.742  0.00  0.00    +0.000 C 
ENDROOT
BRANCH   1   2
ATOM      2  C   UNL     1       2.490   3.330  19.195  0.00  0.00    +0.000 C 
BRANCH   2   3
ATOM      3  C   UNL     1       1.404   4.342  19.580  0.00  0.00    +0.000 C 
BRANCH   3   4
ATOM      4  C   UNL     1       1.965   5.476  20.427  0.00  0.00    +0.000 C 
BRANCH   4   5
ATOM      5  C   UNL     1       2.922   6.325  19.601  0.00  0.00    +0.000 C 
BRANCH   5   6
ATOM      6  C   UNL     1       2.259   6.796  18.311  0.00  0.00    +0.000 C 
BRANCH   6   7
ATOM      7  C   UNL     1       2.078   8.311  18.322  0.00  0.00    +0.000 C 
BRANCH   7  10
ATOM      8  O   UNL     1       1.045  10.899  18.783  0.00  0.00    +0.000 OA
ATOM      9  C   UNL     1       0.957  10.047  19.651  0.00  0.00    +0.000 C 
ATOM     10  N   UNL     1       1.422   8.755  19.535  0.00  0.00    +0.000 N 
ATOM     11  H   UNL     1       1.120   8.049  20.189  0.00  0.00    +0.000 HD
BRANCH   9  12
ATOM     12  C   UNL     1       0.273  10.365  20.933  0.00  0.00    +0.000 A 
ATOM     13  C   UNL     1       0.303   9.419  21.955  0.00  0.00    +0.000 A 
ATOM     14  C   UNL     1      -0.324   9.736  23.144  0.00  0.00    +0.000 A 
ATOM     15  N   UNL     1      -0.972  10.904  23.361  0.00  0.00    +0.000 NA
ATOM     16  C   UNL     1      -1.008  11.787  22.340  0.00  0.00    +0.000 A 
ATOM     17  C   UNL     1      -0.408  11.568  21.116  0.00  0.00    +0.000 A 
ENDBRANCH   9  12
ENDBRANCH   7  10
ENDBRANCH   6   7
ENDBRANCH   5   6
ENDBRANCH   4   5
ENDBRANCH   3   4
ENDBRANCH   2   3
ENDBRANCH   1   2
BRANCH   1  18
ATOM     18  C   UNL     1       3.172   3.805  16.838  0.00  0.00    +0.000 C 
BRANCH  18  19
ATOM     19  N   UNL     1       4.364   3.173  16.284  0.00  0.00    +0.000 N 
ATOM     20  H   UNL     1       4.127   2.506  15.567  0.00  0.00    +0.000 HD
BRANCH  19  21
ATOM     21  C   UNL     1       5.526   3.930  15.993  0.00  0.00    +0.000 A 
ATOM     22  C   UNL     1       6.044   4.089  14.683  0.00  0.00    +0.000 A 
ATOM     23  C   UNL     1       7.062   5.027  14.479  0.00  0.00    +0.000 A 
ATOM     24  N   UNL     1       7.614   5.748  15.481  0.00  0.00    +0.000 NA
ATOM     25  C   UNL     1       7.173   5.579  16.729  0.00  0.00    +0.000 A 
ATOM     26  C   UNL     1       7.795   6.328  17.716  0.00  0.00    +0.000 A 
ATOM     27  C   UNL     1       7.450   6.218  19.062  0.00  0.00    +0.000 A 
ATOM     28  C   UNL     1       6.445   5.340  19.431  0.00  0.00    +0.000 A 
ATOM     29  C   UNL     1       5.786   4.594  18.445  0.00  0.00    +0.000 A 
ATOM     30  C   UNL     1       6.128   4.694  17.065  0.00  0.00    +0.000 A 
ATOM     31  C   UNL     1       7.671   5.278  13.126  0.00  0.00    +0.000 C 
ATOM     32  C   UNL     1       6.913   4.681  11.947  0.00  0.00    +0.000 C 
ATOM     33  C   UNL     1       6.465   3.292  12.282  0.00  0.00    +0.000 C 
ATOM     34  C   UNL     1       5.536   3.335  13.478  0.00  0.00    +0.000 C 
ENDBRANCH  19  21
ENDBRANCH  18  19
ENDBRANCH   1  18
TORSDOF 11
ENDMDL
MODEL 7
REMARK VINA RESULT:      -8.0      2.511      9.504
REMARK  Name = 
REMARK  11 active torsions:
REMARK  status: ('A' for Active; 'I' for Inactive)
REMARK    1  A    between atoms: C_2  and  C_27
REMARK    2  A    between atoms: N_3  and  C_4
REMARK    3  A    between atoms: C_4  and  C_5
REMARK    4  A    between atoms: C_5  and  C_6
REMARK    5  A    between atoms: C_6  and  C_7
REMARK    6  A    between atoms: C_7  and  C_8
REMARK    7  A    between atoms: C_8  and  C_9
REMARK    8  A    between atoms: C_9  and  C_10
REMARK    9  A    between atoms: C_10  and  C_11
REMARK   10  A    between atoms: C_11  and  N_12
REMARK   11  A    between atoms: N_12  and  C_13
REMARK                            x       y       z     vdW  Elec       q    Type
REMARK                         _______ _______ _______ _____ _____    ______ ____
ROOT
ATOM      1  C   UNL     1       2.299   9.321  17.964  0.00  0.00    +0.000 C 
ENDROOT
BRANCH   1   2
ATOM      2  C   UNL     1       1.148  10.184  18.475  0.00  0.00    +0.000 C 
BRANCH   2   3
ATOM      3  C   UNL     1       0.698   9.805  19.890  0.00  0.00    +0.000 C 
BRANCH   3   4
ATOM      4  C   UNL     1       0.664  11.014  20.815  0.00  0.00    +0.000 C 
BRANCH   4   5
ATOM      5  C   UNL     1       0.702  12.300  19.999  0.00  0.00    +0.000 C 
BRANCH   5   6
ATOM      6  C   UNL     1      -0.081  13.410  20.692  0.00  0.00    +0.000 C 
BRANCH   6   7
ATOM      7  C   UNL     1      -1.565  13.311  20.357  0.00  0.00    +0.000 C 
BRANCH   7  10
ATOM      8  O   UNL     1      -4.005  12.118  19.579  0.00  0.00    +0.000 OA
ATOM      9  C   UNL     1      -3.020  12.003  18.868  0.00  0.00    +0.000 C 
ATOM     10  N   UNL     1      -1.782  12.543  19.147  0.00  0.00    +0.000 N 
ATOM     11  H   UNL     1      -1.084  12.605  18.422  0.00  0.00    +0.000 HD
BRANCH   9  12
ATOM     12  C   UNL     1      -3.119  11.268  17.580  0.00  0.00    +0.000 A 
ATOM     13  C   UNL     1      -2.173  10.283  17.301  0.00  0.00    +0.000 A 
ATOM     14  C   UNL     1      -2.288   9.600  16.108  0.00  0.00    +0.000 A 
ATOM     15  N   UNL     1      -3.256   9.844  15.194  0.00  0.00    +0.000 NA
ATOM     16  C   UNL     1      -4.138  10.825  15.480  0.00  0.00    +0.000 A 
ATOM     17  C   UNL     1      -4.114  11.562  16.648  0.00  0.00    +0.000 A 
ENDBRANCH   9  12
ENDBRANCH   7  10
ENDBRANCH   6   7
ENDBRANCH   5   6
ENDBRANCH   4   5
ENDBRANCH   3   4
ENDBRANCH   2   3
ENDBRANCH   1   2
BRANCH   1  18
ATOM     18  C   UNL     1       1.970   7.849  18.131  0.00  0.00    +0.000 C 
BRANCH  18  19
ATOM     19  N   UNL     1       3.089   7.086  18.670  0.00  0.00    +0.000 N 
ATOM     20  H   UNL     1       3.181   7.218  19.664  0.00  0.00    +0.000 HD
BRANCH  19  21
ATOM     21  C   UNL     1       3.338   5.755  18.248  0.00  0.00    +0.000 A 
ATOM     22  C   UNL     1       4.255   5.423  17.219  0.00  0.00    +0.000 A 
ATOM     23  C   UNL     1       4.585   4.078  17.031  0.00  0.00    +0.000 A 
ATOM     24  N   UNL     1       4.029   3.072  17.745  0.00  0.00    +0.000 NA
ATOM     25  C   UNL     1       3.128   3.361  18.687  0.00  0.00    +0.000 A 
ATOM     26  C   UNL     1       2.575   2.287  19.368  0.00  0.00    +0.000 A 
ATOM     27  C   UNL     1       1.600   2.451  20.350  0.00  0.00    +0.000 A 
ATOM     28  C   UNL     1       1.172   3.730  20.668  0.00  0.00    +0.000 A 
ATOM     29  C   UNL     1       1.738   4.829  20.010  0.00  0.00    +0.000 A 
ATOM     30  C   UNL     1       2.735   4.677  19.003  0.00  0.00    +0.000 A 
ATOM     31  C   UNL     1       5.556   3.623  15.974  0.00  0.00    +0.000 C 
ATOM     32  C   UNL     1       6.384   4.727  15.329  0.00  0.00    +0.000 C 
ATOM     33  C   UNL     1       5.515   5.911  15.039  0.00  0.00    +0.000 C 
ATOM     34  C   UNL     1       4.934   6.441  16.334  0.00  0.00    +0.000 C 
ENDBRANCH  19  21
ENDBRANCH  18  19
ENDBRANCH   1  18
TORSDOF 11
ENDMDL
MODEL 8
REMARK VINA RESULT:      -8.0      1.441      3.662
REMARK  Name = 
REMARK  11 active torsions:
REMARK  status: ('A' for Active; 'I' for Inactive)
REMARK    1  A    between atoms: C_2  and  C_27
REMARK    2  A    between atoms: N_3  and  C_4
REMARK    3  A    between atoms: C_4  and  C_5
REMARK    4  A    between atoms: C_5  and  C_6
REMARK    5  A    between atoms: C_6  and  C_7
REMARK    6  A    between atoms: C_7  and  C_8
REMARK    7  A    between atoms: C_8  and  C_9
REMARK    8  A    between atoms: C_9  and  C_10
REMARK    9  A    between atoms: C_10  and  C_11
REMARK   10  A    between atoms: C_11  and  N_12
REMARK   11  A    between atoms: N_12  and  C_13
REMARK                            x       y       z     vdW  Elec       q    Type
REMARK                         _______ _______ _______ _____ _____    ______ ____
ROOT
ATOM      1  C   UNL     1       1.334   8.518  20.023  0.00  0.00    +0.000 C 
ENDROOT
BRANCH   1   2
ATOM      2  C   UNL     1       1.276   7.174  20.747  0.00  0.00    +0.000 C 
BRANCH   2   3
ATOM      3  C   UNL     1       2.323   6.176  20.240  0.00  0.00    +0.000 C 
BRANCH   3   4
ATOM      4  C   UNL     1       2.194   4.824  20.929  0.00  0.00    +0.000 C 
BRANCH   4   5
ATOM      5  C   UNL     1       1.037   4.037  20.328  0.00  0.00    +0.000 C 
BRANCH   5   6
ATOM      6  C   UNL     1       1.252   3.805  18.836  0.00  0.00    +0.000 C 
BRANCH   6   7
ATOM      7  C   UNL     1       2.498   2.958  18.597  0.00  0.00    +0.000 C 
BRANCH   7  10
ATOM      8  O   UNL     1       5.165   3.365  19.435  0.00  0.00    +0.000 OA
ATOM      9  C   UNL     1       4.783   3.837  18.377  0.00  0.00    +0.000 C 
ATOM     10  N   UNL     1       3.508   3.700  17.870  0.00  0.00    +0.000 N 
ATOM     11  H   UNL     1       3.325   3.916  16.902  0.00  0.00    +0.000 HD
BRANCH   9  12
ATOM     12  C   UNL     1       5.733   4.592  17.518  0.00  0.00    +0.000 A 
ATOM     13  C   UNL     1       6.025   4.092  16.250  0.00  0.00    +0.000 A 
ATOM     14  C   UNL     1       6.897   4.813  15.460  0.00  0.00    +0.000 A 
ATOM     15  N   UNL     1       7.489   5.964  15.854  0.00  0.00    +0.000 NA
ATOM     16  C   UNL     1       7.209   6.406  17.099  0.00  0.00    +0.000 A 
ATOM     17  C   UNL     1       6.346   5.762  17.964  0.00  0.00    +0.000 A 
ENDBRANCH   9  12
ENDBRANCH   7  10
ENDBRANCH   6   7
ENDBRANCH   5   6
ENDBRANCH   4   5
ENDBRANCH   3   4
ENDBRANCH   2   3
ENDBRANCH   1   2
BRANCH   1  18
ATOM     18  C   UNL     1       0.752   9.613  20.897  0.00  0.00    +0.000 C 
BRANCH  18  19
ATOM     19  N   UNL     1       0.641  10.886  20.194  0.00  0.00    +0.000 N 
ATOM     20  H   UNL     1       1.237  10.912  19.383  0.00  0.00    +0.000 HD
BRANCH  19  21
ATOM     21  C   UNL     1      -0.620  11.502  19.991  0.00  0.00    +0.000 A 
ATOM     22  C   UNL     1      -1.526  11.104  18.975  0.00  0.00    +0.000 A 
ATOM     23  C   UNL     1      -2.823  11.627  19.000  0.00  0.00    +0.000 A 
ATOM     24  N   UNL     1      -3.237  12.537  19.910  0.00  0.00    +0.000 NA
ATOM     25  C   UNL     1      -2.385  12.960  20.846  0.00  0.00    +0.000 A 
ATOM     26  C   UNL     1      -2.859  13.911  21.737  0.00  0.00    +0.000 A 
ATOM     27  C   UNL     1      -2.059  14.457  22.738  0.00  0.00    +0.000 A 
ATOM     28  C   UNL     1      -0.746  14.032  22.860  0.00  0.00    +0.000 A 
ATOM     29  C   UNL     1      -0.257  13.053  21.987  0.00  0.00    +0.000 A 
ATOM     30  C   UNL     1      -1.062  12.484  20.957  0.00  0.00    +0.000 A 
ATOM     31  C   UNL     1      -3.863  11.260  17.974  0.00  0.00    +0.000 C 
ATOM     32  C   UNL     1      -3.520  10.063  17.097  0.00  0.00    +0.000 C 
ATOM     33  C   UNL     1      -2.088  10.141  16.666  0.00  0.00    +0.000 C 
ATOM     34  C   UNL     1      -1.191  10.114  17.887  0.00  0.00    +0.000 C 
ENDBRANCH  19  21
ENDBRANCH  18  19
ENDBRANCH   1  18
TORSDOF 11
ENDMDL
MODEL 9
REMARK VINA RESULT:      -8.0      2.584      3.493
REMARK  Name = 
REMARK  11 active torsions:
REMARK  status: ('A' for Active; 'I' for Inactive)
REMARK    1  A    between atoms: C_2  and  C_27
REMARK    2  A    between atoms: N_3  and  C_4
REMARK    3  A    between atoms: C_4  and  C_5
REMARK    4  A    between atoms: C_5  and  C_6
REMARK    5  A    between atoms: C_6  and  C_7
REMARK    6  A    between atoms: C_7  and  C_8
REMARK    7  A    between atoms: C_8  and  C_9
REMARK    8  A    between atoms: C_9  and  C_10
REMARK    9  A    between atoms: C_10  and  C_11
REMARK   10  A    between atoms: C_11  and  N_12
REMARK   11  A    between atoms: N_12  and  C_13
REMARK                            x       y       z     vdW  Elec       q    Type
REMARK                         _______ _______ _______ _____ _____    ______ ____
ROOT
ATOM      1  C   UNL     1       2.039   7.955  17.462  0.00  0.00    +0.000 C 
ENDROOT
BRANCH   1   2
ATOM      2  C   UNL     1       2.922   6.927  18.166  0.00  0.00    +0.000 C 
BRANCH   2   3
ATOM      3  C   UNL     1       2.325   6.430  19.487  0.00  0.00    +0.000 C 
BRANCH   3   4
ATOM      4  C   UNL     1       3.259   5.461  20.200  0.00  0.00    +0.000 C 
BRANCH   4   5
ATOM      5  C   UNL     1       2.476   4.263  20.719  0.00  0.00    +0.000 C 
BRANCH   5   6
ATOM      6  C   UNL     1       2.146   3.294  19.588  0.00  0.00    +0.000 C 
BRANCH   6   7
ATOM      7  C   UNL     1       3.319   2.356  19.324  0.00  0.00    +0.000 C 
BRANCH   7  10
ATOM      8  O   UNL     1       3.138   3.442  16.723  0.00  0.00    +0.000 OA
ATOM      9  C   UNL     1       4.185   3.524  17.343  0.00  0.00    +0.000 C 
ATOM     10  N   UNL     1       4.386   3.033  18.616  0.00  0.00    +0.000 N 
ATOM     11  H   UNL     1       5.189   3.329  19.149  0.00  0.00    +0.000 HD
BRANCH   9  12
ATOM     12  C   UNL     1       5.349   4.227  16.741  0.00  0.00    +0.000 A 
ATOM     13  C   UNL     1       5.736   3.886  15.446  0.00  0.00    +0.000 A 
ATOM     14  C   UNL     1       6.808   4.558  14.897  0.00  0.00    +0.000 A 
ATOM     15  N   UNL     1       7.507   5.516  15.550  0.00  0.00    +0.000 NA
ATOM     16  C   UNL     1       7.126   5.802  16.813  0.00  0.00    +0.000 A 
ATOM     17  C   UNL     1       6.064   5.191  17.450  0.00  0.00    +0.000 A 
ENDBRANCH   9  12
ENDBRANCH   7  10
ENDBRANCH   6   7
ENDBRANCH   5   6
ENDBRANCH   4   5
ENDBRANCH   3   4
ENDBRANCH   2   3
ENDBRANCH   1   2
BRANCH   1  18
ATOM     18  C   UNL     1       2.367   9.354  17.949  0.00  0.00    +0.000 C 
BRANCH  18  19
ATOM     19  N   UNL     1       1.173  10.165  18.157  0.00  0.00    +0.000 N 
ATOM     20  H   UNL     1       0.334   9.645  17.954  0.00  0.00    +0.000 HD
BRANCH  19  21
ATOM     21  C   UNL     1       1.054  11.016  19.285  0.00  0.00    +0.000 A 
ATOM     22  C   UNL     1       1.367  12.398  19.254  0.00  0.00    +0.000 A 
ATOM     23  C   UNL     1       1.010  13.186  20.353  0.00  0.00    +0.000 A 
ATOM     24  N   UNL     1       0.432  12.683  21.467  0.00  0.00    +0.000 NA
ATOM     25  C   UNL     1       0.172  11.376  21.535  0.00  0.00    +0.000 A 
ATOM     26  C   UNL     1      -0.398  10.915  22.713  0.00  0.00    +0.000 A 
ATOM     27  C   UNL     1      -0.687   9.569  22.922  0.00  0.00    +0.000 A 
ATOM     28  C   UNL     1      -0.407   8.655  21.920  0.00  0.00    +0.000 A 
ATOM     29  C   UNL     1       0.144   9.104  20.713  0.00  0.00    +0.000 A 
ATOM     30  C   UNL     1       0.446  10.478  20.484  0.00  0.00    +0.000 A 
ATOM     31  C   UNL     1       1.288  14.664  20.412  0.00  0.00    +0.000 C 
ATOM     32  C   UNL     1       1.700  15.306  19.093  0.00  0.00    +0.000 C 
ATOM     33  C   UNL     1       2.678  14.423  18.382  0.00  0.00    +0.000 C 
ATOM     34  C   UNL     1       2.029  13.087  18.085  0.00  0.00    +0.000 C 
ENDBRANCH  19  21
ENDBRANCH  18  19
ENDBRANCH   1  18
TORSDOF 11
ENDMDL
