MODEL 1
REMARK VINA RESULT:      -8.1      0.000      0.000
REMARK  Name = 
REMARK  7 active torsions:
REMARK  status: ('A' for Active; 'I' for Inactive)
REMARK    1  A    between atoms: C_1  and  C_2
REMARK    2  A    between atoms: C_7  and  C_8
REMARK    3  A    between atoms: C_8  and  C_9
REMARK    4  A    between atoms: C_9  and  N_10
REMARK    5  A    between atoms: N_10  and  S_11
REMARK    6  A    between atoms: S_11  and  C_14
REMARK    7  A    between atoms: C_17  and  N_18
REMARK                            x       y       z     vdW  Elec       q    Type
REMARK                         _______ _______ _______ _____ _____    ______ ____
ROOT
ATOM      1  N   UNL     1       7.508   6.701  17.518  0.00  0.00    +0.000 NA
ATOM      2  H   UNL     1       7.666   6.631  16.513  0.00  0.00    +0.000 HD
ENDROOT
BRANCH   1   3
ATOM      3  S   UNL     1       7.472   5.164  18.216  0.00  0.00    +0.000 S 
ATOM      4  O   UNL     1       8.053   4.267  17.242  0.00  0.00    +0.000 OA
ATOM      5  O   UNL     1       7.991   5.265  19.562  0.00  0.00    +0.000 OA
BRANCH   3   6
ATOM      6  C   UNL     1       5.735   4.802  18.292  0.00  0.00    +0.000 A 
ATOM      7  C   UNL     1       5.143   4.080  17.249  0.00  0.00    +0.000 A 
ATOM      8  C   UNL     1       3.773   3.807  17.287  0.00  0.00    +0.000 A 
ATOM      9  C   UNL     1       3.008   4.252  18.376  0.00  0.00    +0.000 A 
ATOM     10  C   UNL     1       3.611   4.936  19.442  0.00  0.00    +0.000 A 
ATOM     11  C   UNL     1       4.982   5.211  19.398  0.00  0.00    +0.000 A 
BRANCH   9  12
ATOM     12  N   UNL     1       1.556   4.018  18.389  0.00  0.00    +0.000 N 
ATOM     13  O   UNL     1       0.951   4.096  17.310  0.00  0.00    +0.000 OA
ATOM     14  O   UNL     1       1.023   3.768  19.478  0.00  0.00    +0.000 OA
ENDBRANCH   9  12
ENDBRANCH   3   6
ENDBRANCH   1   3
BRANCH   1  15
ATOM     15  C   UNL     1       8.238   7.759  18.251  0.00  0.00    +0.000 C 
BRANCH  15  16
ATOM     16  C   UNL     1       7.761   9.150  17.819  0.00  0.00    +0.000 C 
BRANCH  16  23
ATOM     17  C   UNL     1      11.485  15.428  18.839  0.00  0.00    +0.000 C 
ATOM     18  C   UNL     1      10.975  14.024  19.011  0.00  0.00    +0.000 A 
ATOM     19  C   UNL     1      11.505  13.231  20.113  0.00  0.00    +0.000 A 
ATOM     20  C   UNL     1      11.070  11.970  20.289  0.00  0.00    +0.000 A 
ATOM     21  N   UNL     1      10.123  11.453  19.411  0.00  0.00    +0.000 N 
ATOM     22  C   UNL     1       9.534  10.210  19.386  0.00  0.00    +0.000 A 
ATOM     23  C   UNL     1       8.667  10.226  18.313  0.00  0.00    +0.000 A 
ATOM     24  N   UNL     1       8.713  11.447  17.676  0.00  0.00    +0.000 NA
ATOM     25  C   UNL     1       9.588  12.168  18.347  0.00  0.00    +0.000 A 
ATOM     26  C   UNL     1      10.055  13.502  18.169  0.00  0.00    +0.000 A 
ENDBRANCH  16  23
ENDBRANCH  15  16
ENDBRANCH   1  15
TORSDOF 6
ENDMDL
MODEL 2
REMARK VINA RESULT:      -8.0      5.895      7.966
REMARK  Name = 
REMARK  7 active torsions:
REMARK  status: ('A' for Active; 'I' for Inactive)
REMARK    1  A    between atoms: C_1  and  C_2
REMARK    2  A    between atoms: C_7  and  C_8
REMARK    3  A    between atoms: C_8  and  C_9
REMARK    4  A    between atoms: C_9  and  N_10
REMARK    5  A    between atoms: N_10  and  S_11
REMARK    6  A    between atoms: S_11  and  C_14
REMARK    7  A    between atoms: C_17  and  N_18
REMARK                            x       y       z     vdW  Elec       q    Type
REMARK                         _______ _______ _______ _____ _____    ______ ____
ROOT
ATOM      1  N   UNL     1       1.638   4.259  19.698  0.00  0.00    +0.000 NA
ATOM      2  H   UNL     1       1.175   4.492  18.820  0.00  0.00    +0.000 HD
ENDROOT
BRANCH   1   3
ATOM      3  S   UNL     1       2.733   2.994  19.469  0.00  0.00    +0.000 S 
ATOM      4  O   UNL     1       3.292   2.705  20.772  0.00  0.00    +0.000 OA
ATOM      5  O   UNL     1       2.086   1.973  18.676  0.00  0.00    +0.000 OA
BRANCH   3   6
ATOM      6  C   UNL     1       4.017   3.749  18.502  0.00  0.00    +0.000 A 
ATOM      7  C   UNL     1       3.820   3.926  17.128  0.00  0.00    +0.000 A 
ATOM      8  C   UNL     1       4.832   4.500  16.352  0.00  0.00    +0.000 A 
ATOM      9  C   UNL     1       6.029   4.902  16.964  0.00  0.00    +0.000 A 
ATOM     10  C   UNL     1       6.206   4.766  18.349  0.00  0.00    +0.000 A 
ATOM     11  C   UNL     1       5.193   4.188  19.121  0.00  0.00    +0.000 A 
BRANCH   9  12
ATOM     12  N   UNL     1       7.117   5.452  16.141  0.00  0.00    +0.000 N 
ATOM     13  O   UNL     1       7.542   4.755  15.210  0.00  0.00    +0.000 OA
ATOM     14  O   UNL     1       7.552   6.574  16.436  0.00  0.00    +0.000 OA
ENDBRANCH   9  12
ENDBRANCH   3   6
ENDBRANCH   1   3
BRANCH   1  15
ATOM     15  C   UNL     1       2.074   5.382  20.557  0.00  0.00    +0.000 C 
BRANCH  15  16
ATOM     16  C   UNL     1       2.469   6.595  19.709  0.00  0.00    +0.000 C 
BRANCH  16  23
ATOM     17  C   UNL     1      -1.573  11.684  23.187  0.00  0.00    +0.000 C 
ATOM     18  C   UNL     1      -0.758  10.975  22.141  0.00  0.00    +0.000 A 
ATOM     19  C   UNL     1      -0.526  11.657  20.874  0.00  0.00    +0.000 A 
ATOM     20  C   UNL     1       0.197  11.045  19.918  0.00  0.00    +0.000 A 
ATOM     21  N   UNL     1       0.705   9.774  20.163  0.00  0.00    +0.000 N 
ATOM     22  C   UNL     1       1.462   8.958  19.354  0.00  0.00    +0.000 A 
ATOM     23  C   UNL     1       1.696   7.813  20.088  0.00  0.00    +0.000 A 
ATOM     24  N   UNL     1       1.099   7.904  21.326  0.00  0.00    +0.000 NA
ATOM     25  C   UNL     1       0.512   9.084  21.354  0.00  0.00    +0.000 A 
ATOM     26  C   UNL     1      -0.255   9.740  22.360  0.00  0.00    +0.000 A 
ENDBRANCH  16  23
ENDBRANCH  15  16
ENDBRANCH   1  15
TORSDOF 6
ENDMDL
MODEL 3
REMARK VINA RESULT:      -7.9      5.950      8.011
REMARK  Name = 
REMARK  7 active torsions:
REMARK  status: ('A' for Active; 'I' for Inactive)
REMARK    1  A    between atoms: C_1  and  C_2
REMARK    2  A    between atoms: C_7  and  C_8
REMARK    3  A    between atoms: C_8  and  C_9
REMARK    4  A    between atoms: C_9  and  N_10
REMARK    5  A    between atoms: N_10  and  S_11
REMARK    6  A    between atoms: S_11  and  C_14
REMARK    7  A    between atoms: C_17  and  N_18
REMARK                            x       y       z     vdW  Elec       q    Type
REMARK                         _______ _______ _______ _____ _____    ______ ____
ROOT
ATOM      1  N   UNL     1       1.609   4.459  19.574  0.00  0.00    +0.000 NA
ATOM      2  H   UNL     1       1.188   4.728  18.685  0.00  0.00    +0.000 HD
ENDROOT
BRANCH   1   3
ATOM      3  S   UNL     1       2.604   3.110  19.371  0.00  0.00    +0.000 S 
ATOM      4  O   UNL     1       3.113   2.785  20.685  0.00  0.00    +0.000 OA
ATOM      5  O   UNL     1       1.893   2.139  18.569  0.00  0.00    +0.000 OA
BRANCH   3   6
ATOM      6  C   UNL     1       3.962   3.756  18.427  0.00  0.00    +0.000 A 
ATOM      7  C   UNL     1       5.166   4.049  19.078  0.00  0.00    +0.000 A 
ATOM      8  C   UNL     1       6.236   4.579  18.350  0.00  0.00    +0.000 A 
ATOM      9  C   UNL     1       6.093   4.800  16.972  0.00  0.00    +0.000 A 
ATOM     10  C   UNL     1       4.901   4.462  16.313  0.00  0.00    +0.000 A 
ATOM     11  C   UNL     1       3.832   3.937  17.045  0.00  0.00    +0.000 A 
BRANCH   9  12
ATOM     12  N   UNL     1       7.196   5.411  16.215  0.00  0.00    +0.000 N 
ATOM     13  O   UNL     1       7.424   6.614  16.402  0.00  0.00    +0.000 OA
ATOM     14  O   UNL     1       7.823   4.690  15.427  0.00  0.00    +0.000 OA
ENDBRANCH   9  12
ENDBRANCH   3   6
ENDBRANCH   1   3
BRANCH   1  15
ATOM     15  C   UNL     1       2.112   5.545  20.445  0.00  0.00    +0.000 C 
BRANCH  15  16
ATOM     16  C   UNL     1       2.494   6.776  19.617  0.00  0.00    +0.000 C 
BRANCH  16  23
ATOM     17  C   UNL     1      -1.535  11.820  23.174  0.00  0.00    +0.000 C 
ATOM     18  C   UNL     1      -0.757  11.107  22.103  0.00  0.00    +0.000 A 
ATOM     19  C   UNL     1      -0.633  11.752  20.802  0.00  0.00    +0.000 A 
ATOM     20  C   UNL     1       0.055  11.136  19.823  0.00  0.00    +0.000 A 
ATOM     21  N   UNL     1       0.630   9.895  20.077  0.00  0.00    +0.000 N 
ATOM     22  C   UNL     1       1.368   9.082  19.249  0.00  0.00    +0.000 A 
ATOM     23  C   UNL     1       1.696   7.974  20.004  0.00  0.00    +0.000 A 
ATOM     24  N   UNL     1       1.173   8.086  21.273  0.00  0.00    +0.000 NA
ATOM     25  C   UNL     1       0.539   9.241  21.299  0.00  0.00    +0.000 A 
ATOM     26  C   UNL     1      -0.190   9.901  22.330  0.00  0.00    +0.000 A 
ENDBRANCH  16  23
ENDBRANCH  15  16
ENDBRANCH   1  15
TORSDOF 6
ENDMDL
MODEL 4
REMARK VINA RESULT:      -7.8      5.926      7.642
REMARK  Name = 
REMARK  7 active torsions:
REMARK  status: ('A' for Active; 'I' for Inactive)
REMARK    1  A    between atoms: C_1  and  C_2
REMARK    2  A    between atoms: C_7  and  C_8
REMARK    3  A    between atoms: C_8  and  C_9
REMARK    4  A    between atoms: C_9  and  N_10
REMARK    5  A    between atoms: N_10  and  S_11
REMARK    6  A    between atoms: S_11  and  C_14
REMARK    7  A    between atoms: C_17  and  N_18
REMARK                            x       y       z     vdW  Elec       q    Type
REMARK                         _______ _______ _______ _____ _____    ______ ____
ROOT
ATOM      1  N   UNL     1       1.519   4.216  19.554  0.00  0.00    +0.000 NA
ATOM      2  H   UNL     1       1.230   4.525  18.625  0.00  0.00    +0.000 HD
ENDROOT
BRANCH   1   3
ATOM      3  S   UNL     1       2.659   2.976  19.434  0.00  0.00    +0.000 S 
ATOM      4  O   UNL     1       3.171   2.769  20.771  0.00  0.00    +0.000 OA
ATOM      5  O   UNL     1       2.076   1.897  18.667  0.00  0.00    +0.000 OA
BRANCH   3   6
ATOM      6  C   UNL     1       3.960   3.723  18.483  0.00  0.00    +0.000 A 
ATOM      7  C   UNL     1       3.774   3.920  17.110  0.00  0.00    +0.000 A 
ATOM      8  C   UNL     1       4.799   4.488  16.348  0.00  0.00    +0.000 A 
ATOM      9  C   UNL     1       5.999   4.864  16.971  0.00  0.00    +0.000 A 
ATOM     10  C   UNL     1       6.166   4.707  18.355  0.00  0.00    +0.000 A 
ATOM     11  C   UNL     1       5.140   4.136  19.114  0.00  0.00    +0.000 A 
BRANCH   9  12
ATOM     12  N   UNL     1       7.100   5.406  16.161  0.00  0.00    +0.000 N 
ATOM     13  O   UNL     1       7.579   6.497  16.500  0.00  0.00    +0.000 OA
ATOM     14  O   UNL     1       7.474   4.747  15.182  0.00  0.00    +0.000 OA
ENDBRANCH   9  12
ENDBRANCH   3   6
ENDBRANCH   1   3
BRANCH   1  15
ATOM     15  C   UNL     1       1.761   5.259  20.575  0.00  0.00    +0.000 C 
BRANCH  15  16
ATOM     16  C   UNL     1       2.561   6.425  19.985  0.00  0.00    +0.000 C 
BRANCH  16  23
ATOM     17  C   UNL     1      -0.593  12.944  18.615  0.00  0.00    +0.000 C 
ATOM     18  C   UNL     1      -0.152  11.688  19.313  0.00  0.00    +0.000 A 
ATOM     19  C   UNL     1      -0.565  11.490  20.697  0.00  0.00    +0.000 A 
ATOM     20  C   UNL     1      -0.182  10.377  21.348  0.00  0.00    +0.000 A 
ATOM     21  N   UNL     1       0.602   9.440  20.683  0.00  0.00    +0.000 N 
ATOM     22  C   UNL     1       1.111   8.243  21.131  0.00  0.00    +0.000 A 
ATOM     23  C   UNL     1       1.812   7.712  20.068  0.00  0.00    +0.000 A 
ATOM     24  N   UNL     1       1.750   8.555  18.981  0.00  0.00    +0.000 NA
ATOM     25  C   UNL     1       1.022   9.583  19.367  0.00  0.00    +0.000 A 
ATOM     26  C   UNL     1       0.611  10.765  18.685  0.00  0.00    +0.000 A 
ENDBRANCH  16  23
ENDBRANCH  15  16
ENDBRANCH   1  15
TORSDOF 6
ENDMDL
MODEL 5
REMARK VINA RESULT:      -7.8      5.478      8.572
REMARK  Name = 
REMARK  7 active torsions:
REMARK  status: ('A' for Active; 'I' for Inactive)
REMARK    1  A    between atoms: C_1  and  C_2
REMARK    2  A    between atoms: C_7  and  C_8
REMARK    3  A    between atoms: C_8  and  C_9
REMARK    4  A    between atoms: C_9  and  N_10
REMARK    5  A    between atoms: N_10  and  S_11
REMARK    6  A    between atoms: S_11  and  C_14
REMARK    7  A    between atoms: C_17  and  N_18
REMARK                            x       y       z     vdW  Elec       q    Type
REMARK                         _______ _______ _______ _____ _____    ______ ____
ROOT
ATOM      1  N   UNL     1       5.563   6.214  17.886  0.00  0.00    +0.000 NA
ATOM      2  H   UNL     1       4.954   5.425  18.104  0.00  0.00    +0.000 HD
ENDROOT
BRANCH   1   3
ATOM      3  S   UNL     1       7.050   5.663  17.303  0.00  0.00    +0.000 S 
ATOM      4  O   UNL     1       7.816   6.846  16.975  0.00  0.00    +0.000 OA
ATOM      5  O   UNL     1       7.552   4.661  18.216  0.00  0.00    +0.000 OA
BRANCH   3   6
ATOM      6  C   UNL     1       6.611   4.881  15.770  0.00  0.00    +0.000 A 
ATOM      7  C   UNL     1       7.376   5.143  14.628  0.00  0.00    +0.000 A 
ATOM      8  C   UNL     1       7.028   4.550  13.411  0.00  0.00    +0.000 A 
ATOM      9  C   UNL     1       5.921   3.690  13.351  0.00  0.00    +0.000 A 
ATOM     10  C   UNL     1       5.183   3.394  14.507  0.00  0.00    +0.000 A 
ATOM     11  C   UNL     1       5.532   3.991  15.721  0.00  0.00    +0.000 A 
BRANCH   9  12
ATOM     12  N   UNL     1       5.518   3.112  12.060  0.00  0.00    +0.000 N 
ATOM     13  O   UNL     1       6.212   2.196  11.599  0.00  0.00    +0.000 OA
ATOM     14  O   UNL     1       4.516   3.584  11.505  0.00  0.00    +0.000 OA
ENDBRANCH   9  12
ENDBRANCH   3   6
ENDBRANCH   1   3
BRANCH   1  15
ATOM     15  C   UNL     1       4.956   7.375  17.198  0.00  0.00    +0.000 C 
BRANCH  15  16
ATOM     16  C   UNL     1       3.514   7.593  17.667  0.00  0.00    +0.000 C 
BRANCH  16  23
ATOM     17  C   UNL     1       1.278   2.296  22.279  0.00  0.00    +0.000 C 
ATOM     18  C   UNL     1       1.531   3.088  21.026  0.00  0.00    +0.000 A 
ATOM     19  C   UNL     1       1.054   2.543  19.762  0.00  0.00    +0.000 A 
ATOM     20  C   UNL     1       1.270   3.228  18.624  0.00  0.00    +0.000 A 
ATOM     21  N   UNL     1       1.945   4.443  18.683  0.00  0.00    +0.000 N 
ATOM     22  C   UNL     1       2.280   5.312  17.671  0.00  0.00    +0.000 A 
ATOM     23  C   UNL     1       2.937   6.362  18.280  0.00  0.00    +0.000 A 
ATOM     24  N   UNL     1       3.018   6.156  19.639  0.00  0.00    +0.000 NA
ATOM     25  C   UNL     1       2.418   5.003  19.862  0.00  0.00    +0.000 A 
ATOM     26  C   UNL     1       2.185   4.271  21.062  0.00  0.00    +0.000 A 
ENDBRANCH  16  23
ENDBRANCH  15  16
ENDBRANCH   1  15
TORSDOF 6
ENDMDL
MODEL 6
REMARK VINA RESULT:      -7.8      5.707      7.283
REMARK  Name = 
REMARK  7 active torsions:
REMARK  status: ('A' for Active; 'I' for Inactive)
REMARK    1  A    between atoms: C_1  and  C_2
REMARK    2  A    between atoms: C_7  and  C_8
REMARK    3  A    between atoms: C_8  and  C_9
REMARK    4  A    between atoms: C_9  and  N_10
REMARK    5  A    between atoms: N_10  and  S_11
REMARK    6  A    between atoms: S_11  and  C_14
REMARK    7  A    between atoms: C_17  and  N_18
REMARK                            x       y       z     vdW  Elec       q    Type
REMARK                         _______ _______ _______ _____ _____    ______ ____
ROOT
ATOM      1  N   UNL     1       2.509   2.580  20.104  0.00  0.00    +0.000 NA
ATOM      2  H   UNL     1       1.834   1.816  20.147  0.00  0.00    +0.000 HD
ENDROOT
BRANCH   1   3
ATOM      3  S   UNL     1       3.981   2.030  19.486  0.00  0.00    +0.000 S 
ATOM      4  O   UNL     1       4.870   1.902  20.620  0.00  0.00    +0.000 OA
ATOM      5  O   UNL     1       3.715   0.919  18.600  0.00  0.00    +0.000 OA
BRANCH   3   6
ATOM      6  C   UNL     1       4.551   3.412  18.526  0.00  0.00    +0.000 A 
ATOM      7  C   UNL     1       5.344   4.387  19.140  0.00  0.00    +0.000 A 
ATOM      8  C   UNL     1       5.781   5.490  18.401  0.00  0.00    +0.000 A 
ATOM      9  C   UNL     1       5.426   5.601  17.048  0.00  0.00    +0.000 A 
ATOM     10  C   UNL     1       4.669   4.599  16.423  0.00  0.00    +0.000 A 
ATOM     11  C   UNL     1       4.231   3.499  17.166  0.00  0.00    +0.000 A 
BRANCH   9  12
ATOM     12  N   UNL     1       5.835   6.789  16.285  0.00  0.00    +0.000 N 
ATOM     13  O   UNL     1       5.177   7.079  15.276  0.00  0.00    +0.000 OA
ATOM     14  O   UNL     1       6.820   7.423  16.688  0.00  0.00    +0.000 OA
ENDBRANCH   9  12
ENDBRANCH   3   6
ENDBRANCH   1   3
BRANCH   1  15
ATOM     15  C   UNL     1       2.023   3.892  19.624  0.00  0.00    +0.000 C 
BRANCH  15  16
ATOM     16  C   UNL     1       2.232   4.974  20.688  0.00  0.00    +0.000 C 
BRANCH  16  23
ATOM     17  C   UNL     1       0.447  12.043  19.604  0.00  0.00    +0.000 C 
ATOM     18  C   UNL     1       0.993  10.657  19.395  0.00  0.00    +0.000 A 
ATOM     19  C   UNL     1       1.666  10.369  18.135  0.00  0.00    +0.000 A 
ATOM     20  C   UNL     1       2.162   9.136  17.918  0.00  0.00    +0.000 A 
ATOM     21  N   UNL     1       2.017   8.166  18.904  0.00  0.00    +0.000 N 
ATOM     22  C   UNL     1       2.432   6.854  18.915  0.00  0.00    +0.000 A 
ATOM     23  C   UNL     1       2.037   6.344  20.134  0.00  0.00    +0.000 A 
ATOM     24  N   UNL     1       1.386   7.309  20.871  0.00  0.00    +0.000 NA
ATOM     25  C   UNL     1       1.384   8.392  20.120  0.00  0.00    +0.000 A 
ATOM     26  C   UNL     1       0.863   9.700  20.340  0.00  0.00    +0.000 A 
ENDBRANCH  16  23
ENDBRANCH  15  16
ENDBRANCH   1  15
TORSDOF 6
ENDMDL
MODEL 7
REMARK VINA RESULT:      -7.7      5.073      6.444
REMARK  Name = 
REMARK  7 active torsions:
REMARK  status: ('A' for Active; 'I' for Inactive)
REMARK    1  A    between atoms: C_1  and  C_2
REMARK    2  A    between atoms: C_7  and  C_8
REMARK    3  A    between atoms: C_8  and  C_9
REMARK    4  A    between atoms: C_9  and  N_10
REMARK    5  A    between atoms: N_10  and  S_11
REMARK    6  A    between atoms: S_11  and  C_14
REMARK    7  A    between atoms: C_17  and  N_18
REMARK                            x       y       z     vdW  Elec       q    Type
REMARK                         _______ _______ _______ _____ _____    ______ ____
ROOT
ATOM      1  N   UNL     1       6.373   6.211  16.146  0.00  0.00    +0.000 NA
ATOM      2  H   UNL     1       7.223   6.654  15.798  0.00  0.00    +0.000 HD
ENDROOT
BRANCH   1   3
ATOM      3  S   UNL     1       6.649   4.574  16.460  0.00  0.00    +0.000 S 
ATOM      4  O   UNL     1       6.558   3.900  15.183  0.00  0.00    +0.000 OA
ATOM      5  O   UNL     1       7.822   4.464  17.296  0.00  0.00    +0.000 OA
BRANCH   3   6
ATOM      6  C   UNL     1       5.219   4.104  17.404  0.00  0.00    +0.000 A 
ATOM      7  C   UNL     1       5.300   4.090  18.801  0.00  0.00    +0.000 A 
ATOM      8  C   UNL     1       4.189   3.701  19.555  0.00  0.00    +0.000 A 
ATOM      9  C   UNL     1       3.001   3.340  18.901  0.00  0.00    +0.000 A 
ATOM     10  C   UNL     1       2.908   3.400  17.502  0.00  0.00    +0.000 A 
ATOM     11  C   UNL     1       4.023   3.785  16.752  0.00  0.00    +0.000 A 
BRANCH   9  12
ATOM     12  N   UNL     1       1.850   2.875  19.689  0.00  0.00    +0.000 N 
ATOM     13  O   UNL     1       1.385   3.647  20.539  0.00  0.00    +0.000 OA
ATOM     14  O   UNL     1       1.421   1.735  19.464  0.00  0.00    +0.000 OA
ENDBRANCH   9  12
ENDBRANCH   3   6
ENDBRANCH   1   3
BRANCH   1  15
ATOM     15  C   UNL     1       5.568   6.962  17.135  0.00  0.00    +0.000 C 
BRANCH  15  16
ATOM     16  C   UNL     1       4.148   7.202  16.613  0.00  0.00    +0.000 C 
BRANCH  16  23
ATOM     17  C   UNL     1      -0.763  10.834  20.739  0.00  0.00    +0.000 C 
ATOM     18  C   UNL     1       0.235   9.810  20.273  0.00  0.00    +0.000 A 
ATOM     19  C   UNL     1       0.545   8.699  21.164  0.00  0.00    +0.000 A 
ATOM     20  C   UNL     1       1.436   7.769  20.775  0.00  0.00    +0.000 A 
ATOM     21  N   UNL     1       2.042   7.892  19.529  0.00  0.00    +0.000 N 
ATOM     22  C   UNL     1       2.971   7.081  18.919  0.00  0.00    +0.000 A 
ATOM     23  C   UNL     1       3.228   7.659  17.694  0.00  0.00    +0.000 A 
ATOM     24  N   UNL     1       2.484   8.808  17.538  0.00  0.00    +0.000 NA
ATOM     25  C   UNL     1       1.780   8.931  18.645  0.00  0.00    +0.000 A 
ATOM     26  C   UNL     1       0.834   9.911  19.065  0.00  0.00    +0.000 A 
ENDBRANCH  16  23
ENDBRANCH  15  16
ENDBRANCH   1  15
TORSDOF 6
ENDMDL
MODEL 8
REMARK VINA RESULT:      -7.6      5.877      8.004
REMARK  Name = 
REMARK  7 active torsions:
REMARK  status: ('A' for Active; 'I' for Inactive)
REMARK    1  A    between atoms: C_1  and  C_2
REMARK    2  A    between atoms: C_7  and  C_8
REMARK    3  A    between atoms: C_8  and  C_9
REMARK    4  A    between atoms: C_9  and  N_10
REMARK    5  A    between atoms: N_10  and  S_11
REMARK    6  A    between atoms: S_11  and  C_14
REMARK    7  A    between atoms: C_17  and  N_18
REMARK                            x       y       z     vdW  Elec       q    Type
REMARK                         _______ _______ _______ _____ _____    ______ ____
ROOT
ATOM      1  N   UNL     1       1.489   4.640  19.731  0.00  0.00    +0.000 NA
ATOM      2  H   UNL     1       1.001   4.944  18.888  0.00  0.00    +0.000 HD
ENDROOT
BRANCH   1   3
ATOM      3  S   UNL     1       2.418   3.267  19.410  0.00  0.00    +0.000 S 
ATOM      4  O   UNL     1       2.891   2.793  20.693  0.00  0.00    +0.000 OA
ATOM      5  O   UNL     1       1.673   2.414  18.512  0.00  0.00    +0.000 OA
BRANCH   3   6
ATOM      6  C   UNL     1       3.822   3.931  18.547  0.00  0.00    +0.000 A 
ATOM      7  C   UNL     1       3.724   4.173  17.172  0.00  0.00    +0.000 A 
ATOM      8  C   UNL     1       4.828   4.675  16.478  0.00  0.00    +0.000 A 
ATOM      9  C   UNL     1       6.020   4.941  17.170  0.00  0.00    +0.000 A 
ATOM     10  C   UNL     1       6.101   4.740  18.556  0.00  0.00    +0.000 A 
ATOM     11  C   UNL     1       4.996   4.234  19.247  0.00  0.00    +0.000 A 
BRANCH   9  12
ATOM     12  N   UNL     1       7.200   5.413  16.431  0.00  0.00    +0.000 N 
ATOM     13  O   UNL     1       7.804   4.592  15.728  0.00  0.00    +0.000 OA
ATOM     14  O   UNL     1       7.527   6.600  16.566  0.00  0.00    +0.000 OA
ENDBRANCH   9  12
ENDBRANCH   3   6
ENDBRANCH   1   3
BRANCH   1  15
ATOM     15  C   UNL     1       2.100   5.686  20.580  0.00  0.00    +0.000 C 
BRANCH  15  16
ATOM     16  C   UNL     1       2.208   7.011  19.819  0.00  0.00    +0.000 C 
BRANCH  16  23
ATOM     17  C   UNL     1      -1.542  13.164  21.376  0.00  0.00    +0.000 C 
ATOM     18  C   UNL     1      -0.889  11.816  21.506  0.00  0.00    +0.000 A 
ATOM     19  C   UNL     1      -0.984  11.128  22.787  0.00  0.00    +0.000 A 
ATOM     20  C   UNL     1      -0.406   9.922  22.934  0.00  0.00    +0.000 A 
ATOM     21  N   UNL     1       0.271   9.360  21.857  0.00  0.00    +0.000 N 
ATOM     22  C   UNL     1       0.933   8.158  21.764  0.00  0.00    +0.000 A 
ATOM     23  C   UNL     1       1.420   8.095  20.475  0.00  0.00    +0.000 A 
ATOM     24  N   UNL     1       1.077   9.230  19.775  0.00  0.00    +0.000 NA
ATOM     25  C   UNL     1       0.390   9.976  20.617  0.00  0.00    +0.000 A 
ATOM     26  C   UNL     1      -0.226  11.252  20.471  0.00  0.00    +0.000 A 
ENDBRANCH  16  23
ENDBRANCH  15  16
ENDBRANCH   1  15
TORSDOF 6
ENDMDL
MODEL 9
REMARK VINA RESULT:      -7.6      5.900      8.042
REMARK  Name = 
REMARK  7 active torsions:
REMARK  status: ('A' for Active; 'I' for Inactive)
REMARK    1  A    between atoms: C_1  and  C_2
REMARK    2  A    between atoms: C_7  and  C_8
REMARK    3  A    between atoms: C_8  and  C_9
REMARK    4  A    between atoms: C_9  and  N_10
REMARK    5  A    between atoms: N_10  and  S_11
REMARK    6  A    between atoms: S_11  and  C_14
REMARK    7  A    between atoms: C_17  and  N_18
REMARK                            x       y       z     vdW  Elec       q    Type
REMARK                         _______ _______ _______ _____ _____    ______ ____
ROOT
ATOM      1  N   UNL     1       1.751   4.639  19.795  0.00  0.00    +0.000 NA
ATOM      2  H   UNL     1       1.104   4.855  19.036  0.00  0.00    +0.000 HD
ENDROOT
BRANCH   1   3
ATOM      3  S   UNL     1       2.631   3.243  19.439  0.00  0.00    +0.000 S 
ATOM      4  O   UNL     1       3.198   2.794  20.692  0.00  0.00    +0.000 OA
ATOM      5  O   UNL     1       1.804   2.379  18.627  0.00  0.00    +0.000 OA
BRANCH   3   6
ATOM      6  C   UNL     1       3.971   3.859  18.448  0.00  0.00    +0.000 A 
ATOM      7  C   UNL     1       5.171   4.217  19.072  0.00  0.00    +0.000 A 
ATOM      8  C   UNL     1       6.225   4.724  18.307  0.00  0.00    +0.000 A 
ATOM      9  C   UNL     1       6.070   4.858  16.918  0.00  0.00    +0.000 A 
ATOM     10  C   UNL     1       4.882   4.455  16.289  0.00  0.00    +0.000 A 
ATOM     11  C   UNL     1       3.829   3.953  17.059  0.00  0.00    +0.000 A 
BRANCH   9  12
ATOM     12  N   UNL     1       7.156   5.445  16.119  0.00  0.00    +0.000 N 
ATOM     13  O   UNL     1       7.538   6.585  16.418  0.00  0.00    +0.000 OA
ATOM     14  O   UNL     1       7.615   4.771  15.187  0.00  0.00    +0.000 OA
ENDBRANCH   9  12
ENDBRANCH   3   6
ENDBRANCH   1   3
BRANCH   1  15
ATOM     15  C   UNL     1       2.491   5.768  20.402  0.00  0.00    +0.000 C 
BRANCH  15  16
ATOM     16  C   UNL     1       2.276   7.055  19.600  0.00  0.00    +0.000 C 
BRANCH  16  23
ATOM     17  C   UNL     1      -1.588  12.951  21.752  0.00  0.00    +0.000 C 
ATOM     18  C   UNL     1      -0.898  11.616  21.754  0.00  0.00    +0.000 A 
ATOM     19  C   UNL     1      -0.944  10.821  22.975  0.00  0.00    +0.000 A 
ATOM     20  C   UNL     1      -0.333   9.623  23.007  0.00  0.00    +0.000 A 
ATOM     21  N   UNL     1       0.332   9.172  21.871  0.00  0.00    +0.000 N 
ATOM     22  C   UNL     1       1.021   8.000  21.663  0.00  0.00    +0.000 A 
ATOM     23  C   UNL     1       1.478   8.058  20.362  0.00  0.00    +0.000 A 
ATOM     24  N   UNL     1       1.089   9.238  19.768  0.00  0.00    +0.000 NA
ATOM     25  C   UNL     1       0.404   9.892  20.685  0.00  0.00    +0.000 A 
ATOM     26  C   UNL     1      -0.247  11.159  20.661  0.00  0.00    +0.000 A 
ENDBRANCH  16  23
ENDBRANCH  15  16
ENDBRANCH   1  15
TORSDOF 6
ENDMDL
