MODEL 1
REMARK VINA RESULT:      -7.8      0.000      0.000
REMARK  Name = 
REMARK  10 active torsions:
REMARK  status: ('A' for Active; 'I' for Inactive)
REMARK    1  A    between atoms: C_1  and  O_2
REMARK    2  A    between atoms: O_2  and  C_3
REMARK    3  A    between atoms: C_6  and  N_7
REMARK    4  A    between atoms: C_8  and  C_9
REMARK    5  A    between atoms: C_8  and  C_15
REMARK    6  A    between atoms: C_16  and  C_17
REMARK    7  A    between atoms: N_19  and  C_20
REMARK    8  A    between atoms: C_26  and  O_27
REMARK    9  A    between atoms: C_28  and  O_29
REMARK   10  A    between atoms: O_29  and  C_30
REMARK                            x       y       z     vdW  Elec       q    Type
REMARK                         _______ _______ _______ _____ _____    ______ ____
ROOT
ATOM      1  N   UNL     1       4.194   6.361  17.144  0.00  0.00    +0.000 NA
ATOM      2  C   UNL     1       3.436   5.781  18.030  0.00  0.00    +0.000 C 
ENDROOT
BRANCH   1   6
ATOM      3  C   UNL     1       6.929   4.744  14.323  0.00  0.00    +0.000 A 
ATOM      4  C   UNL     1       5.583   4.406  14.262  0.00  0.00    +0.000 A 
ATOM      5  C   UNL     1       4.681   4.872  15.226  0.00  0.00    +0.000 A 
ATOM      6  C   UNL     1       5.083   5.762  16.228  0.00  0.00    +0.000 A 
ATOM      7  C   UNL     1       6.468   6.024  16.328  0.00  0.00    +0.000 A 
ATOM      8  C   UNL     1       7.375   5.555  15.362  0.00  0.00    +0.000 A 
BRANCH   3  10
ATOM      9  C   UNL     1       7.006   3.849  12.148  0.00  0.00    +0.000 C 
ATOM     10  O   UNL     1       7.714   4.250  13.318  0.00  0.00    +0.000 OA
ENDBRANCH   3  10
BRANCH   7  11
ATOM     11  O   UNL     1       7.056   6.768  17.328  0.00  0.00    +0.000 OA
ATOM     12  C   UNL     1       7.557   5.963  18.397  0.00  0.00    +0.000 C 
ENDBRANCH   7  11
ENDBRANCH   1   6
BRANCH   2  13
ATOM     13  C   UNL     1       3.317   4.320  18.320  0.00  0.00    +0.000 A 
ATOM     14  C   UNL     1       2.241   3.601  17.769  0.00  0.00    +0.000 A 
ATOM     15  C   UNL     1       2.170   2.217  17.918  0.00  0.00    +0.000 A 
ATOM     16  C   UNL     1       3.125   1.555  18.686  0.00  0.00    +0.000 A 
ATOM     17  C   UNL     1       4.162   2.270  19.287  0.00  0.00    +0.000 A 
ATOM     18  C   UNL     1       4.281   3.645  19.076  0.00  0.00    +0.000 A 
ENDBRANCH   2  13
BRANCH   2  19
ATOM     19  C   UNL     1       2.598   6.680  18.855  0.00  0.00    +0.000 A 
ATOM     20  C   UNL     1       2.049   6.508  20.170  0.00  0.00    +0.000 A 
ATOM     21  C   UNL     1       2.028   5.335  21.088  0.00  0.00    +0.000 C 
ATOM     22  N   UNL     1       1.504   7.637  20.635  0.00  0.00    +0.000 NA
ATOM     23  N   UNL     1       1.495   8.481  19.583  0.00  0.00    +0.000 N 
ATOM     24  C   UNL     1       2.222   7.974  18.509  0.00  0.00    +0.000 A 
BRANCH  23  25
ATOM     25  C   UNL     1       0.839   9.738  19.696  0.00  0.00    +0.000 A 
ATOM     26  C   UNL     1       0.988  10.488  20.872  0.00  0.00    +0.000 A 
ATOM     27  C   UNL     1       0.416  11.759  20.964  0.00  0.00    +0.000 A 
ATOM     28  C   UNL     1      -0.336  12.265  19.904  0.00  0.00    +0.000 A 
ATOM     29  C   UNL     1      -0.534  11.497  18.757  0.00  0.00    +0.000 A 
ATOM     30  C   UNL     1       0.050  10.234  18.650  0.00  0.00    +0.000 A 
ENDBRANCH  23  25
BRANCH  24  31
ATOM     31  O   UNL     1       2.546   8.686  17.424  0.00  0.00    +0.000 OA
ATOM     32  H   UNL     1       2.976   9.515  17.695  0.00  0.00    +0.000 HD
ENDBRANCH  24  31
ENDBRANCH   2  19
TORSDOF 7
ENDMDL
MODEL 2
REMARK VINA RESULT:      -7.7      0.675      1.380
REMARK  Name = 
REMARK  10 active torsions:
REMARK  status: ('A' for Active; 'I' for Inactive)
REMARK    1  A    between atoms: C_1  and  O_2
REMARK    2  A    between atoms: O_2  and  C_3
REMARK    3  A    between atoms: C_6  and  N_7
REMARK    4  A    between atoms: C_8  and  C_9
REMARK    5  A    between atoms: C_8  and  C_15
REMARK    6  A    between atoms: C_16  and  C_17
REMARK    7  A    between atoms: N_19  and  C_20
REMARK    8  A    between atoms: C_26  and  O_27
REMARK    9  A    between atoms: C_28  and  O_29
REMARK   10  A    between atoms: O_29  and  C_30
REMARK                            x       y       z     vdW  Elec       q    Type
REMARK                         _______ _______ _______ _____ _____    ______ ____
ROOT
ATOM      1  N   UNL     1       4.181   6.767  17.402  0.00  0.00    +0.000 NA
ATOM      2  C   UNL     1       3.286   6.192  18.154  0.00  0.00    +0.000 C 
ENDROOT
BRANCH   1   6
ATOM      3  C   UNL     1       7.145   5.118  14.842  0.00  0.00    +0.000 A 
ATOM      4  C   UNL     1       5.800   4.994  14.522  0.00  0.00    +0.000 A 
ATOM      5  C   UNL     1       4.808   5.467  15.388  0.00  0.00    +0.000 A 
ATOM      6  C   UNL     1       5.135   6.158  16.560  0.00  0.00    +0.000 A 
ATOM      7  C   UNL     1       6.503   6.196  16.915  0.00  0.00    +0.000 A 
ATOM      8  C   UNL     1       7.500   5.719  16.046  0.00  0.00    +0.000 A 
BRANCH   3  10
ATOM      9  C   UNL     1       7.924   5.240  12.626  0.00  0.00    +0.000 C 
ATOM     10  O   UNL     1       8.027   4.638  13.913  0.00  0.00    +0.000 OA
ENDBRANCH   3  10
BRANCH   7  11
ATOM     11  O   UNL     1       6.994   6.717  18.092  0.00  0.00    +0.000 OA
ATOM     12  C   UNL     1       7.472   5.710  18.987  0.00  0.00    +0.000 C 
ENDBRANCH   7  11
ENDBRANCH   1   6
BRANCH   2  13
ATOM     13  C   UNL     1       3.042   4.730  18.335  0.00  0.00    +0.000 A 
ATOM     14  C   UNL     1       3.998   3.960  19.023  0.00  0.00    +0.000 A 
ATOM     15  C   UNL     1       3.742   2.621  19.316  0.00  0.00    +0.000 A 
ATOM     16  C   UNL     1       2.573   2.023  18.853  0.00  0.00    +0.000 A 
ATOM     17  C   UNL     1       1.648   2.765  18.117  0.00  0.00    +0.000 A 
ATOM     18  C   UNL     1       1.863   4.126  17.888  0.00  0.00    +0.000 A 
ENDBRANCH   2  13
BRANCH   2  19
ATOM     19  C   UNL     1       2.413   7.101  18.930  0.00  0.00    +0.000 A 
ATOM     20  C   UNL     1       1.839   6.961  20.238  0.00  0.00    +0.000 A 
ATOM     21  C   UNL     1       1.820   5.819  21.194  0.00  0.00    +0.000 C 
ATOM     22  N   UNL     1       1.262   8.094  20.654  0.00  0.00    +0.000 NA
ATOM     23  N   UNL     1       1.259   8.902  19.575  0.00  0.00    +0.000 N 
ATOM     24  C   UNL     1       2.020   8.375  18.533  0.00  0.00    +0.000 A 
BRANCH  23  25
ATOM     25  C   UNL     1       0.576  10.149  19.631  0.00  0.00    +0.000 A 
ATOM     26  C   UNL     1      -0.532  10.365  18.799  0.00  0.00    +0.000 A 
ATOM     27  C   UNL     1      -1.259  11.552  18.902  0.00  0.00    +0.000 A 
ATOM     28  C   UNL     1      -0.860  12.540  19.803  0.00  0.00    +0.000 A 
ATOM     29  C   UNL     1       0.276  12.352  20.589  0.00  0.00    +0.000 A 
ATOM     30  C   UNL     1       0.996  11.159  20.506  0.00  0.00    +0.000 A 
ENDBRANCH  23  25
BRANCH  24  31
ATOM     31  O   UNL     1       2.354   9.057  17.433  0.00  0.00    +0.000 OA
ATOM     32  H   UNL     1       1.787   8.781  16.693  0.00  0.00    +0.000 HD
ENDBRANCH  24  31
ENDBRANCH   2  19
TORSDOF 7
ENDMDL
MODEL 3
REMARK VINA RESULT:      -7.7      1.142      1.510
REMARK  Name = 
REMARK  10 active torsions:
REMARK  status: ('A' for Active; 'I' for Inactive)
REMARK    1  A    between atoms: C_1  and  O_2
REMARK    2  A    between atoms: O_2  and  C_3
REMARK    3  A    between atoms: C_6  and  N_7
REMARK    4  A    between atoms: C_8  and  C_9
REMARK    5  A    between atoms: C_8  and  C_15
REMARK    6  A    between atoms: C_16  and  C_17
REMARK    7  A    between atoms: N_19  and  C_20
REMARK    8  A    between atoms: C_26  and  O_27
REMARK    9  A    between atoms: C_28  and  O_29
REMARK   10  A    between atoms: O_29  and  C_30
REMARK                            x       y       z     vdW  Elec       q    Type
REMARK                         _______ _______ _______ _____ _____    ______ ____
ROOT
ATOM      1  N   UNL     1       4.016   7.168  17.450  0.00  0.00    +0.000 NA
ATOM      2  C   UNL     1       3.076   6.667  18.200  0.00  0.00    +0.000 C 
ENDROOT
BRANCH   1   6
ATOM      3  C   UNL     1       7.073   5.257  15.201  0.00  0.00    +0.000 A 
ATOM      4  C   UNL     1       5.852   5.552  14.608  0.00  0.00    +0.000 A 
ATOM      5  C   UNL     1       4.809   6.115  15.353  0.00  0.00    +0.000 A 
ATOM      6  C   UNL     1       4.987   6.482  16.691  0.00  0.00    +0.000 A 
ATOM      7  C   UNL     1       6.202   6.095  17.301  0.00  0.00    +0.000 A 
ATOM      8  C   UNL     1       7.249   5.527  16.555  0.00  0.00    +0.000 A 
BRANCH   3  10
ATOM      9  C   UNL     1       7.924   5.131  13.011  0.00  0.00    +0.000 C 
ATOM     10  O   UNL     1       8.025   4.728  14.374  0.00  0.00    +0.000 OA
ENDBRANCH   3  10
BRANCH   7  11
ATOM     11  O   UNL     1       6.495   6.256  18.637  0.00  0.00    +0.000 OA
ATOM     12  C   UNL     1       7.833   5.872  18.962  0.00  0.00    +0.000 C 
ENDBRANCH   7  11
ENDBRANCH   1   6
BRANCH   2  13
ATOM     13  C   UNL     1       2.786   5.226  18.466  0.00  0.00    +0.000 A 
ATOM     14  C   UNL     1       3.593   4.527  19.383  0.00  0.00    +0.000 A 
ATOM     15  C   UNL     1       3.273   3.220  19.746  0.00  0.00    +0.000 A 
ATOM     16  C   UNL     1       2.199   2.576  19.135  0.00  0.00    +0.000 A 
ATOM     17  C   UNL     1       1.431   3.242  18.180  0.00  0.00    +0.000 A 
ATOM     18  C   UNL     1       1.700   4.577  17.870  0.00  0.00    +0.000 A 
ENDBRANCH   2  13
BRANCH   2  19
ATOM     19  C   UNL     1       2.196   7.646  18.877  0.00  0.00    +0.000 A 
ATOM     20  C   UNL     1       1.571   7.610  20.168  0.00  0.00    +0.000 A 
ATOM     21  C   UNL     1       1.490   6.539  21.200  0.00  0.00    +0.000 C 
ATOM     22  N   UNL     1       1.006   8.781  20.482  0.00  0.00    +0.000 NA
ATOM     23  N   UNL     1       1.062   9.512  19.350  0.00  0.00    +0.000 N 
ATOM     24  C   UNL     1       1.849   8.897  18.378  0.00  0.00    +0.000 A 
BRANCH  23  25
ATOM     25  C   UNL     1       0.408  10.774  19.293  0.00  0.00    +0.000 A 
ATOM     26  C   UNL     1       1.047  11.904  19.823  0.00  0.00    +0.000 A 
ATOM     27  C   UNL     1       0.452  13.161  19.703  0.00  0.00    +0.000 A 
ATOM     28  C   UNL     1      -0.796  13.287  19.091  0.00  0.00    +0.000 A 
ATOM     29  C   UNL     1      -1.460  12.157  18.616  0.00  0.00    +0.000 A 
ATOM     30  C   UNL     1      -0.862  10.899  18.716  0.00  0.00    +0.000 A 
ENDBRANCH  23  25
BRANCH  24  31
ATOM     31  O   UNL     1       2.239   9.493  17.246  0.00  0.00    +0.000 OA
ATOM     32  H   UNL     1       2.793  10.264  17.458  0.00  0.00    +0.000 HD
ENDBRANCH  24  31
ENDBRANCH   2  19
TORSDOF 7
ENDMDL
MODEL 4
REMARK VINA RESULT:      -7.4      1.982      7.631
REMARK  Name = 
REMARK  10 active torsions:
REMARK  status: ('A' for Active; 'I' for Inactive)
REMARK    1  A    between atoms: C_1  and  O_2
REMARK    2  A    between atoms: O_2  and  C_3
REMARK    3  A    between atoms: C_6  and  N_7
REMARK    4  A    between atoms: C_8  and  C_9
REMARK    5  A    between atoms: C_8  and  C_15
REMARK    6  A    between atoms: C_16  and  C_17
REMARK    7  A    between atoms: N_19  and  C_20
REMARK    8  A    between atoms: C_26  and  O_27
REMARK    9  A    between atoms: C_28  and  O_29
REMARK   10  A    between atoms: O_29  and  C_30
REMARK                            x       y       z     vdW  Elec       q    Type
REMARK                         _______ _______ _______ _____ _____    ______ ____
ROOT
ATOM      1  N   UNL     1       2.869   6.684  18.539  0.00  0.00    +0.000 NA
ATOM      2  C   UNL     1       2.980   5.391  18.654  0.00  0.00    +0.000 C 
ENDROOT
BRANCH   1   6
ATOM      3  C   UNL     1       0.822   9.493  20.984  0.00  0.00    +0.000 A 
ATOM      4  C   UNL     1       1.044   8.201  21.442  0.00  0.00    +0.000 A 
ATOM      5  C   UNL     1       1.652   7.242  20.623  0.00  0.00    +0.000 A 
ATOM      6  C   UNL     1       2.136   7.573  19.352  0.00  0.00    +0.000 A 
ATOM      7  C   UNL     1       1.823   8.864  18.869  0.00  0.00    +0.000 A 
ATOM      8  C   UNL     1       1.210   9.826  19.689  0.00  0.00    +0.000 A 
BRANCH   3  10
ATOM      9  C   UNL     1      -0.260   9.734  23.059  0.00  0.00    +0.000 C 
ATOM     10  O   UNL     1       0.240  10.350  21.875  0.00  0.00    +0.000 OA
ENDBRANCH   3  10
BRANCH   7  11
ATOM     11  O   UNL     1       2.104   9.314  17.597  0.00  0.00    +0.000 OA
ATOM     12  C   UNL     1       2.313  10.727  17.543  0.00  0.00    +0.000 C 
ENDBRANCH   7  11
ENDBRANCH   1   6
BRANCH   2  13
ATOM     13  C   UNL     1       2.347   4.503  19.675  0.00  0.00    +0.000 A 
ATOM     14  C   UNL     1       1.110   3.899  19.379  0.00  0.00    +0.000 A 
ATOM     15  C   UNL     1       0.555   2.970  20.257  0.00  0.00    +0.000 A 
ATOM     16  C   UNL     1       1.185   2.702  21.470  0.00  0.00    +0.000 A 
ATOM     17  C   UNL     1       2.380   3.344  21.798  0.00  0.00    +0.000 A 
ATOM     18  C   UNL     1       2.981   4.216  20.887  0.00  0.00    +0.000 A 
ENDBRANCH   2  13
BRANCH   2  19
ATOM     19  C   UNL     1       3.829   4.722  17.643  0.00  0.00    +0.000 A 
ATOM     20  C   UNL     1       4.099   3.330  17.417  0.00  0.00    +0.000 A 
ATOM     21  C   UNL     1       3.725   2.111  18.187  0.00  0.00    +0.000 C 
ATOM     22  N   UNL     1       4.774   3.131  16.279  0.00  0.00    +0.000 NA
ATOM     23  N   UNL     1       5.133   4.363  15.865  0.00  0.00    +0.000 N 
ATOM     24  C   UNL     1       4.512   5.360  16.614  0.00  0.00    +0.000 A 
BRANCH  23  25
ATOM     25  C   UNL     1       6.001   4.503  14.747  0.00  0.00    +0.000 A 
ATOM     26  C   UNL     1       5.717   3.805  13.564  0.00  0.00    +0.000 A 
ATOM     27  C   UNL     1       6.515   3.996  12.434  0.00  0.00    +0.000 A 
ATOM     28  C   UNL     1       7.616   4.850  12.493  0.00  0.00    +0.000 A 
ATOM     29  C   UNL     1       7.934   5.501  13.684  0.00  0.00    +0.000 A 
ATOM     30  C   UNL     1       7.130   5.330  14.812  0.00  0.00    +0.000 A 
ENDBRANCH  23  25
BRANCH  24  31
ATOM     31  O   UNL     1       4.529   6.657  16.289  0.00  0.00    +0.000 OA
ATOM     32  H   UNL     1       5.341   7.069  16.630  0.00  0.00    +0.000 HD
ENDBRANCH  24  31
ENDBRANCH   2  19
TORSDOF 7
ENDMDL
MODEL 5
REMARK VINA RESULT:      -7.4      3.091      9.445
REMARK  Name = 
REMARK  10 active torsions:
REMARK  status: ('A' for Active; 'I' for Inactive)
REMARK    1  A    between atoms: C_1  and  O_2
REMARK    2  A    between atoms: O_2  and  C_3
REMARK    3  A    between atoms: C_6  and  N_7
REMARK    4  A    between atoms: C_8  and  C_9
REMARK    5  A    between atoms: C_8  and  C_15
REMARK    6  A    between atoms: C_16  and  C_17
REMARK    7  A    between atoms: N_19  and  C_20
REMARK    8  A    between atoms: C_26  and  O_27
REMARK    9  A    between atoms: C_28  and  O_29
REMARK   10  A    between atoms: O_29  and  C_30
REMARK                            x       y       z     vdW  Elec       q    Type
REMARK                         _______ _______ _______ _____ _____    ______ ____
ROOT
ATOM      1  N   UNL     1       0.956  12.011  19.752  0.00  0.00    +0.000 NA
ATOM      2  C   UNL     1       0.297  10.958  19.360  0.00  0.00    +0.000 C 
ENDROOT
BRANCH   1   6
ATOM      3  C   UNL     1      -0.530  15.989  19.902  0.00  0.00    +0.000 A 
ATOM      4  C   UNL     1      -0.070  15.461  18.703  0.00  0.00    +0.000 A 
ATOM      5  C   UNL     1       0.489  14.179  18.649  0.00  0.00    +0.000 A 
ATOM      6  C   UNL     1       0.524  13.353  19.778  0.00  0.00    +0.000 A 
ATOM      7  C   UNL     1       0.135  13.936  21.005  0.00  0.00    +0.000 A 
ATOM      8  C   UNL     1      -0.425  15.224  21.060  0.00  0.00    +0.000 A 
BRANCH   3  10
ATOM      9  C   UNL     1      -1.249  17.745  18.512  0.00  0.00    +0.000 C 
ATOM     10  O   UNL     1      -1.075  17.241  19.833  0.00  0.00    +0.000 OA
ENDBRANCH   3  10
BRANCH   7  11
ATOM     11  O   UNL     1       0.227  13.317  22.232  0.00  0.00    +0.000 OA
ATOM     12  C   UNL     1      -1.050  12.999  22.791  0.00  0.00    +0.000 C 
ENDBRANCH   7  11
ENDBRANCH   1   6
BRANCH   2  13
ATOM     13  C   UNL     1      -1.095  10.897  18.819  0.00  0.00    +0.000 A 
ATOM     14  C   UNL     1      -2.092  11.692  19.413  0.00  0.00    +0.000 A 
ATOM     15  C   UNL     1      -3.368  11.751  18.855  0.00  0.00    +0.000 A 
ATOM     16  C   UNL     1      -3.680  10.955  17.756  0.00  0.00    +0.000 A 
ATOM     17  C   UNL     1      -2.713  10.117  17.199  0.00  0.00    +0.000 A 
ATOM     18  C   UNL     1      -1.411  10.113  17.705  0.00  0.00    +0.000 A 
ENDBRANCH   2  13
BRANCH   2  19
ATOM     19  C   UNL     1       1.018   9.669  19.453  0.00  0.00    +0.000 A 
ATOM     20  C   UNL     1       1.163   8.752  20.547  0.00  0.00    +0.000 A 
ATOM     21  C   UNL     1       0.752   8.842  21.976  0.00  0.00    +0.000 C 
ATOM     22  N   UNL     1       1.739   7.606  20.165  0.00  0.00    +0.000 NA
ATOM     23  N   UNL     1       2.162   7.830  18.904  0.00  0.00    +0.000 N 
ATOM     24  C   UNL     1       1.674   9.035  18.403  0.00  0.00    +0.000 A 
BRANCH  23  25
ATOM     25  C   UNL     1       2.956   6.852  18.245  0.00  0.00    +0.000 A 
ATOM     26  C   UNL     1       4.170   7.235  17.656  0.00  0.00    +0.000 A 
ATOM     27  C   UNL     1       4.998   6.271  17.077  0.00  0.00    +0.000 A 
ATOM     28  C   UNL     1       4.599   4.934  17.047  0.00  0.00    +0.000 A 
ATOM     29  C   UNL     1       3.366   4.560  17.579  0.00  0.00    +0.000 A 
ATOM     30  C   UNL     1       2.542   5.515  18.178  0.00  0.00    +0.000 A 
ENDBRANCH  23  25
BRANCH  24  31
ATOM     31  O   UNL     1       1.767   9.403  17.121  0.00  0.00    +0.000 OA
ATOM     32  H   UNL     1       2.112  10.310  17.065  0.00  0.00    +0.000 HD
ENDBRANCH  24  31
ENDBRANCH   2  19
TORSDOF 7
ENDMDL
MODEL 6
REMARK VINA RESULT:      -7.4      2.976      9.266
REMARK  Name = 
REMARK  10 active torsions:
REMARK  status: ('A' for Active; 'I' for Inactive)
REMARK    1  A    between atoms: C_1  and  O_2
REMARK    2  A    between atoms: O_2  and  C_3
REMARK    3  A    between atoms: C_6  and  N_7
REMARK    4  A    between atoms: C_8  and  C_9
REMARK    5  A    between atoms: C_8  and  C_15
REMARK    6  A    between atoms: C_16  and  C_17
REMARK    7  A    between atoms: N_19  and  C_20
REMARK    8  A    between atoms: C_26  and  O_27
REMARK    9  A    between atoms: C_28  and  O_29
REMARK   10  A    between atoms: O_29  and  C_30
REMARK                            x       y       z     vdW  Elec       q    Type
REMARK                         _______ _______ _______ _____ _____    ______ ____
ROOT
ATOM      1  N   UNL     1       1.398  11.788  19.726  0.00  0.00    +0.000 NA
ATOM      2  C   UNL     1       0.645  10.789  19.364  0.00  0.00    +0.000 C 
ENDROOT
BRANCH   1   6
ATOM      3  C   UNL     1       0.254  15.880  19.768  0.00  0.00    +0.000 A 
ATOM      4  C   UNL     1       0.882  15.343  18.652  0.00  0.00    +0.000 A 
ATOM      5  C   UNL     1       1.330  14.017  18.648  0.00  0.00    +0.000 A 
ATOM      6  C   UNL     1       1.084  13.163  19.729  0.00  0.00    +0.000 A 
ATOM      7  C   UNL     1       0.525  13.748  20.887  0.00  0.00    +0.000 A 
ATOM      8  C   UNL     1       0.076  15.080  20.893  0.00  0.00    +0.000 A 
BRANCH   3  10
ATOM      9  C   UNL     1      -0.986  17.444  18.522  0.00  0.00    +0.000 C 
ATOM     10  O   UNL     1      -0.160  17.178  19.653  0.00  0.00    +0.000 OA
ENDBRANCH   3  10
BRANCH   7  11
ATOM     11  O   UNL     1       0.334  13.092  22.084  0.00  0.00    +0.000 OA
ATOM     12  C   UNL     1      -0.906  13.428  22.710  0.00  0.00    +0.000 C 
ENDBRANCH   7  11
ENDBRANCH   1   6
BRANCH   2  13
ATOM     13  C   UNL     1      -0.753  10.838  18.841  0.00  0.00    +0.000 A 
ATOM     14  C   UNL     1      -1.707  11.620  19.518  0.00  0.00    +0.000 A 
ATOM     15  C   UNL     1      -2.985  11.785  18.987  0.00  0.00    +0.000 A 
ATOM     16  C   UNL     1      -3.345  11.105  17.825  0.00  0.00    +0.000 A 
ATOM     17  C   UNL     1      -2.423  10.279  17.181  0.00  0.00    +0.000 A 
ATOM     18  C   UNL     1      -1.117  10.172  17.666  0.00  0.00    +0.000 A 
ENDBRANCH   2  13
BRANCH   2  19
ATOM     19  C   UNL     1       1.253   9.444  19.477  0.00  0.00    +0.000 A 
ATOM     20  C   UNL     1       1.299   8.524  20.577  0.00  0.00    +0.000 A 
ATOM     21  C   UNL     1       0.869   8.656  21.997  0.00  0.00    +0.000 C 
ATOM     22  N   UNL     1       1.783   7.332  20.211  0.00  0.00    +0.000 NA
ATOM     23  N   UNL     1       2.248   7.512  18.958  0.00  0.00    +0.000 N 
ATOM     24  C   UNL     1       1.873   8.751  18.442  0.00  0.00    +0.000 A 
BRANCH  23  25
ATOM     25  C   UNL     1       2.969   6.467  18.318  0.00  0.00    +0.000 A 
ATOM     26  C   UNL     1       2.399   5.188  18.235  0.00  0.00    +0.000 A 
ATOM     27  C   UNL     1       3.061   4.174  17.540  0.00  0.00    +0.000 A 
ATOM     28  C   UNL     1       4.307   4.421  16.963  0.00  0.00    +0.000 A 
ATOM     29  C   UNL     1       4.902   5.675  17.094  0.00  0.00    +0.000 A 
ATOM     30  C   UNL     1       4.237   6.699  17.771  0.00  0.00    +0.000 A 
ENDBRANCH  23  25
BRANCH  24  31
ATOM     31  O   UNL     1       2.022   9.103  17.161  0.00  0.00    +0.000 OA
ATOM     32  H   UNL     1       2.944   9.366  16.999  0.00  0.00    +0.000 HD
ENDBRANCH  24  31
ENDBRANCH   2  19
TORSDOF 7
ENDMDL
MODEL 7
REMARK VINA RESULT:      -7.2      3.017      9.063
REMARK  Name = 
REMARK  10 active torsions:
REMARK  status: ('A' for Active; 'I' for Inactive)
REMARK    1  A    between atoms: C_1  and  O_2
REMARK    2  A    between atoms: O_2  and  C_3
REMARK    3  A    between atoms: C_6  and  N_7
REMARK    4  A    between atoms: C_8  and  C_9
REMARK    5  A    between atoms: C_8  and  C_15
REMARK    6  A    between atoms: C_16  and  C_17
REMARK    7  A    between atoms: N_19  and  C_20
REMARK    8  A    between atoms: C_26  and  O_27
REMARK    9  A    between atoms: C_28  and  O_29
REMARK   10  A    between atoms: O_29  and  C_30
REMARK                            x       y       z     vdW  Elec       q    Type
REMARK                         _______ _______ _______ _____ _____    ______ ____
ROOT
ATOM      1  N   UNL     1       1.507  11.624  19.768  0.00  0.00    +0.000 NA
ATOM      2  C   UNL     1       0.716  10.646  19.431  0.00  0.00    +0.000 C 
ENDROOT
BRANCH   1   6
ATOM      3  C   UNL     1       0.629  15.769  19.445  0.00  0.00    +0.000 A 
ATOM      4  C   UNL     1       1.173  15.085  18.366  0.00  0.00    +0.000 A 
ATOM      5  C   UNL     1       1.535  13.738  18.477  0.00  0.00    +0.000 A 
ATOM      6  C   UNL     1       1.282  13.011  19.646  0.00  0.00    +0.000 A 
ATOM      7  C   UNL     1       0.811  13.742  20.760  0.00  0.00    +0.000 A 
ATOM      8  C   UNL     1       0.450  15.096  20.650  0.00  0.00    +0.000 A 
BRANCH   3  10
ATOM      9  C   UNL     1       1.118  17.746  18.266  0.00  0.00    +0.000 C 
ATOM     10  O   UNL     1       0.295  17.075  19.217  0.00  0.00    +0.000 OA
ENDBRANCH   3  10
BRANCH   7  11
ATOM     11  O   UNL     1       0.631  13.219  22.022  0.00  0.00    +0.000 OA
ATOM     12  C   UNL     1      -0.721  13.318  22.475  0.00  0.00    +0.000 C 
ENDBRANCH   7  11
ENDBRANCH   1   6
BRANCH   2  13
ATOM     13  C   UNL     1      -0.639  10.735  18.810  0.00  0.00    +0.000 A 
ATOM     14  C   UNL     1      -1.618  11.540  19.422  0.00  0.00    +0.000 A 
ATOM     15  C   UNL     1      -2.850  11.742  18.803  0.00  0.00    +0.000 A 
ATOM     16  C   UNL     1      -3.143  11.077  17.614  0.00  0.00    +0.000 A 
ATOM     17  C   UNL     1      -2.201  10.229  17.032  0.00  0.00    +0.000 A 
ATOM     18  C   UNL     1      -0.936  10.085  17.608  0.00  0.00    +0.000 A 
ENDBRANCH   2  13
BRANCH   2  19
ATOM     19  C   UNL     1       1.229   9.281  19.686  0.00  0.00    +0.000 A 
ATOM     20  C   UNL     1       1.119   8.438  20.842  0.00  0.00    +0.000 A 
ATOM     21  C   UNL     1       0.571   8.691  22.204  0.00  0.00    +0.000 C 
ATOM     22  N   UNL     1       1.560   7.198  20.600  0.00  0.00    +0.000 NA
ATOM     23  N   UNL     1       2.147   7.266  19.387  0.00  0.00    +0.000 N 
ATOM     24  C   UNL     1       1.897   8.485  18.761  0.00  0.00    +0.000 A 
BRANCH  23  25
ATOM     25  C   UNL     1       2.858   6.141  18.887  0.00  0.00    +0.000 A 
ATOM     26  C   UNL     1       4.180   5.923  19.302  0.00  0.00    +0.000 A 
ATOM     27  C   UNL     1       4.863   4.780  18.882  0.00  0.00    +0.000 A 
ATOM     28  C   UNL     1       4.244   3.875  18.018  0.00  0.00    +0.000 A 
ATOM     29  C   UNL     1       2.951   4.120  17.557  0.00  0.00    +0.000 A 
ATOM     30  C   UNL     1       2.256   5.251  17.989  0.00  0.00    +0.000 A 
ENDBRANCH  23  25
BRANCH  24  31
ATOM     31  O   UNL     1       2.182   8.738  17.480  0.00  0.00    +0.000 OA
ATOM     32  H   UNL     1       1.601   9.444  17.149  0.00  0.00    +0.000 HD
ENDBRANCH  24  31
ENDBRANCH   2  19
TORSDOF 7
ENDMDL
MODEL 8
REMARK VINA RESULT:      -7.1      3.237      9.408
REMARK  Name = 
REMARK  10 active torsions:
REMARK  status: ('A' for Active; 'I' for Inactive)
REMARK    1  A    between atoms: C_1  and  O_2
REMARK    2  A    between atoms: O_2  and  C_3
REMARK    3  A    between atoms: C_6  and  N_7
REMARK    4  A    between atoms: C_8  and  C_9
REMARK    5  A    between atoms: C_8  and  C_15
REMARK    6  A    between atoms: C_16  and  C_17
REMARK    7  A    between atoms: N_19  and  C_20
REMARK    8  A    between atoms: C_26  and  O_27
REMARK    9  A    between atoms: C_28  and  O_29
REMARK   10  A    between atoms: O_29  and  C_30
REMARK                            x       y       z     vdW  Elec       q    Type
REMARK                         _______ _______ _______ _____ _____    ______ ____
ROOT
ATOM      1  N   UNL     1       1.317  12.297  19.693  0.00  0.00    +0.000 NA
ATOM      2  C   UNL     1       0.491  11.307  19.504  0.00  0.00    +0.000 C 
ENDROOT
BRANCH   1   6
ATOM      3  C   UNL     1       0.377  16.439  19.823  0.00  0.00    +0.000 A 
ATOM      4  C   UNL     1       0.005  15.674  18.725  0.00  0.00    +0.000 A 
ATOM      5  C   UNL     1       0.369  14.325  18.633  0.00  0.00    +0.000 A 
ATOM      6  C   UNL     1       1.040  13.680  19.677  0.00  0.00    +0.000 A 
ATOM      7  C   UNL     1       1.488  14.492  20.744  0.00  0.00    +0.000 A 
ATOM      8  C   UNL     1       1.125  15.847  20.837  0.00  0.00    +0.000 A 
BRANCH   3  10
ATOM      9  C   UNL     1      -0.998  18.051  18.800  0.00  0.00    +0.000 C 
ATOM     10  O   UNL     1      -0.049  17.738  19.817  0.00  0.00    +0.000 OA
ENDBRANCH   3  10
BRANCH   7  11
ATOM     11  O   UNL     1       2.272  14.053  21.788  0.00  0.00    +0.000 OA
ATOM     12  C   UNL     1       3.636  14.460  21.667  0.00  0.00    +0.000 C 
ENDBRANCH   7  11
ENDBRANCH   1   6
BRANCH   2  13
ATOM     13  C   UNL     1      -0.971  11.377  19.208  0.00  0.00    +0.000 A 
ATOM     14  C   UNL     1      -1.825  12.006  20.133  0.00  0.00    +0.000 A 
ATOM     15  C   UNL     1      -3.172  12.197  19.830  0.00  0.00    +0.000 A 
ATOM     16  C   UNL     1      -3.692  11.687  18.642  0.00  0.00    +0.000 A 
ATOM     17  C   UNL     1      -2.864  11.008  17.747  0.00  0.00    +0.000 A 
ATOM     18  C   UNL     1      -1.498  10.883  18.011  0.00  0.00    +0.000 A 
ENDBRANCH   2  13
BRANCH   2  19
ATOM     19  C   UNL     1       1.077   9.950  19.585  0.00  0.00    +0.000 A 
ATOM     20  C   UNL     1       1.130   9.014  20.671  0.00  0.00    +0.000 A 
ATOM     21  C   UNL     1       0.734   9.133  22.102  0.00  0.00    +0.000 C 
ATOM     22  N   UNL     1       1.584   7.818  20.278  0.00  0.00    +0.000 NA
ATOM     23  N   UNL     1       2.025   8.008  19.017  0.00  0.00    +0.000 N 
ATOM     24  C   UNL     1       1.662   9.261  18.528  0.00  0.00    +0.000 A 
BRANCH  23  25
ATOM     25  C   UNL     1       2.713   6.959  18.347  0.00  0.00    +0.000 A 
ATOM     26  C   UNL     1       3.906   7.244  17.667  0.00  0.00    +0.000 A 
ATOM     27  C   UNL     1       4.633   6.211  17.074  0.00  0.00    +0.000 A 
ATOM     28  C   UNL     1       4.154   4.902  17.123  0.00  0.00    +0.000 A 
ATOM     29  C   UNL     1       2.939   4.624  17.749  0.00  0.00    +0.000 A 
ATOM     30  C   UNL     1       2.216   5.650  18.361  0.00  0.00    +0.000 A 
ENDBRANCH  23  25
BRANCH  24  31
ATOM     31  O   UNL     1       1.789   9.628  17.248  0.00  0.00    +0.000 OA
ATOM     32  H   UNL     1       1.635  10.585  17.166  0.00  0.00    +0.000 HD
ENDBRANCH  24  31
ENDBRANCH   2  19
TORSDOF 7
ENDMDL
MODEL 9
REMARK VINA RESULT:      -6.9      3.414      8.940
REMARK  Name = 
REMARK  10 active torsions:
REMARK  status: ('A' for Active; 'I' for Inactive)
REMARK    1  A    between atoms: C_1  and  O_2
REMARK    2  A    between atoms: O_2  and  C_3
REMARK    3  A    between atoms: C_6  and  N_7
REMARK    4  A    between atoms: C_8  and  C_9
REMARK    5  A    between atoms: C_8  and  C_15
REMARK    6  A    between atoms: C_16  and  C_17
REMARK    7  A    between atoms: N_19  and  C_20
REMARK    8  A    between atoms: C_26  and  O_27
REMARK    9  A    between atoms: C_28  and  O_29
REMARK   10  A    between atoms: O_29  and  C_30
REMARK                            x       y       z     vdW  Elec       q    Type
REMARK                         _______ _______ _______ _____ _____    ______ ____
ROOT
ATOM      1  N   UNL     1       1.691  11.561  20.034  0.00  0.00    +0.000 NA
ATOM      2  C   UNL     1       0.750  10.683  19.836  0.00  0.00    +0.000 C 
ENDROOT
BRANCH   1   6
ATOM      3  C   UNL     1       1.497  15.686  19.037  0.00  0.00    +0.000 A 
ATOM      4  C   UNL     1       2.024  14.774  18.132  0.00  0.00    +0.000 A 
ATOM      5  C   UNL     1       2.163  13.423  18.471  0.00  0.00    +0.000 A 
ATOM      6  C   UNL     1       1.695  12.929  19.694  0.00  0.00    +0.000 A 
ATOM      7  C   UNL     1       1.244  13.883  20.635  0.00  0.00    +0.000 A 
ATOM      8  C   UNL     1       1.107  15.240  20.296  0.00  0.00    +0.000 A 
BRANCH   3  10
ATOM      9  C   UNL     1       2.176  17.277  17.442  0.00  0.00    +0.000 C 
ATOM     10  O   UNL     1       1.390  16.975  18.591  0.00  0.00    +0.000 OA
ENDBRANCH   3  10
BRANCH   7  11
ATOM     11  O   UNL     1       0.870  13.592  21.929  0.00  0.00    +0.000 OA
ATOM     12  C   UNL     1      -0.321  14.273  22.329  0.00  0.00    +0.000 C 
ENDBRANCH   7  11
ENDBRANCH   1   6
BRANCH   2  13
ATOM     13  C   UNL     1      -0.576  10.892  19.181  0.00  0.00    +0.000 A 
ATOM     14  C   UNL     1      -1.520  11.729  19.805  0.00  0.00    +0.000 A 
ATOM     15  C   UNL     1      -2.716  12.043  19.161  0.00  0.00    +0.000 A 
ATOM     16  C   UNL     1      -3.013  11.459  17.931  0.00  0.00    +0.000 A 
ATOM     17  C   UNL     1      -2.108  10.580  17.334  0.00  0.00    +0.000 A 
ATOM     18  C   UNL     1      -0.875  10.324  17.939  0.00  0.00    +0.000 A 
ENDBRANCH   2  13
BRANCH   2  19
ATOM     19  C   UNL     1       1.034   9.309  20.309  0.00  0.00    +0.000 A 
ATOM     20  C   UNL     1       0.705   8.655  21.544  0.00  0.00    +0.000 A 
ATOM     21  C   UNL     1       0.087   9.164  22.800  0.00  0.00    +0.000 C 
ATOM     22  N   UNL     1       0.979   7.347  21.504  0.00  0.00    +0.000 NA
ATOM     23  N   UNL     1       1.669   7.168  20.359  0.00  0.00    +0.000 N 
ATOM     24  C   UNL     1       1.654   8.312  19.564  0.00  0.00    +0.000 A 
BRANCH  23  25
ATOM     25  C   UNL     1       2.248   5.900  20.078  0.00  0.00    +0.000 A 
ATOM     26  C   UNL     1       1.496   4.736  20.297  0.00  0.00    +0.000 A 
ATOM     27  C   UNL     1       2.023   3.491  19.950  0.00  0.00    +0.000 A 
ATOM     28  C   UNL     1       3.311   3.400  19.422  0.00  0.00    +0.000 A 
ATOM     29  C   UNL     1       4.083   4.549  19.258  0.00  0.00    +0.000 A 
ATOM     30  C   UNL     1       3.556   5.800  19.585  0.00  0.00    +0.000 A 
ENDBRANCH  23  25
BRANCH  24  31
ATOM     31  O   UNL     1       2.080   8.346  18.297  0.00  0.00    +0.000 OA
ATOM     32  H   UNL     1       1.841   7.517  17.850  0.00  0.00    +0.000 HD
ENDBRANCH  24  31
ENDBRANCH   2  19
TORSDOF 7
ENDMDL
