MODEL 1
REMARK VINA RESULT:      -8.6      0.000      0.000
REMARK  Name = 
REMARK  8 active torsions:
REMARK  status: ('A' for Active; 'I' for Inactive)
REMARK    1  A    between atoms: C_1  and  O_2
REMARK    2  A    between atoms: O_2  and  C_3
REMARK    3  A    between atoms: C_6  and  O_7
REMARK    4  A    between atoms: C_8  and  C_9
REMARK    5  A    between atoms: C_9  and  N_10
REMARK    6  A    between atoms: N_10  and  C_11
REMARK    7  A    between atoms: C_16  and  C_17
REMARK    8  A    between atoms: C_21  and  C_22
REMARK                            x       y       z     vdW  Elec       q    Type
REMARK                         _______ _______ _______ _____ _____    ______ ____
ROOT
ATOM      1  C   UNL     1       2.326   7.673  18.882  0.00  0.00    +0.000 A 
ATOM      2  C   UNL     1       1.697   7.793  20.128  0.00  0.00    +0.000 A 
ATOM      3  C   UNL     1       1.488   6.676  20.940  0.00  0.00    +0.000 A 
ATOM      4  C   UNL     1       1.972   5.429  20.554  0.00  0.00    +0.000 A 
ATOM      5  N   UNL     1       1.701   4.322  21.387  0.00  0.00    +0.000 NA
ATOM      6  C   UNL     1       2.171   3.159  21.047  0.00  0.00    +0.000 A 
ATOM      7  C   UNL     1       1.850   1.945  21.870  0.00  0.00    +0.000 C 
ATOM      8  C   UNL     1       3.002   3.018  19.889  0.00  0.00    +0.000 A 
ATOM      9  N   UNL     1       3.588   1.931  19.458  0.00  0.00    +0.000 NA
ATOM     10  N   UNL     1       4.361   2.302  18.389  0.00  0.00    +0.000 NA
ATOM     11  C   UNL     1       4.242   3.608  18.174  0.00  0.00    +0.000 A 
ATOM     12  N   UNL     1       3.291   4.081  19.079  0.00  0.00    +0.000 N 
ATOM     13  C   UNL     1       2.683   5.326  19.342  0.00  0.00    +0.000 A 
ATOM     14  C   UNL     1       2.765   6.413  18.478  0.00  0.00    +0.000 A 
ENDROOT
BRANCH  11  15
ATOM     15  C   UNL     1       5.088   4.349  17.213  0.00  0.00    +0.000 A 
ATOM     16  C   UNL     1       4.831   4.285  15.828  0.00  0.00    +0.000 A 
ATOM     17  C   UNL     1       5.637   4.947  14.894  0.00  0.00    +0.000 A 
ATOM     18  C   UNL     1       6.659   5.782  15.326  0.00  0.00    +0.000 A 
ATOM     19  C   UNL     1       6.882   5.936  16.692  0.00  0.00    +0.000 A 
ATOM     20  C   UNL     1       6.121   5.216  17.628  0.00  0.00    +0.000 A 
ATOM     21 CL   UNL     1       6.555   5.453  19.289  0.00  0.00    +0.000 Cl
ENDBRANCH  11  15
BRANCH   1  22
ATOM     22  N   UNL     1       2.421   8.796  18.081  0.00  0.00    +0.000 N 
ATOM     23  H   UNL     1       3.001   8.665  17.257  0.00  0.00    +0.000 HD
BRANCH  22  24
ATOM     24  C   UNL     1       1.290   9.698  17.866  0.00  0.00    +0.000 C 
BRANCH  24  29
ATOM     25  C   UNL     1       0.805  12.104  20.789  0.00  0.00    +0.000 A 
ATOM     26  C   UNL     1       1.557  13.198  20.369  0.00  0.00    +0.000 A 
ATOM     27  C   UNL     1       2.227  13.171  19.137  0.00  0.00    +0.000 A 
ATOM     28  C   UNL     1       2.151  12.036  18.338  0.00  0.00    +0.000 A 
ATOM     29  C   UNL     1       1.427  10.916  18.747  0.00  0.00    +0.000 A 
ATOM     30  C   UNL     1       0.733  10.983  19.970  0.00  0.00    +0.000 A 
BRANCH  25  32
ATOM     31  C   UNL     1      -0.891  11.327  22.254  0.00  0.00    +0.000 C 
ATOM     32  O   UNL     1       0.183  12.230  22.005  0.00  0.00    +0.000 OA
ENDBRANCH  25  32
BRANCH  28  33
ATOM     33  O   UNL     1       2.778  12.003  17.121  0.00  0.00    +0.000 OA
ATOM     34  H   UNL     1       2.305  12.596  16.512  0.00  0.00    +0.000 HD
ENDBRANCH  28  33
ENDBRANCH  24  29
ENDBRANCH  22  24
ENDBRANCH   1  22
TORSDOF 6
ENDMDL
MODEL 2
REMARK VINA RESULT:      -8.5      1.637      2.294
REMARK  Name = 
REMARK  8 active torsions:
REMARK  status: ('A' for Active; 'I' for Inactive)
REMARK    1  A    between atoms: C_1  and  O_2
REMARK    2  A    between atoms: O_2  and  C_3
REMARK    3  A    between atoms: C_6  and  O_7
REMARK    4  A    between atoms: C_8  and  C_9
REMARK    5  A    between atoms: C_9  and  N_10
REMARK    6  A    between atoms: N_10  and  C_11
REMARK    7  A    between atoms: C_16  and  C_17
REMARK    8  A    between atoms: C_21  and  C_22
REMARK                            x       y       z     vdW  Elec       q    Type
REMARK                         _______ _______ _______ _____ _____    ______ ____
ROOT
ATOM      1  C   UNL     1       2.361   7.764  18.659  0.00  0.00    +0.000 A 
ATOM      2  C   UNL     1       1.729   7.955  19.894  0.00  0.00    +0.000 A 
ATOM      3  C   UNL     1       1.493   6.882  20.757  0.00  0.00    +0.000 A 
ATOM      4  C   UNL     1       1.951   5.608  20.431  0.00  0.00    +0.000 A 
ATOM      5  N   UNL     1       1.651   4.547  21.313  0.00  0.00    +0.000 NA
ATOM      6  C   UNL     1       2.096   3.359  21.030  0.00  0.00    +0.000 A 
ATOM      7  C   UNL     1       1.746   2.193  21.907  0.00  0.00    +0.000 C 
ATOM      8  C   UNL     1       2.929   3.147  19.884  0.00  0.00    +0.000 A 
ATOM      9  N   UNL     1       3.493   2.028  19.507  0.00  0.00    +0.000 NA
ATOM     10  N   UNL     1       4.279   2.333  18.426  0.00  0.00    +0.000 NA
ATOM     11  C   UNL     1       4.189   3.629  18.151  0.00  0.00    +0.000 A 
ATOM     12  N   UNL     1       3.245   4.165  19.027  0.00  0.00    +0.000 N 
ATOM     13  C   UNL     1       2.664   5.433  19.229  0.00  0.00    +0.000 A 
ATOM     14  C   UNL     1       2.774   6.476  18.315  0.00  0.00    +0.000 A 
ENDROOT
BRANCH  11  15
ATOM     15  C   UNL     1       5.055   4.306  17.160  0.00  0.00    +0.000 A 
ATOM     16  C   UNL     1       4.791   4.200  15.779  0.00  0.00    +0.000 A 
ATOM     17  C   UNL     1       5.615   4.800  14.819  0.00  0.00    +0.000 A 
ATOM     18  C   UNL     1       6.666   5.615  15.218  0.00  0.00    +0.000 A 
ATOM     19  C   UNL     1       6.900   5.812  16.576  0.00  0.00    +0.000 A 
ATOM     20  C   UNL     1       6.119   5.152  17.540  0.00  0.00    +0.000 A 
ATOM     21 CL   UNL     1       6.568   5.434  19.190  0.00  0.00    +0.000 Cl
ENDBRANCH  11  15
BRANCH   1  22
ATOM     22  N   UNL     1       2.484   8.846  17.807  0.00  0.00    +0.000 N 
ATOM     23  H   UNL     1       2.155   8.665  16.863  0.00  0.00    +0.000 HD
BRANCH  22  24
ATOM     24  C   UNL     1       2.259  10.220  18.254  0.00  0.00    +0.000 C 
BRANCH  24  29
ATOM     25  C   UNL     1      -1.511  10.173  17.666  0.00  0.00    +0.000 A 
ATOM     26  C   UNL     1      -1.960  10.974  18.712  0.00  0.00    +0.000 A 
ATOM     27  C   UNL     1      -1.050  11.539  19.617  0.00  0.00    +0.000 A 
ATOM     28  C   UNL     1       0.310  11.284  19.476  0.00  0.00    +0.000 A 
ATOM     29  C   UNL     1       0.784  10.462  18.454  0.00  0.00    +0.000 A 
ATOM     30  C   UNL     1      -0.147   9.939  17.535  0.00  0.00    +0.000 A 
BRANCH  25  32
ATOM     31  C   UNL     1      -2.870  10.519  15.753  0.00  0.00    +0.000 C 
ATOM     32  O   UNL     1      -2.478   9.673  16.832  0.00  0.00    +0.000 OA
ENDBRANCH  25  32
BRANCH  28  33
ATOM     33  O   UNL     1       1.213  11.848  20.336  0.00  0.00    +0.000 OA
ATOM     34  H   UNL     1       0.792  11.945  21.208  0.00  0.00    +0.000 HD
ENDBRANCH  28  33
ENDBRANCH  24  29
ENDBRANCH  22  24
ENDBRANCH   1  22
TORSDOF 6
ENDMDL
MODEL 3
REMARK VINA RESULT:      -8.4      6.379      9.873
REMARK  Name = 
REMARK  8 active torsions:
REMARK  status: ('A' for Active; 'I' for Inactive)
REMARK    1  A    between atoms: C_1  and  O_2
REMARK    2  A    between atoms: O_2  and  C_3
REMARK    3  A    between atoms: C_6  and  O_7
REMARK    4  A    between atoms: C_8  and  C_9
REMARK    5  A    between atoms: C_9  and  N_10
REMARK    6  A    between atoms: N_10  and  C_11
REMARK    7  A    between atoms: C_16  and  C_17
REMARK    8  A    between atoms: C_21  and  C_22
REMARK                            x       y       z     vdW  Elec       q    Type
REMARK                         _______ _______ _______ _____ _____    ______ ____
ROOT
ATOM      1  C   UNL     1      -2.607  11.403  17.709  0.00  0.00    +0.000 A 
ATOM      2  C   UNL     1      -1.943  10.243  17.289  0.00  0.00    +0.000 A 
ATOM      3  C   UNL     1      -0.992   9.622  18.103  0.00  0.00    +0.000 A 
ATOM      4  C   UNL     1      -0.743  10.109  19.383  0.00  0.00    +0.000 A 
ATOM      5  N   UNL     1       0.257   9.475  20.153  0.00  0.00    +0.000 NA
ATOM      6  C   UNL     1       0.480   9.905  21.359  0.00  0.00    +0.000 A 
ATOM      7  C   UNL     1       1.577   9.302  22.186  0.00  0.00    +0.000 C 
ATOM      8  C   UNL     1      -0.319  10.956  21.917  0.00  0.00    +0.000 A 
ATOM      9  N   UNL     1      -0.250  11.452  23.125  0.00  0.00    +0.000 NA
ATOM     10  N   UNL     1      -1.276  12.353  23.237  0.00  0.00    +0.000 NA
ATOM     11  C   UNL     1      -1.962  12.403  22.100  0.00  0.00    +0.000 A 
ATOM     12  N   UNL     1      -1.303  11.572  21.193  0.00  0.00    +0.000 N 
ATOM     13  C   UNL     1      -1.475  11.222  19.839  0.00  0.00    +0.000 A 
ATOM     14  C   UNL     1      -2.317  11.915  18.974  0.00  0.00    +0.000 A 
ENDROOT
BRANCH  11  15
ATOM     15  C   UNL     1      -3.237  13.140  21.957  0.00  0.00    +0.000 A 
ATOM     16  C   UNL     1      -4.430  12.630  22.509  0.00  0.00    +0.000 A 
ATOM     17  C   UNL     1      -5.656  13.288  22.358  0.00  0.00    +0.000 A 
ATOM     18  C   UNL     1      -5.706  14.533  21.744  0.00  0.00    +0.000 A 
ATOM     19  C   UNL     1      -4.529  15.105  21.266  0.00  0.00    +0.000 A 
ATOM     20  C   UNL     1      -3.310  14.412  21.352  0.00  0.00    +0.000 A 
ATOM     21 CL   UNL     1      -1.942  15.214  20.654  0.00  0.00    +0.000 Cl
ENDBRANCH  11  15
BRANCH   1  22
ATOM     22  N   UNL     1      -3.468  12.026  16.824  0.00  0.00    +0.000 N 
ATOM     23  H   UNL     1      -3.000  12.467  16.038  0.00  0.00    +0.000 HD
BRANCH  22  24
ATOM     24  C   UNL     1      -4.780  11.473  16.492  0.00  0.00    +0.000 C 
BRANCH  24  29
ATOM     25  C   UNL     1      -6.933  10.883  19.587  0.00  0.00    +0.000 A 
ATOM     26  C   UNL     1      -7.615  12.092  19.680  0.00  0.00    +0.000 A 
ATOM     27  C   UNL     1      -7.388  13.111  18.743  0.00  0.00    +0.000 A 
ATOM     28  C   UNL     1      -6.463  12.914  17.723  0.00  0.00    +0.000 A 
ATOM     29  C   UNL     1      -5.746  11.722  17.624  0.00  0.00    +0.000 A 
ATOM     30  C   UNL     1      -6.021  10.701  18.554  0.00  0.00    +0.000 A 
BRANCH  25  32
ATOM     31  C   UNL     1      -7.279   8.594  20.106  0.00  0.00    +0.000 C 
ATOM     32  O   UNL     1      -7.230   9.948  20.547  0.00  0.00    +0.000 OA
ENDBRANCH  25  32
BRANCH  28  33
ATOM     33  O   UNL     1      -6.249  13.889  16.786  0.00  0.00    +0.000 OA
ATOM     34  H   UNL     1      -6.429  13.517  15.906  0.00  0.00    +0.000 HD
ENDBRANCH  28  33
ENDBRANCH  24  29
ENDBRANCH  22  24
ENDBRANCH   1  22
TORSDOF 6
ENDMDL
MODEL 4
REMARK VINA RESULT:      -8.3      5.631      9.647
REMARK  Name = 
REMARK  8 active torsions:
REMARK  status: ('A' for Active; 'I' for Inactive)
REMARK    1  A    between atoms: C_1  and  O_2
REMARK    2  A    between atoms: O_2  and  C_3
REMARK    3  A    between atoms: C_6  and  O_7
REMARK    4  A    between atoms: C_8  and  C_9
REMARK    5  A    between atoms: C_9  and  N_10
REMARK    6  A    between atoms: N_10  and  C_11
REMARK    7  A    between atoms: C_16  and  C_17
REMARK    8  A    between atoms: C_21  and  C_22
REMARK                            x       y       z     vdW  Elec       q    Type
REMARK                         _______ _______ _______ _____ _____    ______ ____
ROOT
ATOM      1  C   UNL     1      -3.574  11.656  17.479  0.00  0.00    +0.000 A 
ATOM      2  C   UNL     1      -3.260  10.570  16.652  0.00  0.00    +0.000 A 
ATOM      3  C   UNL     1      -2.078   9.846  16.831  0.00  0.00    +0.000 A 
ATOM      4  C   UNL     1      -1.225  10.150  17.888  0.00  0.00    +0.000 A 
ATOM      5  N   UNL     1      -0.022   9.419  18.004  0.00  0.00    +0.000 NA
ATOM      6  C   UNL     1       0.769   9.678  19.002  0.00  0.00    +0.000 A 
ATOM      7  C   UNL     1       2.086   8.970  19.126  0.00  0.00    +0.000 C 
ATOM      8  C   UNL     1       0.394  10.637  19.999  0.00  0.00    +0.000 A 
ATOM      9  N   UNL     1       1.055  10.959  21.081  0.00  0.00    +0.000 NA
ATOM     10  N   UNL     1       0.261  11.830  21.779  0.00  0.00    +0.000 NA
ATOM     11  C   UNL     1      -0.875  12.035  21.121  0.00  0.00    +0.000 A 
ATOM     12  N   UNL     1      -0.774  11.342  19.914  0.00  0.00    +0.000 N 
ATOM     13  C   UNL     1      -1.586  11.185  18.773  0.00  0.00    +0.000 A 
ATOM     14  C   UNL     1      -2.691  11.987  18.506  0.00  0.00    +0.000 A 
ENDROOT
BRANCH  11  15
ATOM     15  C   UNL     1      -2.019  12.778  21.696  0.00  0.00    +0.000 A 
ATOM     16  C   UNL     1      -2.839  12.191  22.680  0.00  0.00    +0.000 A 
ATOM     17  C   UNL     1      -3.948  12.858  23.215  0.00  0.00    +0.000 A 
ATOM     18  C   UNL     1      -4.205  14.175  22.858  0.00  0.00    +0.000 A 
ATOM     19  C   UNL     1      -3.361  14.813  21.953  0.00  0.00    +0.000 A 
ATOM     20  C   UNL     1      -2.290  14.122  21.361  0.00  0.00    +0.000 A 
ATOM     21 CL   UNL     1      -1.367  15.019  20.201  0.00  0.00    +0.000 Cl
ENDBRANCH  11  15
BRANCH   1  22
ATOM     22  N   UNL     1      -4.710  12.393  17.196  0.00  0.00    +0.000 N 
ATOM     23  H   UNL     1      -4.607  13.016  16.400  0.00  0.00    +0.000 HD
BRANCH  22  24
ATOM     24  C   UNL     1      -6.055  11.837  17.337  0.00  0.00    +0.000 C 
BRANCH  24  29
ATOM     25  C   UNL     1      -7.334  10.710  20.751  0.00  0.00    +0.000 A 
ATOM     26  C   UNL     1      -7.389  11.921  21.435  0.00  0.00    +0.000 A 
ATOM     27  C   UNL     1      -7.015  13.114  20.801  0.00  0.00    +0.000 A 
ATOM     28  C   UNL     1      -6.572  13.083  19.483  0.00  0.00    +0.000 A 
ATOM     29  C   UNL     1      -6.481  11.880  18.784  0.00  0.00    +0.000 A 
ATOM     30  C   UNL     1      -6.899  10.701  19.431  0.00  0.00    +0.000 A 
BRANCH  25  32
ATOM     31  C   UNL     1      -7.916   8.411  20.695  0.00  0.00    +0.000 C 
ATOM     32  O   UNL     1      -7.726   9.600  21.457  0.00  0.00    +0.000 OA
ENDBRANCH  25  32
BRANCH  28  33
ATOM     33  O   UNL     1      -6.228  14.243  18.841  0.00  0.00    +0.000 OA
ATOM     34  H   UNL     1      -5.460  14.065  18.271  0.00  0.00    +0.000 HD
ENDBRANCH  28  33
ENDBRANCH  24  29
ENDBRANCH  22  24
ENDBRANCH   1  22
TORSDOF 6
ENDMDL
MODEL 5
REMARK VINA RESULT:      -8.3      1.031      1.461
REMARK  Name = 
REMARK  8 active torsions:
REMARK  status: ('A' for Active; 'I' for Inactive)
REMARK    1  A    between atoms: C_1  and  O_2
REMARK    2  A    between atoms: O_2  and  C_3
REMARK    3  A    between atoms: C_6  and  O_7
REMARK    4  A    between atoms: C_8  and  C_9
REMARK    5  A    between atoms: C_9  and  N_10
REMARK    6  A    between atoms: N_10  and  C_11
REMARK    7  A    between atoms: C_16  and  C_17
REMARK    8  A    between atoms: C_21  and  C_22
REMARK                            x       y       z     vdW  Elec       q    Type
REMARK                         _______ _______ _______ _____ _____    ______ ____
ROOT
ATOM      1  C   UNL     1       2.244   7.831  19.099  0.00  0.00    +0.000 A 
ATOM      2  C   UNL     1       1.274   7.797  20.110  0.00  0.00    +0.000 A 
ATOM      3  C   UNL     1       1.033   6.630  20.839  0.00  0.00    +0.000 A 
ATOM      4  C   UNL     1       1.809   5.495  20.620  0.00  0.00    +0.000 A 
ATOM      5  N   UNL     1       1.501   4.327  21.350  0.00  0.00    +0.000 NA
ATOM      6  C   UNL     1       2.236   3.270  21.171  0.00  0.00    +0.000 A 
ATOM      7  C   UNL     1       1.903   1.989  21.879  0.00  0.00    +0.000 C 
ATOM      8  C   UNL     1       3.374   3.312  20.302  0.00  0.00    +0.000 A 
ATOM      9  N   UNL     1       4.233   2.353  20.068  0.00  0.00    +0.000 NA
ATOM     10  N   UNL     1       5.204   2.888  19.262  0.00  0.00    +0.000 NA
ATOM     11  C   UNL     1       4.934   4.164  19.010  0.00  0.00    +0.000 A 
ATOM     12  N   UNL     1       3.699   4.439  19.599  0.00  0.00    +0.000 N 
ATOM     13  C   UNL     1       2.843   5.557  19.665  0.00  0.00    +0.000 A 
ATOM     14  C   UNL     1       2.984   6.675  18.850  0.00  0.00    +0.000 A 
ENDROOT
BRANCH  11  15
ATOM     15  C   UNL     1       5.882   5.070  18.325  0.00  0.00    +0.000 A 
ATOM     16  C   UNL     1       6.868   5.767  19.053  0.00  0.00    +0.000 A 
ATOM     17  C   UNL     1       7.754   6.658  18.435  0.00  0.00    +0.000 A 
ATOM     18  C   UNL     1       7.750   6.794  17.054  0.00  0.00    +0.000 A 
ATOM     19  C   UNL     1       6.847   6.052  16.297  0.00  0.00    +0.000 A 
ATOM     20  C   UNL     1       5.909   5.214  16.922  0.00  0.00    +0.000 A 
ATOM     21 CL   UNL     1       4.801   4.406  15.861  0.00  0.00    +0.000 Cl
ENDBRANCH  11  15
BRANCH   1  22
ATOM     22  N   UNL     1       2.373   8.985  18.348  0.00  0.00    +0.000 N 
ATOM     23  H   UNL     1       3.010   8.893  17.562  0.00  0.00    +0.000 HD
BRANCH  22  24
ATOM     24  C   UNL     1       1.244   9.877  18.090  0.00  0.00    +0.000 C 
BRANCH  24  29
ATOM     25  C   UNL     1       0.734  12.394  20.912  0.00  0.00    +0.000 A 
ATOM     26  C   UNL     1       1.491  13.470  20.458  0.00  0.00    +0.000 A 
ATOM     27  C   UNL     1       2.172  13.396  19.235  0.00  0.00    +0.000 A 
ATOM     28  C   UNL     1       2.102  12.231  18.479  0.00  0.00    +0.000 A 
ATOM     29  C   UNL     1       1.374  11.128  18.924  0.00  0.00    +0.000 A 
ATOM     30  C   UNL     1       0.668  11.242  20.137  0.00  0.00    +0.000 A 
BRANCH  25  32
ATOM     31  C   UNL     1      -1.048  11.755  22.341  0.00  0.00    +0.000 C 
ATOM     32  O   UNL     1       0.101  12.568  22.117  0.00  0.00    +0.000 OA
ENDBRANCH  25  32
BRANCH  28  33
ATOM     33  O   UNL     1       2.741  12.151  17.270  0.00  0.00    +0.000 OA
ATOM     34  H   UNL     1       2.078  12.235  16.563  0.00  0.00    +0.000 HD
ENDBRANCH  28  33
ENDBRANCH  24  29
ENDBRANCH  22  24
ENDBRANCH   1  22
TORSDOF 6
ENDMDL
MODEL 6
REMARK VINA RESULT:      -8.2      5.933      9.821
REMARK  Name = 
REMARK  8 active torsions:
REMARK  status: ('A' for Active; 'I' for Inactive)
REMARK    1  A    between atoms: C_1  and  O_2
REMARK    2  A    between atoms: O_2  and  C_3
REMARK    3  A    between atoms: C_6  and  O_7
REMARK    4  A    between atoms: C_8  and  C_9
REMARK    5  A    between atoms: C_9  and  N_10
REMARK    6  A    between atoms: N_10  and  C_11
REMARK    7  A    between atoms: C_16  and  C_17
REMARK    8  A    between atoms: C_21  and  C_22
REMARK                            x       y       z     vdW  Elec       q    Type
REMARK                         _______ _______ _______ _____ _____    ______ ____
ROOT
ATOM      1  C   UNL     1      -4.028  11.601  18.017  0.00  0.00    +0.000 A 
ATOM      2  C   UNL     1      -3.803  10.573  17.091  0.00  0.00    +0.000 A 
ATOM      3  C   UNL     1      -2.550   9.965  16.980  0.00  0.00    +0.000 A 
ATOM      4  C   UNL     1      -1.519  10.323  17.843  0.00  0.00    +0.000 A 
ATOM      5  N   UNL     1      -0.259   9.712  17.665  0.00  0.00    +0.000 NA
ATOM      6  C   UNL     1       0.703  10.021  18.482  0.00  0.00    +0.000 A 
ATOM      7  C   UNL     1       2.075   9.444  18.288  0.00  0.00    +0.000 C 
ATOM      8  C   UNL     1       0.469  10.912  19.580  0.00  0.00    +0.000 A 
ATOM      9  N   UNL     1       1.317  11.268  20.510  0.00  0.00    +0.000 NA
ATOM     10  N   UNL     1       0.617  12.039  21.402  0.00  0.00    +0.000 NA
ATOM     11  C   UNL     1      -0.648  12.147  21.012  0.00  0.00    +0.000 A 
ATOM     12  N   UNL     1      -0.749  11.500  19.780  0.00  0.00    +0.000 N 
ATOM     13  C   UNL     1      -1.772  11.294  18.832  0.00  0.00    +0.000 A 
ATOM     14  C   UNL     1      -2.976  11.990  18.846  0.00  0.00    +0.000 A 
ENDROOT
BRANCH  11  15
ATOM     15  C   UNL     1      -1.702  12.758  21.852  0.00  0.00    +0.000 A 
ATOM     16  C   UNL     1      -2.567  11.954  22.622  0.00  0.00    +0.000 A 
ATOM     17  C   UNL     1      -3.595  12.505  23.397  0.00  0.00    +0.000 A 
ATOM     18  C   UNL     1      -3.719  13.883  23.510  0.00  0.00    +0.000 A 
ATOM     19  C   UNL     1      -2.824  14.706  22.831  0.00  0.00    +0.000 A 
ATOM     20  C   UNL     1      -1.838  14.156  21.995  0.00  0.00    +0.000 A 
ATOM     21 CL   UNL     1      -0.840  15.300  21.159  0.00  0.00    +0.000 Cl
ENDBRANCH  11  15
BRANCH   1  22
ATOM     22  N   UNL     1      -5.260  12.229  18.018  0.00  0.00    +0.000 N 
ATOM     23  H   UNL     1      -5.315  13.026  17.390  0.00  0.00    +0.000 HD
BRANCH  22  24
ATOM     24  C   UNL     1      -6.514  11.486  18.136  0.00  0.00    +0.000 C 
BRANCH  24  29
ATOM     25  C   UNL     1      -7.158  12.651  21.712  0.00  0.00    +0.000 A 
ATOM     26  C   UNL     1      -7.731  11.513  22.271  0.00  0.00    +0.000 A 
ATOM     27  C   UNL     1      -7.913  10.356  21.500  0.00  0.00    +0.000 A 
ATOM     28  C   UNL     1      -7.532  10.354  20.162  0.00  0.00    +0.000 A 
ATOM     29  C   UNL     1      -6.982  11.490  19.570  0.00  0.00    +0.000 A 
ATOM     30  C   UNL     1      -6.774  12.625  20.376  0.00  0.00    +0.000 A 
BRANCH  25  32
ATOM     31  C   UNL     1      -7.562  13.577  23.858  0.00  0.00    +0.000 C 
ATOM     32  O   UNL     1      -7.017  13.728  22.550  0.00  0.00    +0.000 OA
ENDBRANCH  25  32
BRANCH  28  33
ATOM     33  O   UNL     1      -7.680   9.224  19.403  0.00  0.00    +0.000 OA
ATOM     34  H   UNL     1      -8.190   9.451  18.606  0.00  0.00    +0.000 HD
ENDBRANCH  28  33
ENDBRANCH  24  29
ENDBRANCH  22  24
ENDBRANCH   1  22
TORSDOF 6
ENDMDL
MODEL 7
REMARK VINA RESULT:      -8.2      0.918      1.921
REMARK  Name = 
REMARK  8 active torsions:
REMARK  status: ('A' for Active; 'I' for Inactive)
REMARK    1  A    between atoms: C_1  and  O_2
REMARK    2  A    between atoms: O_2  and  C_3
REMARK    3  A    between atoms: C_6  and  O_7
REMARK    4  A    between atoms: C_8  and  C_9
REMARK    5  A    between atoms: C_9  and  N_10
REMARK    6  A    between atoms: N_10  and  C_11
REMARK    7  A    between atoms: C_16  and  C_17
REMARK    8  A    between atoms: C_21  and  C_22
REMARK                            x       y       z     vdW  Elec       q    Type
REMARK                         _______ _______ _______ _____ _____    ______ ____
ROOT
ATOM      1  C   UNL     1       2.425   7.749  18.829  0.00  0.00    +0.000 A 
ATOM      2  C   UNL     1       1.792   7.900  20.070  0.00  0.00    +0.000 A 
ATOM      3  C   UNL     1       1.543   6.796  20.890  0.00  0.00    +0.000 A 
ATOM      4  C   UNL     1       1.990   5.532  20.517  0.00  0.00    +0.000 A 
ATOM      5  N   UNL     1       1.678   4.441  21.358  0.00  0.00    +0.000 NA
ATOM      6  C   UNL     1       2.112   3.260  21.031  0.00  0.00    +0.000 A 
ATOM      7  C   UNL     1       1.749   2.065  21.862  0.00  0.00    +0.000 C 
ATOM      8  C   UNL     1       2.945   3.083  19.878  0.00  0.00    +0.000 A 
ATOM      9  N   UNL     1       3.499   1.975  19.460  0.00  0.00    +0.000 NA
ATOM     10  N   UNL     1       4.289   2.312  18.392  0.00  0.00    +0.000 NA
ATOM     11  C   UNL     1       4.213   3.619  18.166  0.00  0.00    +0.000 A 
ATOM     12  N   UNL     1       3.272   4.130  19.061  0.00  0.00    +0.000 N 
ATOM     13  C   UNL     1       2.704   5.396  19.311  0.00  0.00    +0.000 A 
ATOM     14  C   UNL     1       2.825   6.472  18.437  0.00  0.00    +0.000 A 
ENDROOT
BRANCH  11  15
ATOM     15  C   UNL     1       5.087   4.325  17.203  0.00  0.00    +0.000 A 
ATOM     16  C   UNL     1       4.848   4.241  15.816  0.00  0.00    +0.000 A 
ATOM     17  C   UNL     1       5.681   4.868  14.882  0.00  0.00    +0.000 A 
ATOM     18  C   UNL     1       6.714   5.689  15.314  0.00  0.00    +0.000 A 
ATOM     19  C   UNL     1       6.923   5.863  16.679  0.00  0.00    +0.000 A 
ATOM     20  C   UNL     1       6.134   5.176  17.618  0.00  0.00    +0.000 A 
ATOM     21 CL   UNL     1       6.550   5.434  19.280  0.00  0.00    +0.000 Cl
ENDBRANCH  11  15
BRANCH   1  22
ATOM     22  N   UNL     1       2.560   8.862  18.019  0.00  0.00    +0.000 N 
ATOM     23  H   UNL     1       3.233   8.743  17.267  0.00  0.00    +0.000 HD
BRANCH  22  24
ATOM     24  C   UNL     1       1.422   9.709  17.662  0.00  0.00    +0.000 C 
BRANCH  24  29
ATOM     25  C   UNL     1       2.715  13.151  18.683  0.00  0.00    +0.000 A 
ATOM     26  C   UNL     1       1.841  13.474  19.717  0.00  0.00    +0.000 A 
ATOM     27  C   UNL     1       0.827  12.583  20.098  0.00  0.00    +0.000 A 
ATOM     28  C   UNL     1       0.685  11.375  19.424  0.00  0.00    +0.000 A 
ATOM     29  C   UNL     1       1.529  11.039  18.366  0.00  0.00    +0.000 A 
ATOM     30  C   UNL     1       2.563  11.933  18.030  0.00  0.00    +0.000 A 
BRANCH  25  32
ATOM     31  C   UNL     1       3.926  15.060  19.401  0.00  0.00    +0.000 C 
ATOM     32  O   UNL     1       3.676  14.085  18.391  0.00  0.00    +0.000 OA
ENDBRANCH  25  32
BRANCH  28  33
ATOM     33  O   UNL     1      -0.284  10.484  19.799  0.00  0.00    +0.000 OA
ATOM     34  H   UNL     1      -0.473  10.611  20.745  0.00  0.00    +0.000 HD
ENDBRANCH  28  33
ENDBRANCH  24  29
ENDBRANCH  22  24
ENDBRANCH   1  22
TORSDOF 6
ENDMDL
MODEL 8
REMARK VINA RESULT:      -7.9      2.045      2.499
REMARK  Name = 
REMARK  8 active torsions:
REMARK  status: ('A' for Active; 'I' for Inactive)
REMARK    1  A    between atoms: C_1  and  O_2
REMARK    2  A    between atoms: O_2  and  C_3
REMARK    3  A    between atoms: C_6  and  O_7
REMARK    4  A    between atoms: C_8  and  C_9
REMARK    5  A    between atoms: C_9  and  N_10
REMARK    6  A    between atoms: N_10  and  C_11
REMARK    7  A    between atoms: C_16  and  C_17
REMARK    8  A    between atoms: C_21  and  C_22
REMARK                            x       y       z     vdW  Elec       q    Type
REMARK                         _______ _______ _______ _____ _____    ______ ____
ROOT
ATOM      1  C   UNL     1       2.275   7.786  19.323  0.00  0.00    +0.000 A 
ATOM      2  C   UNL     1       1.328   7.720  20.353  0.00  0.00    +0.000 A 
ATOM      3  C   UNL     1       1.086   6.524  21.035  0.00  0.00    +0.000 A 
ATOM      4  C   UNL     1       1.841   5.390  20.748  0.00  0.00    +0.000 A 
ATOM      5  N   UNL     1       1.532   4.195  21.432  0.00  0.00    +0.000 NA
ATOM      6  C   UNL     1       2.247   3.137  21.190  0.00  0.00    +0.000 A 
ATOM      7  C   UNL     1       1.911   1.831  21.847  0.00  0.00    +0.000 C 
ATOM      8  C   UNL     1       3.367   3.203  20.298  0.00  0.00    +0.000 A 
ATOM      9  N   UNL     1       4.206   2.244  20.002  0.00  0.00    +0.000 NA
ATOM     10  N   UNL     1       5.167   2.801  19.199  0.00  0.00    +0.000 NA
ATOM     11  C   UNL     1       4.910   4.091  19.010  0.00  0.00    +0.000 A 
ATOM     12  N   UNL     1       3.692   4.356  19.638  0.00  0.00    +0.000 N 
ATOM     13  C   UNL     1       2.854   5.481  19.773  0.00  0.00    +0.000 A 
ATOM     14  C   UNL     1       2.993   6.633  19.006  0.00  0.00    +0.000 A 
ENDROOT
BRANCH  11  15
ATOM     15  C   UNL     1       5.856   5.014  18.345  0.00  0.00    +0.000 A 
ATOM     16  C   UNL     1       6.829   5.710  19.090  0.00  0.00    +0.000 A 
ATOM     17  C   UNL     1       7.712   6.616  18.491  0.00  0.00    +0.000 A 
ATOM     18  C   UNL     1       7.719   6.770  17.111  0.00  0.00    +0.000 A 
ATOM     19  C   UNL     1       6.828   6.030  16.337  0.00  0.00    +0.000 A 
ATOM     20  C   UNL     1       5.892   5.176  16.943  0.00  0.00    +0.000 A 
ATOM     21 CL   UNL     1       4.801   4.373  15.863  0.00  0.00    +0.000 Cl
ENDBRANCH  11  15
BRANCH   1  22
ATOM     22  N   UNL     1       2.405   8.971  18.621  0.00  0.00    +0.000 N 
ATOM     23  H   UNL     1       3.368   9.254  18.470  0.00  0.00    +0.000 HD
BRANCH  22  24
ATOM     24  C   UNL     1       1.506   9.329  17.525  0.00  0.00    +0.000 C 
BRANCH  24  29
ATOM     25  C   UNL     1      -2.101  10.420  18.127  0.00  0.00    +0.000 A 
ATOM     26  C   UNL     1      -1.916  11.539  18.934  0.00  0.00    +0.000 A 
ATOM     27  C   UNL     1      -0.625  11.955  19.290  0.00  0.00    +0.000 A 
ATOM     28  C   UNL     1       0.477  11.233  18.845  0.00  0.00    +0.000 A 
ATOM     29  C   UNL     1       0.319  10.091  18.060  0.00  0.00    +0.000 A 
ATOM     30  C   UNL     1      -0.985   9.718  17.684  0.00  0.00    +0.000 A 
BRANCH  25  32
ATOM     31  C   UNL     1      -4.328  11.181  17.837  0.00  0.00    +0.000 C 
ATOM     32  O   UNL     1      -3.401  10.099  17.830  0.00  0.00    +0.000 OA
ENDBRANCH  25  32
BRANCH  28  33
ATOM     33  O   UNL     1       1.745  11.640  19.164  0.00  0.00    +0.000 OA
ATOM     34  H   UNL     1       1.711  12.571  19.442  0.00  0.00    +0.000 HD
ENDBRANCH  28  33
ENDBRANCH  24  29
ENDBRANCH  22  24
ENDBRANCH   1  22
TORSDOF 6
ENDMDL
MODEL 9
REMARK VINA RESULT:      -7.9      1.128      1.604
REMARK  Name = 
REMARK  8 active torsions:
REMARK  status: ('A' for Active; 'I' for Inactive)
REMARK    1  A    between atoms: C_1  and  O_2
REMARK    2  A    between atoms: O_2  and  C_3
REMARK    3  A    between atoms: C_6  and  O_7
REMARK    4  A    between atoms: C_8  and  C_9
REMARK    5  A    between atoms: C_9  and  N_10
REMARK    6  A    between atoms: N_10  and  C_11
REMARK    7  A    between atoms: C_16  and  C_17
REMARK    8  A    between atoms: C_21  and  C_22
REMARK                            x       y       z     vdW  Elec       q    Type
REMARK                         _______ _______ _______ _____ _____    ______ ____
ROOT
ATOM      1  C   UNL     1       2.339   7.834  18.928  0.00  0.00    +0.000 A 
ATOM      2  C   UNL     1       1.672   7.946  20.155  0.00  0.00    +0.000 A 
ATOM      3  C   UNL     1       1.421   6.820  20.943  0.00  0.00    +0.000 A 
ATOM      4  C   UNL     1       1.897   5.572  20.553  0.00  0.00    +0.000 A 
ATOM      5  N   UNL     1       1.583   4.457  21.360  0.00  0.00    +0.000 NA
ATOM      6  C   UNL     1       2.045   3.292  21.018  0.00  0.00    +0.000 A 
ATOM      7  C   UNL     1       1.680   2.071  21.812  0.00  0.00    +0.000 C 
ATOM      8  C   UNL     1       2.910   3.155  19.884  0.00  0.00    +0.000 A 
ATOM      9  N   UNL     1       3.493   2.065  19.455  0.00  0.00    +0.000 NA
ATOM     10  N   UNL     1       4.305   2.440  18.417  0.00  0.00    +0.000 NA
ATOM     11  C   UNL     1       4.213   3.750  18.219  0.00  0.00    +0.000 A 
ATOM     12  N   UNL     1       3.241   4.225  19.100  0.00  0.00    +0.000 N 
ATOM     13  C   UNL     1       2.645   5.475  19.363  0.00  0.00    +0.000 A 
ATOM     14  C   UNL     1       2.771   6.573  18.518  0.00  0.00    +0.000 A 
ENDROOT
BRANCH  11  15
ATOM     15  C   UNL     1       5.100   4.492  17.295  0.00  0.00    +0.000 A 
ATOM     16  C   UNL     1       4.858   4.491  15.906  0.00  0.00    +0.000 A 
ATOM     17  C   UNL     1       5.701   5.154  15.007  0.00  0.00    +0.000 A 
ATOM     18  C   UNL     1       6.751   5.929  15.482  0.00  0.00    +0.000 A 
ATOM     19  C   UNL     1       6.964   6.021  16.855  0.00  0.00    +0.000 A 
ATOM     20  C   UNL     1       6.163   5.298  17.755  0.00  0.00    +0.000 A 
ATOM     21 CL   UNL     1       6.587   5.453  19.428  0.00  0.00    +0.000 Cl
ENDBRANCH  11  15
BRANCH   1  22
ATOM     22  N   UNL     1       2.476   8.968  18.147  0.00  0.00    +0.000 N 
ATOM     23  H   UNL     1       3.297   8.957  17.548  0.00  0.00    +0.000 HD
BRANCH  22  24
ATOM     24  C   UNL     1       1.326   9.651  17.556  0.00  0.00    +0.000 C 
BRANCH  24  29
ATOM     25  C   UNL     1       1.024  12.233  20.349  0.00  0.00    +0.000 A 
ATOM     26  C   UNL     1      -0.357  12.291  20.518  0.00  0.00    +0.000 A 
ATOM     27  C   UNL     1      -1.204  11.496  19.734  0.00  0.00    +0.000 A 
ATOM     28  C   UNL     1      -0.660  10.655  18.769  0.00  0.00    +0.000 A 
ATOM     29  C   UNL     1       0.718  10.598  18.560  0.00  0.00    +0.000 A 
ATOM     30  C   UNL     1       1.549  11.378  19.387  0.00  0.00    +0.000 A 
BRANCH  25  32
ATOM     31  C   UNL     1       2.865  13.715  20.555  0.00  0.00    +0.000 C 
ATOM     32  O   UNL     1       1.766  13.045  21.169  0.00  0.00    +0.000 OA
ENDBRANCH  25  32
BRANCH  28  33
ATOM     33  O   UNL     1      -1.472   9.853  18.012  0.00  0.00    +0.000 OA
ATOM     34  H   UNL     1      -0.999   9.025  17.821  0.00  0.00    +0.000 HD
ENDBRANCH  28  33
ENDBRANCH  24  29
ENDBRANCH  22  24
ENDBRANCH   1  22
TORSDOF 6
ENDMDL
