MODEL 1
REMARK VINA RESULT:      -9.5      0.000      0.000
REMARK  Name = 
REMARK  5 active torsions:
REMARK  status: ('A' for Active; 'I' for Inactive)
REMARK    1  A    between atoms: C_1  and  C_2
REMARK    2  A    between atoms: C_2  and  C_3
REMARK    3  A    between atoms: C_5  and  N_6
REMARK    4  A    between atoms: C_7  and  C_9
REMARK    5  A    between atoms: C_21  and  C_22
REMARK                            x       y       z     vdW  Elec       q    Type
REMARK                         _______ _______ _______ _____ _____    ______ ____
ROOT
ATOM      1  C   UNL     1       3.775   5.437  18.855  0.00  0.00    +0.000 A 
ATOM      2  C   UNL     1       3.035   6.491  19.408  0.00  0.00    +0.000 A 
ATOM      3  C   UNL     1       2.070   6.291  20.402  0.00  0.00    +0.000 A 
ATOM      4  C   UNL     1       1.860   5.001  20.898  0.00  0.00    +0.000 A 
ATOM      5  C   UNL     1       2.582   3.931  20.369  0.00  0.00    +0.000 A 
ATOM      6  C   UNL     1       3.523   4.153  19.363  0.00  0.00    +0.000 A 
ATOM      7  F   UNL     1       4.173   3.089  18.867  0.00  0.00    +0.000 F 
ENDROOT
BRANCH   1   9
ATOM      8  C   UNL     1       4.789   7.073  17.132  0.00  0.00    +0.000 C 
ATOM      9  C   UNL     1       4.823   5.654  17.753  0.00  0.00    +0.000 C 
ATOM     10  C   UNL     1       4.579   4.633  16.634  0.00  0.00    +0.000 C 
ATOM     11  C   UNL     1       5.817   3.950  16.071  0.00  0.00    +0.000 C 
ATOM     12  O   UNL     1       6.969   3.951  16.930  0.00  0.00    +0.000 OA
ATOM     13  C   UNL     1       7.047   4.792  17.965  0.00  0.00    +0.000 C 
ATOM     14  N   UNL     1       8.257   4.735  18.558  0.00  0.00    +0.000 N 
ATOM     15  N   UNL     1       6.137   5.577  18.370  0.00  0.00    +0.000 NA
ATOM     16  H   UNL     1       9.009   4.449  17.946  0.00  0.00    +0.000 HD
ATOM     17  H   UNL     1       8.457   5.546  19.132  0.00  0.00    +0.000 HD
BRANCH  11  18
ATOM     18  C   UNL     1       6.185   4.385  14.647  0.00  0.00    +0.000 C 
ATOM     19  F   UNL     1       7.398   4.973  14.563  0.00  0.00    +0.000 F 
ATOM     20  F   UNL     1       6.181   3.352  13.774  0.00  0.00    +0.000 F 
ATOM     21  F   UNL     1       5.279   5.289  14.190  0.00  0.00    +0.000 F 
ENDBRANCH  11  18
ENDBRANCH   1   9
BRANCH   3  22
ATOM     22  N   UNL     1       1.310   7.352  20.931  0.00  0.00    +0.000 N 
ATOM     23  C   UNL     1       1.116   8.586  20.327  0.00  0.00    +0.000 C 
ATOM     24  O   UNL     1       1.518   8.936  19.220  0.00  0.00    +0.000 OA
ATOM     25  H   UNL     1       0.798   7.207  21.797  0.00  0.00    +0.000 HD
BRANCH  23  26
ATOM     26  C   UNL     1       0.295   9.554  21.110  0.00  0.00    +0.000 A 
ATOM     27  C   UNL     1      -0.005   9.254  22.438  0.00  0.00    +0.000 A 
ATOM     28  C   UNL     1      -0.746  10.171  23.176  0.00  0.00    +0.000 A 
ATOM     29  C   UNL     1      -1.167  11.343  22.563  0.00  0.00    +0.000 A 
ATOM     30 CL   UNL     1      -2.069  12.504  23.446  0.00  0.00    +0.000 Cl
ATOM     31  C   UNL     1      -0.835  11.555  21.229  0.00  0.00    +0.000 A 
ATOM     32  N   UNL     1      -0.106  10.691  20.476  0.00  0.00    +0.000 NA
ENDBRANCH  23  26
ENDBRANCH   3  22
TORSDOF 4
ENDMDL
MODEL 2
REMARK VINA RESULT:      -9.0      4.309      7.203
REMARK  Name = 
REMARK  5 active torsions:
REMARK  status: ('A' for Active; 'I' for Inactive)
REMARK    1  A    between atoms: C_1  and  C_2
REMARK    2  A    between atoms: C_2  and  C_3
REMARK    3  A    between atoms: C_5  and  N_6
REMARK    4  A    between atoms: C_7  and  C_9
REMARK    5  A    between atoms: C_21  and  C_22
REMARK                            x       y       z     vdW  Elec       q    Type
REMARK                         _______ _______ _______ _____ _____    ______ ____
ROOT
ATOM      1  C   UNL     1       5.196   4.856  17.709  0.00  0.00    +0.000 A 
ATOM      2  C   UNL     1       5.734   6.135  17.906  0.00  0.00    +0.000 A 
ATOM      3  C   UNL     1       6.641   6.715  17.011  0.00  0.00    +0.000 A 
ATOM      4  C   UNL     1       6.995   6.017  15.852  0.00  0.00    +0.000 A 
ATOM      5  C   UNL     1       6.474   4.743  15.626  0.00  0.00    +0.000 A 
ATOM      6  C   UNL     1       5.589   4.178  16.545  0.00  0.00    +0.000 A 
ATOM      7  F   UNL     1       5.137   2.939  16.298  0.00  0.00    +0.000 F 
ENDROOT
BRANCH   1   9
ATOM      8  C   UNL     1       4.856   3.128  19.598  0.00  0.00    +0.000 C 
ATOM      9  C   UNL     1       4.213   4.213  18.699  0.00  0.00    +0.000 C 
ATOM     10  C   UNL     1       3.069   3.566  17.906  0.00  0.00    +0.000 C 
ATOM     11  C   UNL     1       1.667   3.795  18.449  0.00  0.00    +0.000 C 
ATOM     12  O   UNL     1       1.514   4.940  19.305  0.00  0.00    +0.000 OA
ATOM     13  C   UNL     1       2.580   5.525  19.858  0.00  0.00    +0.000 C 
ATOM     14  N   UNL     1       2.217   6.486  20.732  0.00  0.00    +0.000 N 
ATOM     15  N   UNL     1       3.796   5.240  19.639  0.00  0.00    +0.000 NA
ATOM     16  H   UNL     1       1.310   6.347  21.154  0.00  0.00    +0.000 HD
ATOM     17  H   UNL     1       2.957   6.735  21.378  0.00  0.00    +0.000 HD
BRANCH  11  18
ATOM     18  C   UNL     1       1.017   2.549  19.065  0.00  0.00    +0.000 C 
ATOM     19  F   UNL     1       0.017   2.039  18.313  0.00  0.00    +0.000 F 
ATOM     20  F   UNL     1       1.907   1.553  19.274  0.00  0.00    +0.000 F 
ATOM     21  F   UNL     1       0.480   2.857  20.274  0.00  0.00    +0.000 F 
ENDBRANCH  11  18
ENDBRANCH   1   9
BRANCH   3  22
ATOM     22  N   UNL     1       7.199   7.989  17.233  0.00  0.00    +0.000 N 
ATOM     23  C   UNL     1       8.138   8.301  18.205  0.00  0.00    +0.000 C 
ATOM     24  O   UNL     1       8.677   7.521  18.987  0.00  0.00    +0.000 OA
ATOM     25  H   UNL     1       6.959   8.747  16.600  0.00  0.00    +0.000 HD
BRANCH  23  26
ATOM     26  C   UNL     1       8.546   9.735  18.255  0.00  0.00    +0.000 A 
ATOM     27  C   UNL     1       9.606  10.099  19.085  0.00  0.00    +0.000 A 
ATOM     28  C   UNL     1      10.005  11.431  19.108  0.00  0.00    +0.000 A 
ATOM     29  C   UNL     1       9.331  12.348  18.315  0.00  0.00    +0.000 A 
ATOM     30 CL   UNL     1       9.805  13.997  18.305  0.00  0.00    +0.000 Cl
ATOM     31  C   UNL     1       8.275  11.901  17.527  0.00  0.00    +0.000 A 
ATOM     32  N   UNL     1       7.859  10.609  17.468  0.00  0.00    +0.000 NA
ENDBRANCH  23  26
ENDBRANCH   3  22
TORSDOF 4
ENDMDL
MODEL 3
REMARK VINA RESULT:      -9.0      1.066      1.478
REMARK  Name = 
REMARK  5 active torsions:
REMARK  status: ('A' for Active; 'I' for Inactive)
REMARK    1  A    between atoms: C_1  and  C_2
REMARK    2  A    between atoms: C_2  and  C_3
REMARK    3  A    between atoms: C_5  and  N_6
REMARK    4  A    between atoms: C_7  and  C_9
REMARK    5  A    between atoms: C_21  and  C_22
REMARK                            x       y       z     vdW  Elec       q    Type
REMARK                         _______ _______ _______ _____ _____    ______ ____
ROOT
ATOM      1  C   UNL     1       3.615   5.969  18.907  0.00  0.00    +0.000 A 
ATOM      2  C   UNL     1       2.834   7.088  19.225  0.00  0.00    +0.000 A 
ATOM      3  C   UNL     1       1.815   7.044  20.184  0.00  0.00    +0.000 A 
ATOM      4  C   UNL     1       1.591   5.856  20.887  0.00  0.00    +0.000 A 
ATOM      5  C   UNL     1       2.354   4.726  20.595  0.00  0.00    +0.000 A 
ATOM      6  C   UNL     1       3.349   4.789  19.619  0.00  0.00    +0.000 A 
ATOM      7  F   UNL     1       4.038   3.668  19.353  0.00  0.00    +0.000 F 
ENDROOT
BRANCH   1   9
ATOM      8  C   UNL     1       4.790   7.351  17.069  0.00  0.00    +0.000 C 
ATOM      9  C   UNL     1       4.722   6.012  17.844  0.00  0.00    +0.000 C 
ATOM     10  C   UNL     1       4.478   4.883  16.833  0.00  0.00    +0.000 C 
ATOM     11  C   UNL     1       5.704   4.085  16.413  0.00  0.00    +0.000 C 
ATOM     12  O   UNL     1       6.814   4.130  17.325  0.00  0.00    +0.000 OA
ATOM     13  C   UNL     1       6.887   5.078  18.263  0.00  0.00    +0.000 C 
ATOM     14  N   UNL     1       8.065   5.033  18.920  0.00  0.00    +0.000 N 
ATOM     15  N   UNL     1       6.001   5.945  18.532  0.00  0.00    +0.000 NA
ATOM     16  H   UNL     1       8.828   4.645  18.383  0.00  0.00    +0.000 HD
ATOM     17  H   UNL     1       8.279   5.893  19.410  0.00  0.00    +0.000 HD
BRANCH  11  18
ATOM     18  C   UNL     1       6.158   4.339  14.970  0.00  0.00    +0.000 C 
ATOM     19  F   UNL     1       6.125   3.232  14.196  0.00  0.00    +0.000 F 
ATOM     20  F   UNL     1       5.410   5.281  14.351  0.00  0.00    +0.000 F 
ATOM     21  F   UNL     1       7.441   4.786  14.960  0.00  0.00    +0.000 F 
ENDBRANCH  11  18
ENDBRANCH   1   9
BRANCH   3  22
ATOM     22  N   UNL     1       1.015   8.166  20.476  0.00  0.00    +0.000 N 
ATOM     23  C   UNL     1       1.162   8.999  21.576  0.00  0.00    +0.000 C 
ATOM     24  O   UNL     1       2.037   8.936  22.436  0.00  0.00    +0.000 OA
ATOM     25  H   UNL     1       0.303   8.449  19.809  0.00  0.00    +0.000 HD
BRANCH  23  26
ATOM     26  C   UNL     1       0.163  10.102  21.674  0.00  0.00    +0.000 A 
ATOM     27  C   UNL     1      -0.340  10.654  20.498  0.00  0.00    +0.000 A 
ATOM     28  C   UNL     1      -1.293  11.664  20.591  0.00  0.00    +0.000 A 
ATOM     29  C   UNL     1      -1.700  12.089  21.847  0.00  0.00    +0.000 A 
ATOM     30 CL   UNL     1      -2.885  13.319  22.002  0.00  0.00    +0.000 Cl
ATOM     31  C   UNL     1      -1.135  11.492  22.970  0.00  0.00    +0.000 A 
ATOM     32  N   UNL     1      -0.209  10.499  22.923  0.00  0.00    +0.000 NA
ENDBRANCH  23  26
ENDBRANCH   3  22
TORSDOF 4
ENDMDL
MODEL 4
REMARK VINA RESULT:      -8.9      4.635      7.141
REMARK  Name = 
REMARK  5 active torsions:
REMARK  status: ('A' for Active; 'I' for Inactive)
REMARK    1  A    between atoms: C_1  and  C_2
REMARK    2  A    between atoms: C_2  and  C_3
REMARK    3  A    between atoms: C_5  and  N_6
REMARK    4  A    between atoms: C_7  and  C_9
REMARK    5  A    between atoms: C_21  and  C_22
REMARK                            x       y       z     vdW  Elec       q    Type
REMARK                         _______ _______ _______ _____ _____    ______ ____
ROOT
ATOM      1  C   UNL     1       5.202   4.783  17.099  0.00  0.00    +0.000 A 
ATOM      2  C   UNL     1       5.689   6.058  17.419  0.00  0.00    +0.000 A 
ATOM      3  C   UNL     1       6.768   6.641  16.743  0.00  0.00    +0.000 A 
ATOM      4  C   UNL     1       7.360   5.951  15.680  0.00  0.00    +0.000 A 
ATOM      5  C   UNL     1       6.896   4.681  15.337  0.00  0.00    +0.000 A 
ATOM      6  C   UNL     1       5.833   4.112  16.040  0.00  0.00    +0.000 A 
ATOM      7  F   UNL     1       5.440   2.878  15.692  0.00  0.00    +0.000 F 
ENDROOT
BRANCH   1   9
ATOM      8  C   UNL     1       2.919   3.589  16.919  0.00  0.00    +0.000 C 
ATOM      9  C   UNL     1       4.029   4.137  17.851  0.00  0.00    +0.000 C 
ATOM     10  C   UNL     1       3.403   5.185  18.780  0.00  0.00    +0.000 C 
ATOM     11  C   UNL     1       3.055   4.712  20.184  0.00  0.00    +0.000 C 
ATOM     12  O   UNL     1       3.764   3.546  20.638  0.00  0.00    +0.000 OA
ATOM     13  C   UNL     1       4.392   2.750  19.769  0.00  0.00    +0.000 C 
ATOM     14  N   UNL     1       4.874   1.643  20.372  0.00  0.00    +0.000 N 
ATOM     15  N   UNL     1       4.532   2.951  18.524  0.00  0.00    +0.000 NA
ATOM     16  H   UNL     1       4.365   1.363  21.199  0.00  0.00    +0.000 HD
ATOM     17  H   UNL     1       5.080   0.895  19.722  0.00  0.00    +0.000 HD
BRANCH  11  18
ATOM     18  C   UNL     1       1.550   4.587  20.452  0.00  0.00    +0.000 C 
ATOM     19  F   UNL     1       0.971   5.754  20.811  0.00  0.00    +0.000 F 
ATOM     20  F   UNL     1       0.871   4.118  19.381  0.00  0.00    +0.000 F 
ATOM     21  F   UNL     1       1.332   3.713  21.469  0.00  0.00    +0.000 F 
ENDBRANCH  11  18
ENDBRANCH   1   9
BRANCH   3  22
ATOM     22  N   UNL     1       7.270   7.910  17.091  0.00  0.00    +0.000 N 
ATOM     23  C   UNL     1       8.095   8.185  18.171  0.00  0.00    +0.000 C 
ATOM     24  O   UNL     1       8.570   7.372  18.961  0.00  0.00    +0.000 OA
ATOM     25  H   UNL     1       7.078   8.699  16.479  0.00  0.00    +0.000 HD
BRANCH  23  26
ATOM     26  C   UNL     1       8.462   9.620  18.341  0.00  0.00    +0.000 A 
ATOM     27  C   UNL     1       9.342   9.968  19.364  0.00  0.00    +0.000 A 
ATOM     28  C   UNL     1       9.706  11.304  19.503  0.00  0.00    +0.000 A 
ATOM     29  C   UNL     1       9.175  12.239  18.627  0.00  0.00    +0.000 A 
ATOM     30 CL   UNL     1       9.613  13.892  18.757  0.00  0.00    +0.000 Cl
ATOM     31  C   UNL     1       8.292  11.806  17.642  0.00  0.00    +0.000 A 
ATOM     32  N   UNL     1       7.918  10.512  17.467  0.00  0.00    +0.000 NA
ENDBRANCH  23  26
ENDBRANCH   3  22
TORSDOF 4
ENDMDL
MODEL 5
REMARK VINA RESULT:      -8.9      4.267      7.239
REMARK  Name = 
REMARK  5 active torsions:
REMARK  status: ('A' for Active; 'I' for Inactive)
REMARK    1  A    between atoms: C_1  and  C_2
REMARK    2  A    between atoms: C_2  and  C_3
REMARK    3  A    between atoms: C_5  and  N_6
REMARK    4  A    between atoms: C_7  and  C_9
REMARK    5  A    between atoms: C_21  and  C_22
REMARK                            x       y       z     vdW  Elec       q    Type
REMARK                         _______ _______ _______ _____ _____    ______ ____
ROOT
ATOM      1  C   UNL     1       5.188   4.911  17.751  0.00  0.00    +0.000 A 
ATOM      2  C   UNL     1       5.755   6.173  17.977  0.00  0.00    +0.000 A 
ATOM      3  C   UNL     1       6.657   6.762  17.083  0.00  0.00    +0.000 A 
ATOM      4  C   UNL     1       6.977   6.093  15.898  0.00  0.00    +0.000 A 
ATOM      5  C   UNL     1       6.427   4.836  15.643  0.00  0.00    +0.000 A 
ATOM      6  C   UNL     1       5.547   4.261  16.560  0.00  0.00    +0.000 A 
ATOM      7  F   UNL     1       5.066   3.039  16.285  0.00  0.00    +0.000 F 
ENDROOT
BRANCH   1   9
ATOM      8  C   UNL     1       4.861   3.174  19.635  0.00  0.00    +0.000 C 
ATOM      9  C   UNL     1       4.210   4.258  18.739  0.00  0.00    +0.000 C 
ATOM     10  C   UNL     1       3.071   3.604  17.944  0.00  0.00    +0.000 C 
ATOM     11  C   UNL     1       1.667   3.821  18.488  0.00  0.00    +0.000 C 
ATOM     12  O   UNL     1       1.505   4.962  19.348  0.00  0.00    +0.000 OA
ATOM     13  C   UNL     1       2.567   5.553  19.903  0.00  0.00    +0.000 C 
ATOM     14  N   UNL     1       2.197   6.509  20.780  0.00  0.00    +0.000 N 
ATOM     15  N   UNL     1       3.785   5.278  19.683  0.00  0.00    +0.000 NA
ATOM     16  H   UNL     1       1.291   6.362  21.202  0.00  0.00    +0.000 HD
ATOM     17  H   UNL     1       2.935   6.761  21.427  0.00  0.00    +0.000 HD
BRANCH  11  18
ATOM     18  C   UNL     1       1.027   2.569  19.100  0.00  0.00    +0.000 C 
ATOM     19  F   UNL     1       0.531   2.773  20.340  0.00  0.00    +0.000 F 
ATOM     20  F   UNL     1       0.018   2.081  18.342  0.00  0.00    +0.000 F 
ATOM     21  F   UNL     1       1.953   1.580  19.206  0.00  0.00    +0.000 F 
ENDBRANCH  11  18
ENDBRANCH   1   9
BRANCH   3  22
ATOM     22  N   UNL     1       7.244   8.017  17.333  0.00  0.00    +0.000 N 
ATOM     23  C   UNL     1       8.179   8.290  18.321  0.00  0.00    +0.000 C 
ATOM     24  O   UNL     1       8.689   7.484  19.095  0.00  0.00    +0.000 OA
ATOM     25  H   UNL     1       7.030   8.792  16.711  0.00  0.00    +0.000 HD
BRANCH  23  26
ATOM     26  C   UNL     1       8.623   9.712  18.399  0.00  0.00    +0.000 A 
ATOM     27  C   UNL     1       8.087  10.630  17.497  0.00  0.00    +0.000 A 
ATOM     28  C   UNL     1       8.480  11.961  17.591  0.00  0.00    +0.000 A 
ATOM     29  C   UNL     1       9.394  12.324  18.569  0.00  0.00    +0.000 A 
ATOM     30 CL   UNL     1       9.889  13.959  18.725  0.00  0.00    +0.000 Cl
ATOM     31  C   UNL     1       9.888  11.341  19.420  0.00  0.00    +0.000 A 
ATOM     32  N   UNL     1       9.525  10.033  19.368  0.00  0.00    +0.000 NA
ENDBRANCH  23  26
ENDBRANCH   3  22
TORSDOF 4
ENDMDL
MODEL 6
REMARK VINA RESULT:      -8.7      4.733      7.366
REMARK  Name = 
REMARK  5 active torsions:
REMARK  status: ('A' for Active; 'I' for Inactive)
REMARK    1  A    between atoms: C_1  and  C_2
REMARK    2  A    between atoms: C_2  and  C_3
REMARK    3  A    between atoms: C_5  and  N_6
REMARK    4  A    between atoms: C_7  and  C_9
REMARK    5  A    between atoms: C_21  and  C_22
REMARK                            x       y       z     vdW  Elec       q    Type
REMARK                         _______ _______ _______ _____ _____    ______ ____
ROOT
ATOM      1  C   UNL     1       4.843   5.460  17.433  0.00  0.00    +0.000 A 
ATOM      2  C   UNL     1       5.445   6.708  17.644  0.00  0.00    +0.000 A 
ATOM      3  C   UNL     1       6.657   7.068  17.042  0.00  0.00    +0.000 A 
ATOM      4  C   UNL     1       7.273   6.173  16.162  0.00  0.00    +0.000 A 
ATOM      5  C   UNL     1       6.697   4.924  15.930  0.00  0.00    +0.000 A 
ATOM      6  C   UNL     1       5.500   4.580  16.560  0.00  0.00    +0.000 A 
ATOM      7  F   UNL     1       4.998   3.357  16.327  0.00  0.00    +0.000 F 
ENDROOT
BRANCH   1   9
ATOM      8  C   UNL     1       2.379   6.085  17.897  0.00  0.00    +0.000 C 
ATOM      9  C   UNL     1       3.521   5.059  18.106  0.00  0.00    +0.000 C 
ATOM     10  C   UNL     1       3.763   4.909  19.614  0.00  0.00    +0.000 C 
ATOM     11  C   UNL     1       3.129   3.693  20.274  0.00  0.00    +0.000 C 
ATOM     12  O   UNL     1       2.812   2.604  19.391  0.00  0.00    +0.000 OA
ATOM     13  C   UNL     1       2.745   2.794  18.071  0.00  0.00    +0.000 C 
ATOM     14  N   UNL     1       2.300   1.691  17.435  0.00  0.00    +0.000 N 
ATOM     15  N   UNL     1       3.034   3.859  17.446  0.00  0.00    +0.000 NA
ATOM     16  H   UNL     1       1.707   1.095  17.997  0.00  0.00    +0.000 HD
ATOM     17  H   UNL     1       1.954   1.883  16.502  0.00  0.00    +0.000 HD
BRANCH  11  18
ATOM     18  C   UNL     1       1.950   4.021  21.199  0.00  0.00    +0.000 C 
ATOM     19  F   UNL     1       1.691   5.344  21.289  0.00  0.00    +0.000 F 
ATOM     20  F   UNL     1       0.804   3.416  20.809  0.00  0.00    +0.000 F 
ATOM     21  F   UNL     1       2.215   3.587  22.459  0.00  0.00    +0.000 F 
ENDBRANCH  11  18
ENDBRANCH   1   9
BRANCH   3  22
ATOM     22  N   UNL     1       7.270   8.313  17.282  0.00  0.00    +0.000 N 
ATOM     23  C   UNL     1       8.226   8.568  18.255  0.00  0.00    +0.000 C 
ATOM     24  O   UNL     1       8.735   7.752  19.019  0.00  0.00    +0.000 OA
ATOM     25  H   UNL     1       7.060   9.092  16.665  0.00  0.00    +0.000 HD
BRANCH  23  26
ATOM     26  C   UNL     1       8.696   9.982  18.327  0.00  0.00    +0.000 A 
ATOM     27  C   UNL     1       9.771  10.287  19.161  0.00  0.00    +0.000 A 
ATOM     28  C   UNL     1      10.226  11.600  19.205  0.00  0.00    +0.000 A 
ATOM     29  C   UNL     1       9.592  12.558  18.428  0.00  0.00    +0.000 A 
ATOM     30 CL   UNL     1      10.136  14.184  18.444  0.00  0.00    +0.000 Cl
ATOM     31  C   UNL     1       8.517  12.169  17.635  0.00  0.00    +0.000 A 
ATOM     32  N   UNL     1       8.046  10.897  17.556  0.00  0.00    +0.000 NA
ENDBRANCH  23  26
ENDBRANCH   3  22
TORSDOF 4
ENDMDL
MODEL 7
REMARK VINA RESULT:      -8.7      4.864      7.253
REMARK  Name = 
REMARK  5 active torsions:
REMARK  status: ('A' for Active; 'I' for Inactive)
REMARK    1  A    between atoms: C_1  and  C_2
REMARK    2  A    between atoms: C_2  and  C_3
REMARK    3  A    between atoms: C_5  and  N_6
REMARK    4  A    between atoms: C_7  and  C_9
REMARK    5  A    between atoms: C_21  and  C_22
REMARK                            x       y       z     vdW  Elec       q    Type
REMARK                         _______ _______ _______ _____ _____    ______ ____
ROOT
ATOM      1  C   UNL     1       4.971   4.981  17.185  0.00  0.00    +0.000 A 
ATOM      2  C   UNL     1       5.542   6.211  17.540  0.00  0.00    +0.000 A 
ATOM      3  C   UNL     1       6.650   6.746  16.872  0.00  0.00    +0.000 A 
ATOM      4  C   UNL     1       7.186   6.056  15.780  0.00  0.00    +0.000 A 
ATOM      5  C   UNL     1       6.638   4.830  15.401  0.00  0.00    +0.000 A 
ATOM      6  C   UNL     1       5.547   4.307  16.097  0.00  0.00    +0.000 A 
ATOM      7  F   UNL     1       5.073   3.112  15.712  0.00  0.00    +0.000 F 
ENDROOT
BRANCH   1   9
ATOM      8  C   UNL     1       2.398   4.800  17.328  0.00  0.00    +0.000 C 
ATOM      9  C   UNL     1       3.765   4.386  17.928  0.00  0.00    +0.000 C 
ATOM     10  C   UNL     1       3.810   4.852  19.390  0.00  0.00    +0.000 C 
ATOM     11  C   UNL     1       3.513   3.791  20.438  0.00  0.00    +0.000 C 
ATOM     12  O   UNL     1       3.705   2.431  20.015  0.00  0.00    +0.000 OA
ATOM     13  C   UNL     1       3.782   2.126  18.717  0.00  0.00    +0.000 C 
ATOM     14  N   UNL     1       3.821   0.791  18.525  0.00  0.00    +0.000 N 
ATOM     15  N   UNL     1       3.801   2.945  17.748  0.00  0.00    +0.000 NA
ATOM     16  H   UNL     1       3.376   0.251  19.253  0.00  0.00    +0.000 HD
ATOM     17  H   UNL     1       3.578   0.519  17.580  0.00  0.00    +0.000 HD
BRANCH  11  18
ATOM     18  C   UNL     1       2.165   3.967  21.149  0.00  0.00    +0.000 C 
ATOM     19  F   UNL     1       1.719   5.243  21.145  0.00  0.00    +0.000 F 
ATOM     20  F   UNL     1       1.190   3.203  20.605  0.00  0.00    +0.000 F 
ATOM     21  F   UNL     1       2.276   3.595  22.451  0.00  0.00    +0.000 F 
ENDBRANCH  11  18
ENDBRANCH   1   9
BRANCH   3  22
ATOM     22  N   UNL     1       7.235   7.968  17.255  0.00  0.00    +0.000 N 
ATOM     23  C   UNL     1       8.142   8.140  18.290  0.00  0.00    +0.000 C 
ATOM     24  O   UNL     1       8.626   7.261  19.000  0.00  0.00    +0.000 OA
ATOM     25  H   UNL     1       7.043   8.799  16.702  0.00  0.00    +0.000 HD
BRANCH  23  26
ATOM     26  C   UNL     1       8.589   9.545  18.515  0.00  0.00    +0.000 A 
ATOM     27  C   UNL     1       8.275  10.508  17.557  0.00  0.00    +0.000 A 
ATOM     28  C   UNL     1       8.668  11.823  17.782  0.00  0.00    +0.000 A 
ATOM     29  C   UNL     1       9.364  12.127  18.942  0.00  0.00    +0.000 A 
ATOM     30 CL   UNL     1       9.851  13.740  19.261  0.00  0.00    +0.000 Cl
ATOM     31  C   UNL     1       9.648  11.101  19.839  0.00  0.00    +0.000 A 
ATOM     32  N   UNL     1       9.275   9.807  19.662  0.00  0.00    +0.000 NA
ENDBRANCH  23  26
ENDBRANCH   3  22
TORSDOF 4
ENDMDL
MODEL 8
REMARK VINA RESULT:      -8.4      1.099      1.209
REMARK  Name = 
REMARK  5 active torsions:
REMARK  status: ('A' for Active; 'I' for Inactive)
REMARK    1  A    between atoms: C_1  and  C_2
REMARK    2  A    between atoms: C_2  and  C_3
REMARK    3  A    between atoms: C_5  and  N_6
REMARK    4  A    between atoms: C_7  and  C_9
REMARK    5  A    between atoms: C_21  and  C_22
REMARK                            x       y       z     vdW  Elec       q    Type
REMARK                         _______ _______ _______ _____ _____    ______ ____
ROOT
ATOM      1  C   UNL     1       3.845   5.929  18.403  0.00  0.00    +0.000 A 
ATOM      2  C   UNL     1       3.031   7.048  18.630  0.00  0.00    +0.000 A 
ATOM      3  C   UNL     1       2.069   7.083  19.646  0.00  0.00    +0.000 A 
ATOM      4  C   UNL     1       1.937   5.983  20.498  0.00  0.00    +0.000 A 
ATOM      5  C   UNL     1       2.734   4.855  20.299  0.00  0.00    +0.000 A 
ATOM      6  C   UNL     1       3.671   4.836  19.266  0.00  0.00    +0.000 A 
ATOM      7  F   UNL     1       4.395   3.719  19.097  0.00  0.00    +0.000 F 
ENDROOT
BRANCH   1   9
ATOM      8  C   UNL     1       5.088   7.241  16.557  0.00  0.00    +0.000 C 
ATOM      9  C   UNL     1       4.890   5.885  17.279  0.00  0.00    +0.000 C 
ATOM     10  C   UNL     1       4.449   4.846  16.238  0.00  0.00    +0.000 C 
ATOM     11  C   UNL     1       5.537   3.922  15.713  0.00  0.00    +0.000 C 
ATOM     12  O   UNL     1       6.691   3.782  16.559  0.00  0.00    +0.000 OA
ATOM     13  C   UNL     1       6.936   4.666  17.530  0.00  0.00    +0.000 C 
ATOM     14  N   UNL     1       8.131   4.441  18.113  0.00  0.00    +0.000 N 
ATOM     15  N   UNL     1       6.184   5.624  17.886  0.00  0.00    +0.000 NA
ATOM     16  H   UNL     1       8.809   3.987  17.516  0.00  0.00    +0.000 HD
ATOM     17  H   UNL     1       8.480   5.242  18.625  0.00  0.00    +0.000 HD
BRANCH  11  18
ATOM     18  C   UNL     1       5.943   4.186  14.258  0.00  0.00    +0.000 C 
ATOM     19  F   UNL     1       6.603   5.353  14.090  0.00  0.00    +0.000 F 
ATOM     20  F   UNL     1       6.728   3.207  13.754  0.00  0.00    +0.000 F 
ATOM     21  F   UNL     1       4.836   4.247  13.472  0.00  0.00    +0.000 F 
ENDBRANCH  11  18
ENDBRANCH   1   9
BRANCH   3  22
ATOM     22  N   UNL     1       1.236   8.201  19.848  0.00  0.00    +0.000 N 
ATOM     23  C   UNL     1       1.085   8.891  21.041  0.00  0.00    +0.000 C 
ATOM     24  O   UNL     1       1.686   8.685  22.093  0.00  0.00    +0.000 OA
ATOM     25  H   UNL     1       0.741   8.595  19.052  0.00  0.00    +0.000 HD
BRANCH  23  26
ATOM     26  C   UNL     1       0.114  10.023  21.002  0.00  0.00    +0.000 A 
ATOM     27  C   UNL     1      -0.222  10.656  22.197  0.00  0.00    +0.000 A 
ATOM     28  C   UNL     1      -1.106  11.730  22.155  0.00  0.00    +0.000 A 
ATOM     29  C   UNL     1      -1.625  12.125  20.931  0.00  0.00    +0.000 A 
ATOM     30 CL   UNL     1      -2.704  13.455  20.837  0.00  0.00    +0.000 Cl
ATOM     31  C   UNL     1      -1.246  11.427  19.788  0.00  0.00    +0.000 A 
ATOM     32  N   UNL     1      -0.381  10.380  19.784  0.00  0.00    +0.000 NA
ENDBRANCH  23  26
ENDBRANCH   3  22
TORSDOF 4
ENDMDL
MODEL 9
REMARK VINA RESULT:      -8.4      1.057      1.350
REMARK  Name = 
REMARK  5 active torsions:
REMARK  status: ('A' for Active; 'I' for Inactive)
REMARK    1  A    between atoms: C_1  and  C_2
REMARK    2  A    between atoms: C_2  and  C_3
REMARK    3  A    between atoms: C_5  and  N_6
REMARK    4  A    between atoms: C_7  and  C_9
REMARK    5  A    between atoms: C_21  and  C_22
REMARK                            x       y       z     vdW  Elec       q    Type
REMARK                         _______ _______ _______ _____ _____    ______ ____
ROOT
ATOM      1  C   UNL     1       3.929   5.700  18.390  0.00  0.00    +0.000 A 
ATOM      2  C   UNL     1       3.164   6.821  18.739  0.00  0.00    +0.000 A 
ATOM      3  C   UNL     1       2.241   6.803  19.792  0.00  0.00    +0.000 A 
ATOM      4  C   UNL     1       2.102   5.640  20.556  0.00  0.00    +0.000 A 
ATOM      5  C   UNL     1       2.851   4.507  20.233  0.00  0.00    +0.000 A 
ATOM      6  C   UNL     1       3.749   4.545  19.166  0.00  0.00    +0.000 A 
ATOM      7  F   UNL     1       4.426   3.423  18.877  0.00  0.00    +0.000 F 
ENDROOT
BRANCH   1   9
ATOM      8  C   UNL     1       5.072   7.100  16.544  0.00  0.00    +0.000 C 
ATOM      9  C   UNL     1       4.930   5.716  17.225  0.00  0.00    +0.000 C 
ATOM     10  C   UNL     1       4.470   4.704  16.166  0.00  0.00    +0.000 C 
ATOM     11  C   UNL     1       5.555   3.821  15.569  0.00  0.00    +0.000 C 
ATOM     12  O   UNL     1       6.744   3.678  16.365  0.00  0.00    +0.000 OA
ATOM     13  C   UNL     1       7.008   4.534  17.355  0.00  0.00    +0.000 C 
ATOM     14  N   UNL     1       8.230   4.314  17.884  0.00  0.00    +0.000 N 
ATOM     15  N   UNL     1       6.252   5.462  17.773  0.00  0.00    +0.000 NA
ATOM     16  H   UNL     1       8.892   3.895  17.247  0.00  0.00    +0.000 HD
ATOM     17  H   UNL     1       8.583   5.105  18.410  0.00  0.00    +0.000 HD
BRANCH  11  18
ATOM     18  C   UNL     1       5.898   4.144  14.109  0.00  0.00    +0.000 C 
ATOM     19  F   UNL     1       4.820   4.151  13.295  0.00  0.00    +0.000 F 
ATOM     20  F   UNL     1       6.507   5.344  13.975  0.00  0.00    +0.000 F 
ATOM     21  F   UNL     1       6.755   3.211  13.618  0.00  0.00    +0.000 F 
ENDBRANCH  11  18
ENDBRANCH   1   9
BRANCH   3  22
ATOM     22  N   UNL     1       1.456   7.925  20.117  0.00  0.00    +0.000 N 
ATOM     23  C   UNL     1       1.242   9.026  19.300  0.00  0.00    +0.000 C 
ATOM     24  O   UNL     1       1.645   9.179  18.150  0.00  0.00    +0.000 OA
ATOM     25  H   UNL     1       0.940   7.927  20.993  0.00  0.00    +0.000 HD
BRANCH  23  26
ATOM     26  C   UNL     1       0.394  10.101  19.892  0.00  0.00    +0.000 A 
ATOM     27  C   UNL     1       0.747  10.620  21.137  0.00  0.00    +0.000 A 
ATOM     28  C   UNL     1      -0.028  11.643  21.674  0.00  0.00    +0.000 A 
ATOM     29  C   UNL     1      -1.125  12.101  20.960  0.00  0.00    +0.000 A 
ATOM     30 CL   UNL     1      -2.094  13.371  21.583  0.00  0.00    +0.000 Cl
ATOM     31  C   UNL     1      -1.414  11.516  19.731  0.00  0.00    +0.000 A 
ATOM     32  N   UNL     1      -0.679  10.522  19.166  0.00  0.00    +0.000 NA
ENDBRANCH  23  26
ENDBRANCH   3  22
TORSDOF 4
ENDMDL
