MODEL 1
REMARK VINA RESULT:      -7.5      0.000      0.000
REMARK  Name = 
REMARK  6 active torsions:
REMARK  status: ('A' for Active; 'I' for Inactive)
REMARK    1  A    between atoms: C_1  and  C_2
REMARK    2  A    between atoms: C_5  and  C_6
REMARK    3  A    between atoms: C_9  and  C_10
REMARK    4  A    between atoms: C_10  and  N_11
REMARK    5  A    between atoms: C_12  and  C_14
REMARK    6  A    between atoms: C_14  and  N_15
REMARK                            x       y       z     vdW  Elec       q    Type
REMARK                         _______ _______ _______ _____ _____    ______ ____
ROOT
ATOM      1  C   UNL     1       5.813   4.248  17.893  0.00  0.00    +0.000 A 
ATOM      2  N   UNL     1       7.075   4.511  18.171  0.00  0.00    +0.000 NA
ATOM      3  N   UNL     1       7.725   4.653  16.968  0.00  0.00    +0.000 NA
ATOM      4  C   UNL     1       6.814   4.478  16.034  0.00  0.00    +0.000 A 
ATOM      5  O   UNL     1       5.570   4.204  16.540  0.00  0.00    +0.000 OA
ENDROOT
BRANCH   1  10
ATOM      6  C   UNL     1       1.342   3.228  21.428  0.00  0.00    +0.000 C 
ATOM      7  C   UNL     1       2.512   3.497  20.528  0.00  0.00    +0.000 A 
ATOM      8  C   UNL     1       3.255   2.447  19.984  0.00  0.00    +0.000 A 
ATOM      9  C   UNL     1       4.333   2.712  19.133  0.00  0.00    +0.000 A 
ATOM     10  C   UNL     1       4.697   4.029  18.808  0.00  0.00    +0.000 A 
ATOM     11  C   UNL     1       3.956   5.078  19.368  0.00  0.00    +0.000 A 
ATOM     12  C   UNL     1       2.872   4.814  20.217  0.00  0.00    +0.000 A 
ENDBRANCH   1  10
BRANCH   4  13
ATOM     13  C   UNL     1       6.965   4.639  14.566  0.00  0.00    +0.000 C 
BRANCH  13  14
ATOM     14  N   UNL     1       6.177   3.690  13.810  0.00  0.00    +0.000 N 
ATOM     15  C   UNL     1       6.397   3.545  12.460  0.00  0.00    +0.000 C 
ATOM     16  O   UNL     1       7.223   4.216  11.845  0.00  0.00    +0.000 OA
ATOM     17  H   UNL     1       5.527   3.045  14.253  0.00  0.00    +0.000 HD
BRANCH  15  18
ATOM     18  C   UNL     1       5.501   2.520  11.761  0.00  0.00    +0.000 C 
BRANCH  18  19
ATOM     19  N   UNL     1       6.260   1.315  11.388  0.00  0.00    +0.000 NA
ATOM     20  H   UNL     1       5.627   0.511  11.424  0.00  0.00    +0.000 HD
ATOM     21  H   UNL     1       6.944   1.135  12.130  0.00  0.00    +0.000 HD
ENDBRANCH  18  19
ENDBRANCH  15  18
ENDBRANCH  13  14
ENDBRANCH   4  13
TORSDOF 5
ENDMDL
MODEL 2
REMARK VINA RESULT:      -7.4      0.297      1.145
REMARK  Name = 
REMARK  6 active torsions:
REMARK  status: ('A' for Active; 'I' for Inactive)
REMARK    1  A    between atoms: C_1  and  C_2
REMARK    2  A    between atoms: C_5  and  C_6
REMARK    3  A    between atoms: C_9  and  C_10
REMARK    4  A    between atoms: C_10  and  N_11
REMARK    5  A    between atoms: C_12  and  C_14
REMARK    6  A    between atoms: C_14  and  N_15
REMARK                            x       y       z     vdW  Elec       q    Type
REMARK                         _______ _______ _______ _____ _____    ______ ____
ROOT
ATOM      1  C   UNL     1       5.640   4.133  17.785  0.00  0.00    +0.000 A 
ATOM      2  N   UNL     1       6.854   4.524  18.120  0.00  0.00    +0.000 NA
ATOM      3  N   UNL     1       7.551   4.706  16.949  0.00  0.00    +0.000 NA
ATOM      4  C   UNL     1       6.711   4.423  15.973  0.00  0.00    +0.000 A 
ATOM      5  O   UNL     1       5.475   4.038  16.422  0.00  0.00    +0.000 OA
ENDROOT
BRANCH   1  10
ATOM      6  C   UNL     1       1.202   3.018  21.331  0.00  0.00    +0.000 C 
ATOM      7  C   UNL     1       2.339   3.308  20.396  0.00  0.00    +0.000 A 
ATOM      8  C   UNL     1       2.936   4.570  20.364  0.00  0.00    +0.000 A 
ATOM      9  C   UNL     1       4.006   4.822  19.499  0.00  0.00    +0.000 A 
ATOM     10  C   UNL     1       4.504   3.824  18.646  0.00  0.00    +0.000 A 
ATOM     11  C   UNL     1       3.891   2.564  18.674  0.00  0.00    +0.000 A 
ATOM     12  C   UNL     1       2.822   2.308  19.544  0.00  0.00    +0.000 A 
ENDBRANCH   1  10
BRANCH   4  13
ATOM     13  C   UNL     1       6.924   4.569  14.512  0.00  0.00    +0.000 C 
BRANCH  13  14
ATOM     14  N   UNL     1       6.192   3.593  13.735  0.00  0.00    +0.000 N 
ATOM     15  C   UNL     1       6.438   3.471  12.387  0.00  0.00    +0.000 C 
ATOM     16  O   UNL     1       7.241   4.186  11.791  0.00  0.00    +0.000 OA
ATOM     17  H   UNL     1       5.566   2.913  14.162  0.00  0.00    +0.000 HD
BRANCH  15  18
ATOM     18  C   UNL     1       5.601   2.413  11.665  0.00  0.00    +0.000 C 
BRANCH  18  19
ATOM     19  N   UNL     1       6.431   1.271  11.247  0.00  0.00    +0.000 NA
ATOM     20  H   UNL     1       7.150   1.118  11.960  0.00  0.00    +0.000 HD
ATOM     21  H   UNL     1       6.953   1.554  10.412  0.00  0.00    +0.000 HD
ENDBRANCH  18  19
ENDBRANCH  15  18
ENDBRANCH  13  14
ENDBRANCH   4  13
TORSDOF 5
ENDMDL
MODEL 3
REMARK VINA RESULT:      -7.4      1.376      1.379
REMARK  Name = 
REMARK  6 active torsions:
REMARK  status: ('A' for Active; 'I' for Inactive)
REMARK    1  A    between atoms: C_1  and  C_2
REMARK    2  A    between atoms: C_5  and  C_6
REMARK    3  A    between atoms: C_9  and  C_10
REMARK    4  A    between atoms: C_10  and  N_11
REMARK    5  A    between atoms: C_12  and  C_14
REMARK    6  A    between atoms: C_14  and  N_15
REMARK                            x       y       z     vdW  Elec       q    Type
REMARK                         _______ _______ _______ _____ _____    ______ ____
ROOT
ATOM      1  C   UNL     1       4.521   5.110  17.155  0.00  0.00    +0.000 A 
ATOM      2  N   UNL     1       4.584   6.350  16.711  0.00  0.00    +0.000 NA
ATOM      3  N   UNL     1       5.474   6.352  15.663  0.00  0.00    +0.000 NA
ATOM      4  C   UNL     1       5.888   5.109  15.528  0.00  0.00    +0.000 A 
ATOM      5  O   UNL     1       5.337   4.256  16.449  0.00  0.00    +0.000 OA
ENDROOT
BRANCH   1  10
ATOM      6  C   UNL     1       1.388   2.770  21.425  0.00  0.00    +0.000 C 
ATOM      7  C   UNL     1       2.204   3.393  20.330  0.00  0.00    +0.000 A 
ATOM      8  C   UNL     1       3.494   2.937  20.050  0.00  0.00    +0.000 A 
ATOM      9  C   UNL     1       4.237   3.516  19.016  0.00  0.00    +0.000 A 
ATOM     10  C   UNL     1       3.713   4.562  18.239  0.00  0.00    +0.000 A 
ATOM     11  C   UNL     1       2.424   5.024  18.535  0.00  0.00    +0.000 A 
ATOM     12  C   UNL     1       1.676   4.442  19.568  0.00  0.00    +0.000 A 
ENDBRANCH   1  10
BRANCH   4  13
ATOM     13  C   UNL     1       6.767   4.546  14.474  0.00  0.00    +0.000 C 
BRANCH  13  14
ATOM     14  N   UNL     1       6.116   3.524  13.683  0.00  0.00    +0.000 N 
ATOM     15  C   UNL     1       6.412   3.407  12.344  0.00  0.00    +0.000 C 
ATOM     16  O   UNL     1       7.191   4.163  11.767  0.00  0.00    +0.000 OA
ATOM     17  H   UNL     1       5.518   2.812  14.096  0.00  0.00    +0.000 HD
BRANCH  15  18
ATOM     18  C   UNL     1       5.660   2.298  11.606  0.00  0.00    +0.000 C 
BRANCH  18  19
ATOM     19  N   UNL     1       6.560   1.188  11.251  0.00  0.00    +0.000 NA
ATOM     20  H   UNL     1       6.563   1.090  10.232  0.00  0.00    +0.000 HD
ATOM     21  H   UNL     1       6.134   0.321  11.591  0.00  0.00    +0.000 HD
ENDBRANCH  18  19
ENDBRANCH  15  18
ENDBRANCH  13  14
ENDBRANCH   4  13
TORSDOF 5
ENDMDL
MODEL 4
REMARK VINA RESULT:      -7.2      1.279      1.537
REMARK  Name = 
REMARK  6 active torsions:
REMARK  status: ('A' for Active; 'I' for Inactive)
REMARK    1  A    between atoms: C_1  and  C_2
REMARK    2  A    between atoms: C_5  and  C_6
REMARK    3  A    between atoms: C_9  and  C_10
REMARK    4  A    between atoms: C_10  and  N_11
REMARK    5  A    between atoms: C_12  and  C_14
REMARK    6  A    between atoms: C_14  and  N_15
REMARK                            x       y       z     vdW  Elec       q    Type
REMARK                         _______ _______ _______ _____ _____    ______ ____
ROOT
ATOM      1  C   UNL     1       5.486   4.256  16.925  0.00  0.00    +0.000 A 
ATOM      2  N   UNL     1       6.748   4.518  17.201  0.00  0.00    +0.000 NA
ATOM      3  N   UNL     1       7.398   4.657  15.998  0.00  0.00    +0.000 NA
ATOM      4  C   UNL     1       6.486   4.480  15.064  0.00  0.00    +0.000 A 
ATOM      5  O   UNL     1       5.243   4.208  15.572  0.00  0.00    +0.000 OA
ENDROOT
BRANCH   1  10
ATOM      6  C   UNL     1       0.989   3.564  20.506  0.00  0.00    +0.000 C 
ATOM      7  C   UNL     1       2.153   3.724  19.572  0.00  0.00    +0.000 A 
ATOM      8  C   UNL     1       2.007   4.387  18.352  0.00  0.00    +0.000 A 
ATOM      9  C   UNL     1       3.104   4.543  17.498  0.00  0.00    +0.000 A 
ATOM     10  C   UNL     1       4.370   4.040  17.840  0.00  0.00    +0.000 A 
ATOM     11  C   UNL     1       4.506   3.364  19.059  0.00  0.00    +0.000 A 
ATOM     12  C   UNL     1       3.409   3.211  19.918  0.00  0.00    +0.000 A 
ENDBRANCH   1  10
BRANCH   4  13
ATOM     13  C   UNL     1       6.637   4.638  13.596  0.00  0.00    +0.000 C 
BRANCH  13  14
ATOM     14  N   UNL     1       6.668   3.374  12.894  0.00  0.00    +0.000 N 
ATOM     15  C   UNL     1       5.601   3.006  12.105  0.00  0.00    +0.000 C 
ATOM     16  O   UNL     1       4.591   3.696  11.991  0.00  0.00    +0.000 OA
ATOM     17  H   UNL     1       7.494   2.779  12.874  0.00  0.00    +0.000 HD
BRANCH  15  18
ATOM     18  C   UNL     1       5.739   1.647  11.416  0.00  0.00    +0.000 C 
BRANCH  18  19
ATOM     19  N   UNL     1       7.154   1.288  11.223  0.00  0.00    +0.000 NA
ATOM     20  H   UNL     1       7.438   1.593  10.287  0.00  0.00    +0.000 HD
ATOM     21  H   UNL     1       7.214   0.266  11.188  0.00  0.00    +0.000 HD
ENDBRANCH  18  19
ENDBRANCH  15  18
ENDBRANCH  13  14
ENDBRANCH   4  13
TORSDOF 5
ENDMDL
MODEL 5
REMARK VINA RESULT:      -7.1      1.254      1.286
REMARK  Name = 
REMARK  6 active torsions:
REMARK  status: ('A' for Active; 'I' for Inactive)
REMARK    1  A    between atoms: C_1  and  C_2
REMARK    2  A    between atoms: C_5  and  C_6
REMARK    3  A    between atoms: C_9  and  C_10
REMARK    4  A    between atoms: C_10  and  N_11
REMARK    5  A    between atoms: C_12  and  C_14
REMARK    6  A    between atoms: C_14  and  N_15
REMARK                            x       y       z     vdW  Elec       q    Type
REMARK                         _______ _______ _______ _____ _____    ______ ____
ROOT
ATOM      1  C   UNL     1       5.454   4.352  16.869  0.00  0.00    +0.000 A 
ATOM      2  N   UNL     1       6.727   4.535  17.159  0.00  0.00    +0.000 NA
ATOM      3  N   UNL     1       7.398   4.627  15.963  0.00  0.00    +0.000 NA
ATOM      4  C   UNL     1       6.487   4.505  15.019  0.00  0.00    +0.000 A 
ATOM      5  O   UNL     1       5.223   4.314  15.513  0.00  0.00    +0.000 OA
ENDROOT
BRANCH   1  10
ATOM      6  C   UNL     1       0.976   3.612  20.463  0.00  0.00    +0.000 C 
ATOM      7  C   UNL     1       2.142   3.821  19.542  0.00  0.00    +0.000 A 
ATOM      8  C   UNL     1       3.301   3.053  19.668  0.00  0.00    +0.000 A 
ATOM      9  C   UNL     1       4.374   3.247  18.792  0.00  0.00    +0.000 A 
ATOM     10  C   UNL     1       4.317   4.211  17.772  0.00  0.00    +0.000 A 
ATOM     11  C   UNL     1       3.156   4.987  17.660  0.00  0.00    +0.000 A 
ATOM     12  C   UNL     1       2.077   4.791  18.534  0.00  0.00    +0.000 A 
ENDBRANCH   1  10
BRANCH   4  13
ATOM     13  C   UNL     1       6.664   4.646  13.552  0.00  0.00    +0.000 C 
BRANCH  13  14
ATOM     14  N   UNL     1       6.694   3.375  12.862  0.00  0.00    +0.000 N 
ATOM     15  C   UNL     1       5.622   2.995  12.087  0.00  0.00    +0.000 C 
ATOM     16  O   UNL     1       4.607   3.679  11.975  0.00  0.00    +0.000 OA
ATOM     17  H   UNL     1       7.522   2.785  12.842  0.00  0.00    +0.000 HD
BRANCH  15  18
ATOM     18  C   UNL     1       5.760   1.630  11.411  0.00  0.00    +0.000 C 
BRANCH  18  19
ATOM     19  N   UNL     1       7.174   1.276  11.207  0.00  0.00    +0.000 NA
ATOM     20  H   UNL     1       7.750   1.922  11.755  0.00  0.00    +0.000 HD
ATOM     21  H   UNL     1       7.410   1.486  10.232  0.00  0.00    +0.000 HD
ENDBRANCH  18  19
ENDBRANCH  15  18
ENDBRANCH  13  14
ENDBRANCH   4  13
TORSDOF 5
ENDMDL
MODEL 6
REMARK VINA RESULT:      -6.9      1.835      2.268
REMARK  Name = 
REMARK  6 active torsions:
REMARK  status: ('A' for Active; 'I' for Inactive)
REMARK    1  A    between atoms: C_1  and  C_2
REMARK    2  A    between atoms: C_5  and  C_6
REMARK    3  A    between atoms: C_9  and  C_10
REMARK    4  A    between atoms: C_10  and  N_11
REMARK    5  A    between atoms: C_12  and  C_14
REMARK    6  A    between atoms: C_14  and  N_15
REMARK                            x       y       z     vdW  Elec       q    Type
REMARK                         _______ _______ _______ _____ _____    ______ ____
ROOT
ATOM      1  C   UNL     1       5.708   4.781  15.634  0.00  0.00    +0.000 A 
ATOM      2  N   UNL     1       6.803   5.517  15.639  0.00  0.00    +0.000 NA
ATOM      3  N   UNL     1       7.453   5.269  14.454  0.00  0.00    +0.000 NA
ATOM      4  C   UNL     1       6.706   4.406  13.797  0.00  0.00    +0.000 A 
ATOM      5  O   UNL     1       5.581   4.035  14.486  0.00  0.00    +0.000 OA
ENDROOT
BRANCH   1  10
ATOM      6  C   UNL     1       1.478   4.264  19.553  0.00  0.00    +0.000 C 
ATOM      7  C   UNL     1       2.588   4.401  18.552  0.00  0.00    +0.000 A 
ATOM      8  C   UNL     1       3.129   3.278  17.924  0.00  0.00    +0.000 A 
ATOM      9  C   UNL     1       4.152   3.421  16.981  0.00  0.00    +0.000 A 
ATOM     10  C   UNL     1       4.660   4.687  16.645  0.00  0.00    +0.000 A 
ATOM     11  C   UNL     1       4.122   5.809  17.289  0.00  0.00    +0.000 A 
ATOM     12  C   UNL     1       3.093   5.667  18.231  0.00  0.00    +0.000 A 
ENDBRANCH   1  10
BRANCH   4  13
ATOM     13  C   UNL     1       6.895   3.896  12.416  0.00  0.00    +0.000 C 
BRANCH  13  14
ATOM     14  N   UNL     1       6.102   2.719  12.135  0.00  0.00    +0.000 N 
ATOM     15  C   UNL     1       6.632   1.709  11.365  0.00  0.00    +0.000 C 
ATOM     16  O   UNL     1       7.753   1.772  10.867  0.00  0.00    +0.000 OA
ATOM     17  H   UNL     1       5.197   2.555  12.569  0.00  0.00    +0.000 HD
BRANCH  15  18
ATOM     18  C   UNL     1       5.702   0.517  11.127  0.00  0.00    +0.000 C 
BRANCH  18  19
ATOM     19  N   UNL     1       6.377  -0.755  11.433  0.00  0.00    +0.000 NA
ATOM     20  H   UNL     1       7.388  -0.588  11.446  0.00  0.00    +0.000 HD
ATOM     21  H   UNL     1       6.232  -1.384  10.638  0.00  0.00    +0.000 HD
ENDBRANCH  18  19
ENDBRANCH  15  18
ENDBRANCH  13  14
ENDBRANCH   4  13
TORSDOF 5
ENDMDL
MODEL 7
REMARK VINA RESULT:      -6.9      1.898      2.638
REMARK  Name = 
REMARK  6 active torsions:
REMARK  status: ('A' for Active; 'I' for Inactive)
REMARK    1  A    between atoms: C_1  and  C_2
REMARK    2  A    between atoms: C_5  and  C_6
REMARK    3  A    between atoms: C_9  and  C_10
REMARK    4  A    between atoms: C_10  and  N_11
REMARK    5  A    between atoms: C_12  and  C_14
REMARK    6  A    between atoms: C_14  and  N_15
REMARK                            x       y       z     vdW  Elec       q    Type
REMARK                         _______ _______ _______ _____ _____    ______ ____
ROOT
ATOM      1  C   UNL     1       5.851   4.906  15.556  0.00  0.00    +0.000 A 
ATOM      2  N   UNL     1       7.001   5.551  15.537  0.00  0.00    +0.000 NA
ATOM      3  N   UNL     1       7.613   5.238  14.347  0.00  0.00    +0.000 NA
ATOM      4  C   UNL     1       6.790   4.430  13.710  0.00  0.00    +0.000 A 
ATOM      5  O   UNL     1       5.649   4.158  14.419  0.00  0.00    +0.000 OA
ENDROOT
BRANCH   1  10
ATOM      6  C   UNL     1       1.835   5.030  19.725  0.00  0.00    +0.000 C 
ATOM      7  C   UNL     1       2.861   4.999  18.630  0.00  0.00    +0.000 A 
ATOM      8  C   UNL     1       3.630   6.127  18.337  0.00  0.00    +0.000 A 
ATOM      9  C   UNL     1       4.595   6.079  17.325  0.00  0.00    +0.000 A 
ATOM     10  C   UNL     1       4.813   4.908  16.581  0.00  0.00    +0.000 A 
ATOM     11  C   UNL     1       4.028   3.784  16.871  0.00  0.00    +0.000 A 
ATOM     12  C   UNL     1       3.065   3.829  17.889  0.00  0.00    +0.000 A 
ENDBRANCH   1  10
BRANCH   4  13
ATOM     13  C   UNL     1       6.918   3.890  12.334  0.00  0.00    +0.000 C 
BRANCH  13  14
ATOM     14  N   UNL     1       6.113   2.709  12.113  0.00  0.00    +0.000 N 
ATOM     15  C   UNL     1       6.612   1.677  11.352  0.00  0.00    +0.000 C 
ATOM     16  O   UNL     1       7.715   1.723  10.812  0.00  0.00    +0.000 OA
ATOM     17  H   UNL     1       5.223   2.559  12.583  0.00  0.00    +0.000 HD
BRANCH  15  18
ATOM     18  C   UNL     1       5.672   0.482  11.179  0.00  0.00    +0.000 C 
BRANCH  18  19
ATOM     19  N   UNL     1       6.383  -0.790  11.389  0.00  0.00    +0.000 NA
ATOM     20  H   UNL     1       5.691  -1.545  11.414  0.00  0.00    +0.000 HD
ATOM     21  H   UNL     1       6.779  -0.774  12.334  0.00  0.00    +0.000 HD
ENDBRANCH  18  19
ENDBRANCH  15  18
ENDBRANCH  13  14
ENDBRANCH   4  13
TORSDOF 5
ENDMDL
MODEL 8
REMARK VINA RESULT:      -6.8      1.318      1.330
REMARK  Name = 
REMARK  6 active torsions:
REMARK  status: ('A' for Active; 'I' for Inactive)
REMARK    1  A    between atoms: C_1  and  C_2
REMARK    2  A    between atoms: C_5  and  C_6
REMARK    3  A    between atoms: C_9  and  C_10
REMARK    4  A    between atoms: C_10  and  N_11
REMARK    5  A    between atoms: C_12  and  C_14
REMARK    6  A    between atoms: C_14  and  N_15
REMARK                            x       y       z     vdW  Elec       q    Type
REMARK                         _______ _______ _______ _____ _____    ______ ____
ROOT
ATOM      1  C   UNL     1       5.209   5.175  17.283  0.00  0.00    +0.000 A 
ATOM      2  N   UNL     1       6.002   6.223  17.400  0.00  0.00    +0.000 NA
ATOM      3  N   UNL     1       6.880   6.176  16.343  0.00  0.00    +0.000 NA
ATOM      4  C   UNL     1       6.558   5.108  15.644  0.00  0.00    +0.000 A 
ATOM      5  O   UNL     1       5.511   4.407  16.183  0.00  0.00    +0.000 OA
ENDROOT
BRANCH   1  10
ATOM      6  C   UNL     1       0.681   3.540  20.499  0.00  0.00    +0.000 C 
ATOM      7  C   UNL     1       1.867   3.952  19.677  0.00  0.00    +0.000 A 
ATOM      8  C   UNL     1       2.073   3.422  18.402  0.00  0.00    +0.000 A 
ATOM      9  C   UNL     1       3.174   3.827  17.639  0.00  0.00    +0.000 A 
ATOM     10  C   UNL     1       4.094   4.767  18.132  0.00  0.00    +0.000 A 
ATOM     11  C   UNL     1       3.889   5.284  19.418  0.00  0.00    +0.000 A 
ATOM     12  C   UNL     1       2.783   4.882  20.181  0.00  0.00    +0.000 A 
ENDBRANCH   1  10
BRANCH   4  13
ATOM     13  C   UNL     1       7.118   4.661  14.344  0.00  0.00    +0.000 C 
BRANCH  13  14
ATOM     14  N   UNL     1       6.280   3.695  13.669  0.00  0.00    +0.000 N 
ATOM     15  C   UNL     1       6.422   3.497  12.315  0.00  0.00    +0.000 C 
ATOM     16  O   UNL     1       7.218   4.135  11.630  0.00  0.00    +0.000 OA
ATOM     17  H   UNL     1       5.649   3.074  14.172  0.00  0.00    +0.000 HD
BRANCH  15  18
ATOM     18  C   UNL     1       5.478   2.458  11.707  0.00  0.00    +0.000 C 
BRANCH  18  19
ATOM     19  N   UNL     1       4.192   3.064  11.325  0.00  0.00    +0.000 NA
ATOM     20  H   UNL     1       3.615   3.152  12.166  0.00  0.00    +0.000 HD
ATOM     21  H   UNL     1       3.691   2.389  10.740  0.00  0.00    +0.000 HD
ENDBRANCH  18  19
ENDBRANCH  15  18
ENDBRANCH  13  14
ENDBRANCH   4  13
TORSDOF 5
ENDMDL
MODEL 9
REMARK VINA RESULT:      -6.8      1.038      1.530
REMARK  Name = 
REMARK  6 active torsions:
REMARK  status: ('A' for Active; 'I' for Inactive)
REMARK    1  A    between atoms: C_1  and  C_2
REMARK    2  A    between atoms: C_5  and  C_6
REMARK    3  A    between atoms: C_9  and  C_10
REMARK    4  A    between atoms: C_10  and  N_11
REMARK    5  A    between atoms: C_12  and  C_14
REMARK    6  A    between atoms: C_14  and  N_15
REMARK                            x       y       z     vdW  Elec       q    Type
REMARK                         _______ _______ _______ _____ _____    ______ ____
ROOT
ATOM      1  C   UNL     1       5.252   4.986  17.532  0.00  0.00    +0.000 A 
ATOM      2  N   UNL     1       5.820   6.176  17.545  0.00  0.00    +0.000 NA
ATOM      3  N   UNL     1       6.628   6.243  16.435  0.00  0.00    +0.000 NA
ATOM      4  C   UNL     1       6.492   5.091  15.810  0.00  0.00    +0.000 A 
ATOM      5  O   UNL     1       5.641   4.229  16.451  0.00  0.00    +0.000 OA
ENDROOT
BRANCH   1  10
ATOM      6  C   UNL     1       1.481   2.862  21.378  0.00  0.00    +0.000 C 
ATOM      7  C   UNL     1       2.445   3.408  20.366  0.00  0.00    +0.000 A 
ATOM      8  C   UNL     1       2.614   4.785  20.208  0.00  0.00    +0.000 A 
ATOM      9  C   UNL     1       3.529   5.281  19.272  0.00  0.00    +0.000 A 
ATOM     10  C   UNL     1       4.293   4.415  18.472  0.00  0.00    +0.000 A 
ATOM     11  C   UNL     1       4.108   3.035  18.626  0.00  0.00    +0.000 A 
ATOM     12  C   UNL     1       3.196   2.537  19.567  0.00  0.00    +0.000 A 
ENDBRANCH   1  10
BRANCH   4  13
ATOM     13  C   UNL     1       7.057   4.689  14.498  0.00  0.00    +0.000 C 
BRANCH  13  14
ATOM     14  N   UNL     1       6.230   3.732  13.797  0.00  0.00    +0.000 N 
ATOM     15  C   UNL     1       6.397   3.549  12.443  0.00  0.00    +0.000 C 
ATOM     16  O   UNL     1       7.207   4.193  11.781  0.00  0.00    +0.000 OA
ATOM     17  H   UNL     1       5.589   3.106  14.280  0.00  0.00    +0.000 HD
BRANCH  15  18
ATOM     18  C   UNL     1       5.463   2.518  11.805  0.00  0.00    +0.000 C 
BRANCH  18  19
ATOM     19  N   UNL     1       4.212   3.144  11.346  0.00  0.00    +0.000 NA
ATOM     20  H   UNL     1       4.347   3.464  10.383  0.00  0.00    +0.000 HD
ATOM     21  H   UNL     1       4.078   4.004  11.886  0.00  0.00    +0.000 HD
ENDBRANCH  18  19
ENDBRANCH  15  18
ENDBRANCH  13  14
ENDBRANCH   4  13
TORSDOF 5
ENDMDL
