MODEL 1
REMARK VINA RESULT:      -8.2      0.000      0.000
REMARK  Name = 
REMARK  11 active torsions:
REMARK  status: ('A' for Active; 'I' for Inactive)
REMARK    1  A    between atoms: C_1  and  C_2
REMARK    2  A    between atoms: C_2  and  C_3
REMARK    3  A    between atoms: C_2  and  C_4
REMARK    4  A    between atoms: C_4  and  O_5
REMARK    5  A    between atoms: O_5  and  N_6
REMARK    6  A    between atoms: C_9  and  O_10
REMARK    7  A    between atoms: C_11  and  O_12
REMARK    8  A    between atoms: N_20  and  C_21
REMARK    9  A    between atoms: C_21  and  C_22
REMARK   10  A    between atoms: C_21  and  C_23
REMARK   11  A    between atoms: C_21  and  C_24
REMARK                            x       y       z     vdW  Elec       q    Type
REMARK                         _______ _______ _______ _____ _____    ______ ____
ROOT
ATOM      1  N   UNL     1       5.709   3.584  19.066  0.00  0.00    +0.000 NA
ATOM      2  C   UNL     1       4.501   4.054  18.971  0.00  0.00    +0.000 C 
ATOM      3  C   UNL     1       3.359   3.061  18.909  0.00  0.00    +0.000 C 
ATOM      4  C   UNL     1       2.274   3.455  19.898  0.00  0.00    +0.000 C 
ATOM      5  C   UNL     1       1.825   4.915  19.701  0.00  0.00    +0.000 C 
ATOM      6  C   UNL     1       3.002   5.896  19.860  0.00  0.00    +0.000 C 
ATOM      7  C   UNL     1       4.158   5.542  18.885  0.00  0.00    +0.000 C 
ATOM      8  C   UNL     1       3.890   5.941  17.417  0.00  0.00    +0.000 C 
ATOM      9  C   UNL     1       3.473   7.413  17.284  0.00  0.00    +0.000 C 
ATOM     10  C   UNL     1       2.292   7.662  18.200  0.00  0.00    +0.000 C 
ATOM     11  C   UNL     1       1.746   9.052  18.333  0.00  0.00    +0.000 C 
ATOM     12  O   UNL     1       1.830   9.903  17.464  0.00  0.00    +0.000 OA
ATOM     13  N   UNL     1       1.115   9.105  19.562  0.00  0.00    +0.000 N 
ATOM     14  C   UNL     1       1.569   8.083  20.386  0.00  0.00    +0.000 C 
ATOM     15  O   UNL     1       1.288   7.881  21.557  0.00  0.00    +0.000 OA
ATOM     16  C   UNL     1       2.668   7.372  19.636  0.00  0.00    +0.000 C 
ENDROOT
BRANCH  13  17
ATOM     17  C   UNL     1       0.126  10.128  19.996  0.00  0.00    +0.000 C 
ATOM     18  C   UNL     1      -0.502   9.817  21.371  0.00  0.00    +0.000 C 
ATOM     19  C   UNL     1       0.836  11.492  20.122  0.00  0.00    +0.000 C 
ATOM     20  C   UNL     1      -1.028  10.250  18.983  0.00  0.00    +0.000 C 
ENDBRANCH  13  17
BRANCH   4  21
ATOM     21  O   UNL     1       2.700   3.259  21.255  0.00  0.00    +0.000 OA
ATOM     22  H   UNL     1       3.662   3.397  21.321  0.00  0.00    +0.000 HD
ENDBRANCH   4  21
BRANCH   5  23
ATOM     23  O   UNL     1       0.808   5.217  20.647  0.00  0.00    +0.000 OA
ATOM     24  H   UNL     1       1.242   5.284  21.521  0.00  0.00    +0.000 HD
ENDBRANCH   5  23
BRANCH   1  25
ATOM     25  O   UNL     1       6.641   4.623  19.096  0.00  0.00    +0.000 OA
BRANCH  25  26
ATOM     26  C   UNL     1       7.486   4.547  17.951  0.00  0.00    +0.000 C 
BRANCH  26  28
ATOM     27  C   UNL     1       7.548   6.954  17.222  0.00  0.00    +0.000 C 
ATOM     28  C   UNL     1       6.981   5.570  16.926  0.00  0.00    +0.000 C 
ATOM     29  C   UNL     1       7.322   5.145  15.495  0.00  0.00    +0.000 C 
ENDBRANCH  26  28
ENDBRANCH  25  26
ENDBRANCH   1  25
TORSDOF 6
ENDMDL
MODEL 2
REMARK VINA RESULT:      -7.0      1.754      4.168
REMARK  Name = 
REMARK  11 active torsions:
REMARK  status: ('A' for Active; 'I' for Inactive)
REMARK    1  A    between atoms: C_1  and  C_2
REMARK    2  A    between atoms: C_2  and  C_3
REMARK    3  A    between atoms: C_2  and  C_4
REMARK    4  A    between atoms: C_4  and  O_5
REMARK    5  A    between atoms: O_5  and  N_6
REMARK    6  A    between atoms: C_9  and  O_10
REMARK    7  A    between atoms: C_11  and  O_12
REMARK    8  A    between atoms: N_20  and  C_21
REMARK    9  A    between atoms: C_21  and  C_22
REMARK   10  A    between atoms: C_21  and  C_23
REMARK   11  A    between atoms: C_21  and  C_24
REMARK                            x       y       z     vdW  Elec       q    Type
REMARK                         _______ _______ _______ _____ _____    ______ ____
ROOT
ATOM      1  N   UNL     1       4.122   2.888  17.462  0.00  0.00    +0.000 NA
ATOM      2  C   UNL     1       4.286   4.112  17.863  0.00  0.00    +0.000 C 
ATOM      3  C   UNL     1       5.673   4.711  17.759  0.00  0.00    +0.000 C 
ATOM      4  C   UNL     1       5.600   6.081  17.102  0.00  0.00    +0.000 C 
ATOM      5  C   UNL     1       4.591   7.001  17.814  0.00  0.00    +0.000 C 
ATOM      6  C   UNL     1       3.175   6.392  17.818  0.00  0.00    +0.000 C 
ATOM      7  C   UNL     1       3.179   4.980  18.465  0.00  0.00    +0.000 C 
ATOM      8  C   UNL     1       3.290   4.991  20.005  0.00  0.00    +0.000 C 
ATOM      9  C   UNL     1       2.241   5.905  20.655  0.00  0.00    +0.000 C 
ATOM     10  C   UNL     1       2.353   7.282  20.033  0.00  0.00    +0.000 C 
ATOM     11  C   UNL     1       1.372   8.346  20.425  0.00  0.00    +0.000 C 
ATOM     12  O   UNL     1       0.799   8.382  21.501  0.00  0.00    +0.000 OA
ATOM     13  N   UNL     1       1.333   9.243  19.375  0.00  0.00    +0.000 N 
ATOM     14  C   UNL     1       1.820   8.655  18.214  0.00  0.00    +0.000 C 
ATOM     15  O   UNL     1       1.855   9.128  17.089  0.00  0.00    +0.000 OA
ATOM     16  C   UNL     1       2.105   7.211  18.543  0.00  0.00    +0.000 C 
ENDROOT
BRANCH  13  17
ATOM     17  C   UNL     1       0.800  10.631  19.426  0.00  0.00    +0.000 C 
ATOM     18  C   UNL     1       0.742  11.204  20.858  0.00  0.00    +0.000 C 
ATOM     19  C   UNL     1       1.724  11.556  18.606  0.00  0.00    +0.000 C 
ATOM     20  C   UNL     1      -0.627  10.701  18.848  0.00  0.00    +0.000 C 
ENDBRANCH  13  17
BRANCH   4  21
ATOM     21  O   UNL     1       5.267   5.982  15.710  0.00  0.00    +0.000 OA
ATOM     22  H   UNL     1       5.981   5.519  15.233  0.00  0.00    +0.000 HD
ENDBRANCH   4  21
BRANCH   5  23
ATOM     23  O   UNL     1       4.576   8.262  17.159  0.00  0.00    +0.000 OA
ATOM     24  H   UNL     1       5.497   8.590  17.150  0.00  0.00    +0.000 HD
ENDBRANCH   5  23
BRANCH   1  25
ATOM     25  O   UNL     1       2.797   2.485  17.639  0.00  0.00    +0.000 OA
BRANCH  25  26
ATOM     26  C   UNL     1       2.710   1.586  18.742  0.00  0.00    +0.000 C 
BRANCH  26  28
ATOM     27  C   UNL     1       1.616   2.340  20.879  0.00  0.00    +0.000 C 
ATOM     28  C   UNL     1       1.378   1.847  19.456  0.00  0.00    +0.000 C 
ATOM     29  C   UNL     1       0.511   2.844  18.680  0.00  0.00    +0.000 C 
ENDBRANCH  26  28
ENDBRANCH  25  26
ENDBRANCH   1  25
TORSDOF 6
ENDMDL
MODEL 3
REMARK VINA RESULT:      -6.9      2.944      5.593
REMARK  Name = 
REMARK  11 active torsions:
REMARK  status: ('A' for Active; 'I' for Inactive)
REMARK    1  A    between atoms: C_1  and  C_2
REMARK    2  A    between atoms: C_2  and  C_3
REMARK    3  A    between atoms: C_2  and  C_4
REMARK    4  A    between atoms: C_4  and  O_5
REMARK    5  A    between atoms: O_5  and  N_6
REMARK    6  A    between atoms: C_9  and  O_10
REMARK    7  A    between atoms: C_11  and  O_12
REMARK    8  A    between atoms: N_20  and  C_21
REMARK    9  A    between atoms: C_21  and  C_22
REMARK   10  A    between atoms: C_21  and  C_23
REMARK   11  A    between atoms: C_21  and  C_24
REMARK                            x       y       z     vdW  Elec       q    Type
REMARK                         _______ _______ _______ _____ _____    ______ ____
ROOT
ATOM      1  N   UNL     1       8.131   7.715  16.947  0.00  0.00    +0.000 NA
ATOM      2  C   UNL     1       7.149   6.879  16.789  0.00  0.00    +0.000 C 
ATOM      3  C   UNL     1       7.094   6.089  15.498  0.00  0.00    +0.000 C 
ATOM      4  C   UNL     1       6.873   4.615  15.799  0.00  0.00    +0.000 C 
ATOM      5  C   UNL     1       5.644   4.396  16.702  0.00  0.00    +0.000 C 
ATOM      6  C   UNL     1       5.783   5.147  18.040  0.00  0.00    +0.000 C 
ATOM      7  C   UNL     1       6.027   6.663  17.805  0.00  0.00    +0.000 C 
ATOM      8  C   UNL     1       4.766   7.447  17.379  0.00  0.00    +0.000 C 
ATOM      9  C   UNL     1       3.586   7.207  18.332  0.00  0.00    +0.000 C 
ATOM     10  C   UNL     1       3.356   5.714  18.446  0.00  0.00    +0.000 C 
ATOM     11  C   UNL     1       2.315   5.202  19.397  0.00  0.00    +0.000 C 
ATOM     12  O   UNL     1       1.332   5.837  19.737  0.00  0.00    +0.000 OA
ATOM     13  N   UNL     1       2.683   3.908  19.714  0.00  0.00    +0.000 N 
ATOM     14  C   UNL     1       4.029   3.704  19.437  0.00  0.00    +0.000 C 
ATOM     15  O   UNL     1       4.701   2.711  19.669  0.00  0.00    +0.000 OA
ATOM     16  C   UNL     1       4.591   5.030  18.991  0.00  0.00    +0.000 C 
ENDROOT
BRANCH  13  17
ATOM     17  C   UNL     1       1.806   2.871  20.319  0.00  0.00    +0.000 C 
ATOM     18  C   UNL     1       0.306   3.225  20.238  0.00  0.00    +0.000 C 
ATOM     19  C   UNL     1       1.998   1.542  19.559  0.00  0.00    +0.000 C 
ATOM     20  C   UNL     1       2.144   2.656  21.807  0.00  0.00    +0.000 C 
ENDBRANCH  13  17
BRANCH   4  21
ATOM     21  O   UNL     1       8.030   4.020  16.405  0.00  0.00    +0.000 OA
ATOM     22  H   UNL     1       8.299   3.232  15.898  0.00  0.00    +0.000 HD
ENDBRANCH   4  21
BRANCH   5  23
ATOM     23  O   UNL     1       5.489   3.003  16.939  0.00  0.00    +0.000 OA
ATOM     24  H   UNL     1       6.044   2.782  17.712  0.00  0.00    +0.000 HD
ENDBRANCH   5  23
BRANCH   1  25
ATOM     25  O   UNL     1       8.027   8.370  18.175  0.00  0.00    +0.000 OA
BRANCH  25  26
ATOM     26  C   UNL     1       8.167   9.776  17.986  0.00  0.00    +0.000 C 
BRANCH  26  28
ATOM     27  C   UNL     1      10.137  11.338  17.872  0.00  0.00    +0.000 C 
ATOM     28  C   UNL     1       9.475  10.212  18.658  0.00  0.00    +0.000 C 
ATOM     29  C   UNL     1       9.243  10.637  20.112  0.00  0.00    +0.000 C 
ENDBRANCH  26  28
ENDBRANCH  25  26
ENDBRANCH   1  25
TORSDOF 6
ENDMDL
MODEL 4
REMARK VINA RESULT:      -6.9      3.236      6.047
REMARK  Name = 
REMARK  11 active torsions:
REMARK  status: ('A' for Active; 'I' for Inactive)
REMARK    1  A    between atoms: C_1  and  C_2
REMARK    2  A    between atoms: C_2  and  C_3
REMARK    3  A    between atoms: C_2  and  C_4
REMARK    4  A    between atoms: C_4  and  O_5
REMARK    5  A    between atoms: O_5  and  N_6
REMARK    6  A    between atoms: C_9  and  O_10
REMARK    7  A    between atoms: C_11  and  O_12
REMARK    8  A    between atoms: N_20  and  C_21
REMARK    9  A    between atoms: C_21  and  C_22
REMARK   10  A    between atoms: C_21  and  C_23
REMARK   11  A    between atoms: C_21  and  C_24
REMARK                            x       y       z     vdW  Elec       q    Type
REMARK                         _______ _______ _______ _____ _____    ______ ____
ROOT
ATOM      1  N   UNL     1       1.223   7.569  21.054  0.00  0.00    +0.000 NA
ATOM      2  C   UNL     1       0.495   8.635  21.197  0.00  0.00    +0.000 C 
ATOM      3  C   UNL     1      -0.660   8.577  22.175  0.00  0.00    +0.000 C 
ATOM      4  C   UNL     1      -0.628   9.789  23.092  0.00  0.00    +0.000 C 
ATOM      5  C   UNL     1      -0.570  11.106  22.294  0.00  0.00    +0.000 C 
ATOM      6  C   UNL     1       0.669  11.159  21.379  0.00  0.00    +0.000 C 
ATOM      7  C   UNL     1       0.707   9.937  20.422  0.00  0.00    +0.000 C 
ATOM      8  C   UNL     1      -0.292  10.023  19.247  0.00  0.00    +0.000 C 
ATOM      9  C   UNL     1      -0.166  11.345  18.476  0.00  0.00    +0.000 C 
ATOM     10  C   UNL     1      -0.295  12.489  19.462  0.00  0.00    +0.000 C 
ATOM     11  C   UNL     1      -0.112  13.897  18.979  0.00  0.00    +0.000 C 
ATOM     12  O   UNL     1      -0.331  14.260  17.836  0.00  0.00    +0.000 OA
ATOM     13  N   UNL     1       0.270  14.638  20.082  0.00  0.00    +0.000 N 
ATOM     14  C   UNL     1       0.769  13.807  21.077  0.00  0.00    +0.000 C 
ATOM     15  O   UNL     1       1.267  14.128  22.144  0.00  0.00    +0.000 OA
ATOM     16  C   UNL     1       0.794  12.410  20.508  0.00  0.00    +0.000 C 
ENDROOT
BRANCH  13  17
ATOM     17  C   UNL     1       0.221  16.120  20.202  0.00  0.00    +0.000 C 
ATOM     18  C   UNL     1      -0.066  16.602  21.640  0.00  0.00    +0.000 C 
ATOM     19  C   UNL     1       1.591  16.703  19.796  0.00  0.00    +0.000 C 
ATOM     20  C   UNL     1      -0.872  16.716  19.293  0.00  0.00    +0.000 C 
ENDBRANCH  13  17
BRANCH   4  21
ATOM     21  O   UNL     1       0.476   9.730  24.008  0.00  0.00    +0.000 OA
ATOM     22  H   UNL     1       0.826   8.821  24.041  0.00  0.00    +0.000 HD
ENDBRANCH   4  21
BRANCH   5  23
ATOM     23  O   UNL     1      -0.549  12.196  23.205  0.00  0.00    +0.000 OA
ATOM     24  H   UNL     1       0.340  12.211  23.613  0.00  0.00    +0.000 HD
ENDBRANCH   5  23
BRANCH   1  25
ATOM     25  O   UNL     1       2.230   7.783  20.111  0.00  0.00    +0.000 OA
BRANCH  25  26
ATOM     26  C   UNL     1       2.618   6.541  19.529  0.00  0.00    +0.000 C 
BRANCH  26  28
ATOM     27  C   UNL     1       2.665   8.249  17.682  0.00  0.00    +0.000 C 
ATOM     28  C   UNL     1       2.865   6.780  18.034  0.00  0.00    +0.000 C 
ATOM     29  C   UNL     1       4.262   6.312  17.615  0.00  0.00    +0.000 C 
ENDBRANCH  26  28
ENDBRANCH  25  26
ENDBRANCH   1  25
TORSDOF 6
ENDMDL
MODEL 5
REMARK VINA RESULT:      -6.7      2.184      7.279
REMARK  Name = 
REMARK  11 active torsions:
REMARK  status: ('A' for Active; 'I' for Inactive)
REMARK    1  A    between atoms: C_1  and  C_2
REMARK    2  A    between atoms: C_2  and  C_3
REMARK    3  A    between atoms: C_2  and  C_4
REMARK    4  A    between atoms: C_4  and  O_5
REMARK    5  A    between atoms: O_5  and  N_6
REMARK    6  A    between atoms: C_9  and  O_10
REMARK    7  A    between atoms: C_11  and  O_12
REMARK    8  A    between atoms: N_20  and  C_21
REMARK    9  A    between atoms: C_21  and  C_22
REMARK   10  A    between atoms: C_21  and  C_23
REMARK   11  A    between atoms: C_21  and  C_24
REMARK                            x       y       z     vdW  Elec       q    Type
REMARK                         _______ _______ _______ _____ _____    ______ ____
ROOT
ATOM      1  N   UNL     1      -1.155  10.606  18.920  0.00  0.00    +0.000 NA
ATOM      2  C   UNL     1      -0.092  10.002  19.359  0.00  0.00    +0.000 C 
ATOM      3  C   UNL     1       0.304  10.227  20.803  0.00  0.00    +0.000 C 
ATOM      4  C   UNL     1       0.585   8.894  21.479  0.00  0.00    +0.000 C 
ATOM      5  C   UNL     1       1.610   8.060  20.688  0.00  0.00    +0.000 C 
ATOM      6  C   UNL     1       1.126   7.780  19.252  0.00  0.00    +0.000 C 
ATOM      7  C   UNL     1       0.805   9.104  18.506  0.00  0.00    +0.000 C 
ATOM      8  C   UNL     1       2.053   9.886  18.042  0.00  0.00    +0.000 C 
ATOM      9  C   UNL     1       3.022   9.007  17.238  0.00  0.00    +0.000 C 
ATOM     10  C   UNL     1       3.353   7.779  18.062  0.00  0.00    +0.000 C 
ATOM     11  C   UNL     1       4.210   6.704  17.465  0.00  0.00    +0.000 C 
ATOM     12  O   UNL     1       5.040   6.900  16.593  0.00  0.00    +0.000 OA
ATOM     13  N   UNL     1       3.899   5.540  18.142  0.00  0.00    +0.000 N 
ATOM     14  C   UNL     1       2.665   5.657  18.769  0.00  0.00    +0.000 C 
ATOM     15  O   UNL     1       2.050   4.799  19.382  0.00  0.00    +0.000 OA
ATOM     16  C   UNL     1       2.096   6.995  18.368  0.00  0.00    +0.000 C 
ENDROOT
BRANCH  13  17
ATOM     17  C   UNL     1       4.717   4.297  18.171  0.00  0.00    +0.000 C 
ATOM     18  C   UNL     1       4.408   3.397  19.386  0.00  0.00    +0.000 C 
ATOM     19  C   UNL     1       4.417   3.467  16.905  0.00  0.00    +0.000 C 
ATOM     20  C   UNL     1       6.223   4.624  18.216  0.00  0.00    +0.000 C 
ENDBRANCH  13  17
BRANCH   4  21
ATOM     21  O   UNL     1      -0.617   8.132  21.667  0.00  0.00    +0.000 OA
ATOM     22  H   UNL     1      -0.766   7.982  22.618  0.00  0.00    +0.000 HD
ENDBRANCH   4  21
BRANCH   5  23
ATOM     23  O   UNL     1       1.834   6.835  21.374  0.00  0.00    +0.000 OA
ATOM     24  H   UNL     1       2.352   6.262  20.774  0.00  0.00    +0.000 HD
ENDBRANCH   5  23
BRANCH   1  25
ATOM     25  O   UNL     1      -1.371  10.308  17.574  0.00  0.00    +0.000 OA
BRANCH  25  26
ATOM     26  C   UNL     1      -2.742   9.979  17.365  0.00  0.00    +0.000 C 
BRANCH  26  28
ATOM     27  C   UNL     1      -3.414  10.355  14.970  0.00  0.00    +0.000 C 
ATOM     28  C   UNL     1      -3.317  10.980  16.357  0.00  0.00    +0.000 C 
ATOM     29  C   UNL     1      -4.684  11.505  16.805  0.00  0.00    +0.000 C 
ENDBRANCH  26  28
ENDBRANCH  25  26
ENDBRANCH   1  25
TORSDOF 6
ENDMDL
MODEL 6
REMARK VINA RESULT:      -6.6      2.644      7.970
REMARK  Name = 
REMARK  11 active torsions:
REMARK  status: ('A' for Active; 'I' for Inactive)
REMARK    1  A    between atoms: C_1  and  C_2
REMARK    2  A    between atoms: C_2  and  C_3
REMARK    3  A    between atoms: C_2  and  C_4
REMARK    4  A    between atoms: C_4  and  O_5
REMARK    5  A    between atoms: O_5  and  N_6
REMARK    6  A    between atoms: C_9  and  O_10
REMARK    7  A    between atoms: C_11  and  O_12
REMARK    8  A    between atoms: N_20  and  C_21
REMARK    9  A    between atoms: C_21  and  C_22
REMARK   10  A    between atoms: C_21  and  C_23
REMARK   11  A    between atoms: C_21  and  C_24
REMARK                            x       y       z     vdW  Elec       q    Type
REMARK                         _______ _______ _______ _____ _____    ______ ____
ROOT
ATOM      1  N   UNL     1      -1.285  13.942  20.440  0.00  0.00    +0.000 NA
ATOM      2  C   UNL     1      -1.320  12.707  20.037  0.00  0.00    +0.000 C 
ATOM      3  C   UNL     1      -2.540  12.250  19.265  0.00  0.00    +0.000 C 
ATOM      4  C   UNL     1      -2.113  11.514  18.005  0.00  0.00    +0.000 C 
ATOM      5  C   UNL     1      -1.126  10.373  18.318  0.00  0.00    +0.000 C 
ATOM      6  C   UNL     1       0.140  10.897  19.024  0.00  0.00    +0.000 C 
ATOM      7  C   UNL     1      -0.227  11.675  20.318  0.00  0.00    +0.000 C 
ATOM      8  C   UNL     1      -0.638  10.774  21.502  0.00  0.00    +0.000 C 
ATOM      9  C   UNL     1       0.398   9.675  21.781  0.00  0.00    +0.000 C 
ATOM     10  C   UNL     1       0.641   8.908  20.497  0.00  0.00    +0.000 C 
ATOM     11  C   UNL     1       1.688   7.834  20.470  0.00  0.00    +0.000 C 
ATOM     12  O   UNL     1       2.034   7.196  21.450  0.00  0.00    +0.000 OA
ATOM     13  N   UNL     1       2.083   7.711  19.151  0.00  0.00    +0.000 N 
ATOM     14  C   UNL     1       1.745   8.851  18.434  0.00  0.00    +0.000 C 
ATOM     15  O   UNL     1       2.013   9.115  17.272  0.00  0.00    +0.000 OA
ATOM     16  C   UNL     1       1.165   9.833  19.421  0.00  0.00    +0.000 C 
ENDROOT
BRANCH  13  17
ATOM     17  C   UNL     1       2.817   6.560  18.561  0.00  0.00    +0.000 C 
ATOM     18  C   UNL     1       3.877   6.987  17.523  0.00  0.00    +0.000 C 
ATOM     19  C   UNL     1       3.561   5.808  19.683  0.00  0.00    +0.000 C 
ATOM     20  C   UNL     1       1.852   5.588  17.855  0.00  0.00    +0.000 C 
ENDBRANCH  13  17
BRANCH   4  21
ATOM     21  O   UNL     1      -1.531  12.406  17.044  0.00  0.00    +0.000 OA
ATOM     22  H   UNL     1      -1.191  13.201  17.495  0.00  0.00    +0.000 HD
ENDBRANCH   4  21
BRANCH   5  23
ATOM     23  O   UNL     1      -0.772   9.723  17.105  0.00  0.00    +0.000 OA
ATOM     24  H   UNL     1      -1.245   8.867  17.091  0.00  0.00    +0.000 HD
ENDBRANCH   5  23
BRANCH   1  25
ATOM     25  O   UNL     1      -0.108  14.196  21.145  0.00  0.00    +0.000 OA
BRANCH  25  26
ATOM     26  C   UNL     1       0.549  15.334  20.594  0.00  0.00    +0.000 C 
BRANCH  26  28
ATOM     27  C   UNL     1       2.521  13.811  20.942  0.00  0.00    +0.000 C 
ATOM     28  C   UNL     1       1.903  14.873  20.041  0.00  0.00    +0.000 C 
ATOM     29  C   UNL     1       1.775  14.352  18.606  0.00  0.00    +0.000 C 
ENDBRANCH  26  28
ENDBRANCH  25  26
ENDBRANCH   1  25
TORSDOF 6
ENDMDL
MODEL 7
REMARK VINA RESULT:      -6.6      2.934      5.539
REMARK  Name = 
REMARK  11 active torsions:
REMARK  status: ('A' for Active; 'I' for Inactive)
REMARK    1  A    between atoms: C_1  and  C_2
REMARK    2  A    between atoms: C_2  and  C_3
REMARK    3  A    between atoms: C_2  and  C_4
REMARK    4  A    between atoms: C_4  and  O_5
REMARK    5  A    between atoms: O_5  and  N_6
REMARK    6  A    between atoms: C_9  and  O_10
REMARK    7  A    between atoms: C_11  and  O_12
REMARK    8  A    between atoms: N_20  and  C_21
REMARK    9  A    between atoms: C_21  and  C_22
REMARK   10  A    between atoms: C_21  and  C_23
REMARK   11  A    between atoms: C_21  and  C_24
REMARK                            x       y       z     vdW  Elec       q    Type
REMARK                         _______ _______ _______ _____ _____    ______ ____
ROOT
ATOM      1  N   UNL     1       7.878   7.941  16.899  0.00  0.00    +0.000 NA
ATOM      2  C   UNL     1       6.969   7.025  16.752  0.00  0.00    +0.000 C 
ATOM      3  C   UNL     1       7.025   6.167  15.506  0.00  0.00    +0.000 C 
ATOM      4  C   UNL     1       6.905   4.697  15.879  0.00  0.00    +0.000 C 
ATOM      5  C   UNL     1       5.662   4.430  16.749  0.00  0.00    +0.000 C 
ATOM      6  C   UNL     1       5.691   5.259  18.048  0.00  0.00    +0.000 C 
ATOM      7  C   UNL     1       5.828   6.774  17.739  0.00  0.00    +0.000 C 
ATOM      8  C   UNL     1       4.528   7.434  17.226  0.00  0.00    +0.000 C 
ATOM      9  C   UNL     1       3.333   7.153  18.148  0.00  0.00    +0.000 C 
ATOM     10  C   UNL     1       3.214   5.654  18.337  0.00  0.00    +0.000 C 
ATOM     11  C   UNL     1       2.178   5.113  19.276  0.00  0.00    +0.000 C 
ATOM     12  O   UNL     1       1.137   5.686  19.546  0.00  0.00    +0.000 OA
ATOM     13  N   UNL     1       2.631   3.870  19.677  0.00  0.00    +0.000 N 
ATOM     14  C   UNL     1       3.998   3.757  19.459  0.00  0.00    +0.000 C 
ATOM     15  O   UNL     1       4.735   2.833  19.769  0.00  0.00    +0.000 OA
ATOM     16  C   UNL     1       4.474   5.099  18.961  0.00  0.00    +0.000 C 
ENDROOT
BRANCH  13  17
ATOM     17  C   UNL     1       1.812   2.800  20.307  0.00  0.00    +0.000 C 
ATOM     18  C   UNL     1       2.172   1.386  19.804  0.00  0.00    +0.000 C 
ATOM     19  C   UNL     1       2.053   2.812  21.831  0.00  0.00    +0.000 C 
ATOM     20  C   UNL     1       0.311   3.015  20.031  0.00  0.00    +0.000 C 
ENDBRANCH  13  17
BRANCH   4  21
ATOM     21  O   UNL     1       8.080   4.227  16.558  0.00  0.00    +0.000 OA
ATOM     22  H   UNL     1       8.862   4.714  16.237  0.00  0.00    +0.000 HD
ENDBRANCH   4  21
BRANCH   5  23
ATOM     23  O   UNL     1       5.604   3.044  17.056  0.00  0.00    +0.000 OA
ATOM     24  H   UNL     1       5.679   2.964  18.028  0.00  0.00    +0.000 HD
ENDBRANCH   5  23
BRANCH   1  25
ATOM     25  O   UNL     1       7.676   8.650  18.085  0.00  0.00    +0.000 OA
BRANCH  25  26
ATOM     26  C   UNL     1       8.932   8.959  18.683  0.00  0.00    +0.000 C 
BRANCH  26  28
ATOM     27  C   UNL     1       9.366  10.806  20.335  0.00  0.00    +0.000 C 
ATOM     28  C   UNL     1       8.990  10.476  18.895  0.00  0.00    +0.000 C 
ATOM     29  C   UNL     1       9.966  11.142  17.920  0.00  0.00    +0.000 C 
ENDBRANCH  26  28
ENDBRANCH  25  26
ENDBRANCH   1  25
TORSDOF 6
ENDMDL
MODEL 8
REMARK VINA RESULT:      -6.6      5.199      9.227
REMARK  Name = 
REMARK  11 active torsions:
REMARK  status: ('A' for Active; 'I' for Inactive)
REMARK    1  A    between atoms: C_1  and  C_2
REMARK    2  A    between atoms: C_2  and  C_3
REMARK    3  A    between atoms: C_2  and  C_4
REMARK    4  A    between atoms: C_4  and  O_5
REMARK    5  A    between atoms: O_5  and  N_6
REMARK    6  A    between atoms: C_9  and  O_10
REMARK    7  A    between atoms: C_11  and  O_12
REMARK    8  A    between atoms: N_20  and  C_21
REMARK    9  A    between atoms: C_21  and  C_22
REMARK   10  A    between atoms: C_21  and  C_23
REMARK   11  A    between atoms: C_21  and  C_24
REMARK                            x       y       z     vdW  Elec       q    Type
REMARK                         _______ _______ _______ _____ _____    ______ ____
ROOT
ATOM      1  N   UNL     1       0.872  11.288  19.597  0.00  0.00    +0.000 NA
ATOM      2  C   UNL     1       0.188  12.196  20.225  0.00  0.00    +0.000 C 
ATOM      3  C   UNL     1       0.725  13.612  20.223  0.00  0.00    +0.000 C 
ATOM      4  C   UNL     1      -0.380  14.586  19.843  0.00  0.00    +0.000 C 
ATOM      5  C   UNL     1      -1.627  14.407  20.730  0.00  0.00    +0.000 C 
ATOM      6  C   UNL     1      -2.190  12.976  20.633  0.00  0.00    +0.000 C 
ATOM      7  C   UNL     1      -1.106  11.925  20.995  0.00  0.00    +0.000 C 
ATOM      8  C   UNL     1      -0.811  11.817  22.507  0.00  0.00    +0.000 C 
ATOM      9  C   UNL     1      -2.090  11.613  23.333  0.00  0.00    +0.000 C 
ATOM     10  C   UNL     1      -3.066  12.719  22.987  0.00  0.00    +0.000 C 
ATOM     11  C   UNL     1      -4.440  12.700  23.588  0.00  0.00    +0.000 C 
ATOM     12  O   UNL     1      -4.709  12.178  24.656  0.00  0.00    +0.000 OA
ATOM     13  N   UNL     1      -5.247  13.424  22.730  0.00  0.00    +0.000 N 
ATOM     14  C   UNL     1      -4.663  13.514  21.473  0.00  0.00    +0.000 C 
ATOM     15  O   UNL     1      -5.134  14.008  20.460  0.00  0.00    +0.000 OA
ATOM     16  C   UNL     1      -3.406  12.683  21.514  0.00  0.00    +0.000 C 
ENDROOT
BRANCH  13  17
ATOM     17  C   UNL     1      -6.584  13.991  23.054  0.00  0.00    +0.000 C 
ATOM     18  C   UNL     1      -7.417  13.084  23.985  0.00  0.00    +0.000 C 
ATOM     19  C   UNL     1      -6.396  15.337  23.785  0.00  0.00    +0.000 C 
ATOM     20  C   UNL     1      -7.415  14.221  21.777  0.00  0.00    +0.000 C 
ENDBRANCH  13  17
BRANCH   4  21
ATOM     21  O   UNL     1      -0.746  14.457  18.462  0.00  0.00    +0.000 OA
ATOM     22  H   UNL     1      -1.396  15.146  18.228  0.00  0.00    +0.000 HD
ENDBRANCH   4  21
BRANCH   5  23
ATOM     23  O   UNL     1      -2.615  15.348  20.331  0.00  0.00    +0.000 OA
ATOM     24  H   UNL     1      -2.143  16.162  20.063  0.00  0.00    +0.000 HD
ENDBRANCH   5  23
BRANCH   1  25
ATOM     25  O   UNL     1       0.253  10.041  19.708  0.00  0.00    +0.000 OA
BRANCH  25  26
ATOM     26  C   UNL     1       1.233   9.036  19.952  0.00  0.00    +0.000 C 
BRANCH  26  28
ATOM     27  C   UNL     1       1.612   9.138  22.438  0.00  0.00    +0.000 C 
ATOM     28  C   UNL     1       0.916   8.390  21.307  0.00  0.00    +0.000 C 
ATOM     29  C   UNL     1      -0.594   8.324  21.556  0.00  0.00    +0.000 C 
ENDBRANCH  26  28
ENDBRANCH  25  26
ENDBRANCH   1  25
TORSDOF 6
ENDMDL
MODEL 9
REMARK VINA RESULT:      -6.6      3.213      6.067
REMARK  Name = 
REMARK  11 active torsions:
REMARK  status: ('A' for Active; 'I' for Inactive)
REMARK    1  A    between atoms: C_1  and  C_2
REMARK    2  A    between atoms: C_2  and  C_3
REMARK    3  A    between atoms: C_2  and  C_4
REMARK    4  A    between atoms: C_4  and  O_5
REMARK    5  A    between atoms: O_5  and  N_6
REMARK    6  A    between atoms: C_9  and  O_10
REMARK    7  A    between atoms: C_11  and  O_12
REMARK    8  A    between atoms: N_20  and  C_21
REMARK    9  A    between atoms: C_21  and  C_22
REMARK   10  A    between atoms: C_21  and  C_23
REMARK   11  A    between atoms: C_21  and  C_24
REMARK                            x       y       z     vdW  Elec       q    Type
REMARK                         _______ _______ _______ _____ _____    ______ ____
ROOT
ATOM      1  N   UNL     1       1.209   7.514  20.990  0.00  0.00    +0.000 NA
ATOM      2  C   UNL     1       0.501   8.592  21.138  0.00  0.00    +0.000 C 
ATOM      3  C   UNL     1      -0.645   8.556  22.128  0.00  0.00    +0.000 C 
ATOM      4  C   UNL     1      -0.581   9.771  23.041  0.00  0.00    +0.000 C 
ATOM      5  C   UNL     1      -0.510  11.084  22.238  0.00  0.00    +0.000 C 
ATOM      6  C   UNL     1       0.719  11.113  21.310  0.00  0.00    +0.000 C 
ATOM      7  C   UNL     1       0.726   9.887  20.356  0.00  0.00    +0.000 C 
ATOM      8  C   UNL     1      -0.284   9.987  19.192  0.00  0.00    +0.000 C 
ATOM      9  C   UNL     1      -0.145  11.305  18.416  0.00  0.00    +0.000 C 
ATOM     10  C   UNL     1      -0.243  12.454  19.399  0.00  0.00    +0.000 C 
ATOM     11  C   UNL     1      -0.042  13.857  18.910  0.00  0.00    +0.000 C 
ATOM     12  O   UNL     1      -0.267  14.219  17.768  0.00  0.00    +0.000 OA
ATOM     13  N   UNL     1       0.364  14.594  20.006  0.00  0.00    +0.000 N 
ATOM     14  C   UNL     1       0.860  13.758  20.998  0.00  0.00    +0.000 C 
ATOM     15  O   UNL     1       1.376  14.074  22.059  0.00  0.00    +0.000 OA
ATOM     16  C   UNL     1       0.856  12.360  20.433  0.00  0.00    +0.000 C 
ENDROOT
BRANCH  13  17
ATOM     17  C   UNL     1       0.342  16.077  20.122  0.00  0.00    +0.000 C 
ATOM     18  C   UNL     1       1.737  16.718  19.957  0.00  0.00    +0.000 C 
ATOM     19  C   UNL     1      -0.555  16.656  19.008  0.00  0.00    +0.000 C 
ATOM     20  C   UNL     1      -0.205  16.520  21.493  0.00  0.00    +0.000 C 
ENDBRANCH  13  17
BRANCH   4  21
ATOM     21  O   UNL     1       0.531   9.695  23.945  0.00  0.00    +0.000 OA
ATOM     22  H   UNL     1       0.327  10.191  24.759  0.00  0.00    +0.000 HD
ENDBRANCH   4  21
BRANCH   5  23
ATOM     23  O   UNL     1      -0.461  12.176  23.146  0.00  0.00    +0.000 OA
ATOM     24  H   UNL     1      -1.094  11.979  23.865  0.00  0.00    +0.000 HD
ENDBRANCH   5  23
BRANCH   1  25
ATOM     25  O   UNL     1       2.208   7.707  20.035  0.00  0.00    +0.000 OA
BRANCH  25  26
ATOM     26  C   UNL     1       2.834   6.464  19.731  0.00  0.00    +0.000 C 
BRANCH  26  28
ATOM     27  C   UNL     1       4.026   6.248  17.526  0.00  0.00    +0.000 C 
ATOM     28  C   UNL     1       2.673   6.212  18.227  0.00  0.00    +0.000 C 
ATOM     29  C   UNL     1       1.961   4.884  17.953  0.00  0.00    +0.000 C 
ENDBRANCH  26  28
ENDBRANCH  25  26
ENDBRANCH   1  25
TORSDOF 6
ENDMDL
