MODEL 1
REMARK VINA RESULT:      -5.7      0.000      0.000
REMARK  Name = 
REMARK  8 active torsions:
REMARK  status: ('A' for Active; 'I' for Inactive)
REMARK    1  A    between atoms: C_1  and  N_2
REMARK    2  A    between atoms: N_5  and  C_6
REMARK    3  A    between atoms: C_6  and  C_7
REMARK    4  A    between atoms: N_9  and  C_10
REMARK    5  A    between atoms: N_9  and  C_23
REMARK    6  A    between atoms: C_10  and  C_11
REMARK    7  A    between atoms: C_12  and  C_13
REMARK    8  A    between atoms: N_21  and  C_22
REMARK                            x       y       z     vdW  Elec       q    Type
REMARK                         _______ _______ _______ _____ _____    ______ ____
ROOT
ATOM      1  C   UNL     1      -0.656  11.161  19.960  0.00  0.00    +0.000 C 
ATOM      2  O   UNL     1      -0.142  11.825  20.867  0.00  0.00    +0.000 OA
ATOM      3  N   UNL     1      -1.908  11.551  19.406  0.00  0.00    +0.000 N 
ENDROOT
BRANCH   3   4
ATOM      4  C   UNL     1      -2.359  10.998  18.178  0.00  0.00    +0.000 A 
ATOM      5  C   UNL     1      -2.128  11.696  16.993  0.00  0.00    +0.000 A 
ATOM      6  C   UNL     1      -2.730  11.292  15.805  0.00  0.00    +0.000 A 
ATOM      7  C   UNL     1      -3.503  10.136  15.783  0.00  0.00    +0.000 A 
ATOM      8  C   UNL     1      -3.667   9.381  16.944  0.00  0.00    +0.000 A 
ATOM      9  C   UNL     1      -3.100   9.811  18.144  0.00  0.00    +0.000 A 
ENDBRANCH   3   4
BRANCH   1  10
ATOM     10  C   UNL     1       0.025   9.861  19.375  0.00  0.00    +0.000 C 
BRANCH  10  15
ATOM     11  C   UNL     1       2.405   5.545  18.624  0.00  0.00    +0.000 C 
ATOM     12  N   UNL     1       2.547   6.941  19.035  0.00  0.00    +0.000 NA
ATOM     13  C   UNL     1       1.698   7.226  20.200  0.00  0.00    +0.000 C 
ATOM     14  C   UNL     1       1.789   8.701  20.659  0.00  0.00    +0.000 C 
ATOM     15  N   UNL     1       1.482   9.716  19.632  0.00  0.00    +0.000 NA
ATOM     16  C   UNL     1       2.226   9.363  18.386  0.00  0.00    +0.000 C 
ATOM     17  C   UNL     1       2.210   7.870  17.943  0.00  0.00    +0.000 C 
ENDBRANCH  10  15
ENDBRANCH   1  10
BRANCH   3  18
ATOM     18  C   UNL     1      -2.521  12.812  19.852  0.00  0.00    +0.000 C 
BRANCH  18  19
ATOM     19  C   UNL     1      -3.803  12.611  20.640  0.00  0.00    +0.000 A 
ATOM     20  C   UNL     1      -5.116  12.565  20.187  0.00  0.00    +0.000 A 
ATOM     21  C   UNL     1      -5.988  12.795  21.287  0.00  0.00    +0.000 A 
ATOM     22  C   UNL     1      -7.377  13.049  21.409  0.00  0.00    +0.000 A 
ATOM     23  C   UNL     1      -7.916  13.368  22.659  0.00  0.00    +0.000 A 
ATOM     24  C   UNL     1      -7.116  13.355  23.793  0.00  0.00    +0.000 A 
ATOM     25  C   UNL     1      -5.754  13.036  23.707  0.00  0.00    +0.000 A 
ATOM     26  C   UNL     1      -5.193  12.809  22.435  0.00  0.00    +0.000 A 
ATOM     27  N   UNL     1      -3.882  12.608  22.023  0.00  0.00    +0.000 N 
ATOM     28  C   UNL     1      -2.734  12.531  22.902  0.00  0.00    +0.000 C 
BRANCH  20  29
ATOM     29  C   UNL     1      -5.508  12.479  18.820  0.00  0.00    +0.000 C 
ATOM     30  N   UNL     1      -5.844  12.392  17.706  0.00  0.00    +0.000 NA
ENDBRANCH  20  29
ENDBRANCH  18  19
ENDBRANCH   3  18
TORSDOF 6
ENDMDL
MODEL 2
REMARK VINA RESULT:      -5.7      4.331      6.732
REMARK  Name = 
REMARK  8 active torsions:
REMARK  status: ('A' for Active; 'I' for Inactive)
REMARK    1  A    between atoms: C_1  and  N_2
REMARK    2  A    between atoms: N_5  and  C_6
REMARK    3  A    between atoms: C_6  and  C_7
REMARK    4  A    between atoms: N_9  and  C_10
REMARK    5  A    between atoms: N_9  and  C_23
REMARK    6  A    between atoms: C_10  and  C_11
REMARK    7  A    between atoms: C_12  and  C_13
REMARK    8  A    between atoms: N_21  and  C_22
REMARK                            x       y       z     vdW  Elec       q    Type
REMARK                         _______ _______ _______ _____ _____    ______ ____
ROOT
ATOM      1  C   UNL     1       1.795  13.394  20.532  0.00  0.00    +0.000 C 
ATOM      2  O   UNL     1       2.228  12.378  21.088  0.00  0.00    +0.000 OA
ATOM      3  N   UNL     1       0.392  13.606  20.416  0.00  0.00    +0.000 N 
ENDROOT
BRANCH   3   4
ATOM      4  C   UNL     1      -0.118  14.884  20.069  0.00  0.00    +0.000 A 
ATOM      5  C   UNL     1      -0.232  15.229  18.723  0.00  0.00    +0.000 A 
ATOM      6  C   UNL     1      -0.530  16.536  18.350  0.00  0.00    +0.000 A 
ATOM      7  C   UNL     1      -0.796  17.489  19.328  0.00  0.00    +0.000 A 
ATOM      8  C   UNL     1      -0.773  17.133  20.676  0.00  0.00    +0.000 A 
ATOM      9  C   UNL     1      -0.430  15.833  21.050  0.00  0.00    +0.000 A 
ENDBRANCH   3   4
BRANCH   1  10
ATOM     10  C   UNL     1       2.750  14.493  19.921  0.00  0.00    +0.000 C 
BRANCH  10  15
ATOM     11  C   UNL     1       7.149  16.628  18.946  0.00  0.00    +0.000 C 
ATOM     12  N   UNL     1       6.063  16.500  19.917  0.00  0.00    +0.000 NA
ATOM     13  C   UNL     1       5.896  15.098  20.324  0.00  0.00    +0.000 C 
ATOM     14  C   UNL     1       4.738  14.902  21.331  0.00  0.00    +0.000 C 
ATOM     15  N   UNL     1       3.415  15.395  20.897  0.00  0.00    +0.000 NA
ATOM     16  C   UNL     1       3.587  16.771  20.343  0.00  0.00    +0.000 C 
ATOM     17  C   UNL     1       4.790  17.011  19.383  0.00  0.00    +0.000 C 
ENDBRANCH  10  15
ENDBRANCH   1  10
BRANCH   3  18
ATOM     18  C   UNL     1      -0.527  12.656  21.064  0.00  0.00    +0.000 C 
BRANCH  18  19
ATOM     19  C   UNL     1      -1.366  11.864  20.078  0.00  0.00    +0.000 A 
ATOM     20  C   UNL     1      -0.998  10.795  19.270  0.00  0.00    +0.000 A 
ATOM     21  C   UNL     1      -1.953  10.663  18.224  0.00  0.00    +0.000 A 
ATOM     22  C   UNL     1      -2.007   9.906  17.027  0.00  0.00    +0.000 A 
ATOM     23  C   UNL     1      -3.059  10.105  16.128  0.00  0.00    +0.000 A 
ATOM     24  C   UNL     1      -4.093  10.978  16.439  0.00  0.00    +0.000 A 
ATOM     25  C   UNL     1      -4.098  11.683  17.649  0.00  0.00    +0.000 A 
ATOM     26  C   UNL     1      -2.991  11.553  18.510  0.00  0.00    +0.000 A 
ATOM     27  N   UNL     1      -2.650  12.208  19.687  0.00  0.00    +0.000 N 
ATOM     28  C   UNL     1      -3.462  13.203  20.353  0.00  0.00    +0.000 C 
BRANCH  20  29
ATOM     29  C   UNL     1       0.225  10.073  19.373  0.00  0.00    +0.000 C 
ATOM     30  N   UNL     1       1.226   9.482  19.481  0.00  0.00    +0.000 NA
ENDBRANCH  20  29
ENDBRANCH  18  19
ENDBRANCH   3  18
TORSDOF 6
ENDMDL
MODEL 3
REMARK VINA RESULT:      -5.7      4.177     11.272
REMARK  Name = 
REMARK  8 active torsions:
REMARK  status: ('A' for Active; 'I' for Inactive)
REMARK    1  A    between atoms: C_1  and  N_2
REMARK    2  A    between atoms: N_5  and  C_6
REMARK    3  A    between atoms: C_6  and  C_7
REMARK    4  A    between atoms: N_9  and  C_10
REMARK    5  A    between atoms: N_9  and  C_23
REMARK    6  A    between atoms: C_10  and  C_11
REMARK    7  A    between atoms: C_12  and  C_13
REMARK    8  A    between atoms: N_21  and  C_22
REMARK                            x       y       z     vdW  Elec       q    Type
REMARK                         _______ _______ _______ _____ _____    ______ ____
ROOT
ATOM      1  C   UNL     1       3.203   7.362  18.056  0.00  0.00    +0.000 C 
ATOM      2  O   UNL     1       4.116   8.164  17.830  0.00  0.00    +0.000 OA
ATOM      3  N   UNL     1       3.502   6.027  18.448  0.00  0.00    +0.000 N 
ENDROOT
BRANCH   3   4
ATOM      4  C   UNL     1       2.495   5.195  19.005  0.00  0.00    +0.000 A 
ATOM      5  C   UNL     1       2.352   5.135  20.391  0.00  0.00    +0.000 A 
ATOM      6  C   UNL     1       1.522   4.183  20.977  0.00  0.00    +0.000 A 
ATOM      7  C   UNL     1       0.767   3.337  20.171  0.00  0.00    +0.000 A 
ATOM      8  C   UNL     1       0.835   3.449  18.783  0.00  0.00    +0.000 A 
ATOM      9  C   UNL     1       1.701   4.373  18.197  0.00  0.00    +0.000 A 
ENDBRANCH   3   4
BRANCH   1  10
ATOM     10  C   UNL     1       1.680   7.756  17.919  0.00  0.00    +0.000 C 
BRANCH  10  15
ATOM     11  C   UNL     1      -0.738  11.060  20.765  0.00  0.00    +0.000 C 
ATOM     12  N   UNL     1      -0.072  10.837  19.482  0.00  0.00    +0.000 NA
ATOM     13  C   UNL     1      -0.724   9.747  18.743  0.00  0.00    +0.000 C 
ATOM     14  C   UNL     1      -0.038   9.451  17.388  0.00  0.00    +0.000 C 
ATOM     15  N   UNL     1       1.404   9.139  17.450  0.00  0.00    +0.000 NA
ATOM     16  C   UNL     1       2.066  10.157  18.319  0.00  0.00    +0.000 C 
ATOM     17  C   UNL     1       1.357  10.526  19.656  0.00  0.00    +0.000 C 
ENDBRANCH  10  15
ENDBRANCH   1  10
BRANCH   3  18
ATOM     18  C   UNL     1       4.905   5.653  18.688  0.00  0.00    +0.000 C 
BRANCH  18  19
ATOM     19  C   UNL     1       5.620   5.171  17.438  0.00  0.00    +0.000 A 
ATOM     20  C   UNL     1       6.594   5.809  16.680  0.00  0.00    +0.000 A 
ATOM     21  C   UNL     1       6.649   5.197  15.397  0.00  0.00    +0.000 A 
ATOM     22  C   UNL     1       7.286   5.525  14.174  0.00  0.00    +0.000 A 
ATOM     23  C   UNL     1       7.029   4.761  13.032  0.00  0.00    +0.000 A 
ATOM     24  C   UNL     1       6.219   3.635  13.107  0.00  0.00    +0.000 A 
ATOM     25  C   UNL     1       5.636   3.251  14.322  0.00  0.00    +0.000 A 
ATOM     26  C   UNL     1       5.820   4.075  15.450  0.00  0.00    +0.000 A 
ATOM     27  N   UNL     1       5.275   4.033  16.727  0.00  0.00    +0.000 N 
ATOM     28  C   UNL     1       4.372   3.013  17.215  0.00  0.00    +0.000 C 
BRANCH  20  29
ATOM     29  C   UNL     1       7.289   6.991  17.067  0.00  0.00    +0.000 C 
ATOM     30  N   UNL     1       7.842   7.964  17.398  0.00  0.00    +0.000 NA
ENDBRANCH  20  29
ENDBRANCH  18  19
ENDBRANCH   3  18
TORSDOF 6
ENDMDL
MODEL 4
REMARK VINA RESULT:      -5.7      3.816      7.935
REMARK  Name = 
REMARK  8 active torsions:
REMARK  status: ('A' for Active; 'I' for Inactive)
REMARK    1  A    between atoms: C_1  and  N_2
REMARK    2  A    between atoms: N_5  and  C_6
REMARK    3  A    between atoms: C_6  and  C_7
REMARK    4  A    between atoms: N_9  and  C_10
REMARK    5  A    between atoms: N_9  and  C_23
REMARK    6  A    between atoms: C_10  and  C_11
REMARK    7  A    between atoms: C_12  and  C_13
REMARK    8  A    between atoms: N_21  and  C_22
REMARK                            x       y       z     vdW  Elec       q    Type
REMARK                         _______ _______ _______ _____ _____    ______ ____
ROOT
ATOM      1  C   UNL     1      -3.454  14.704  21.948  0.00  0.00    +0.000 C 
ATOM      2  O   UNL     1      -3.741  15.851  22.306  0.00  0.00    +0.000 OA
ATOM      3  N   UNL     1      -2.134  14.398  21.512  0.00  0.00    +0.000 N 
ENDROOT
BRANCH   3   4
ATOM      4  C   UNL     1      -1.706  13.049  21.397  0.00  0.00    +0.000 A 
ATOM      5  C   UNL     1      -1.192  12.400  22.519  0.00  0.00    +0.000 A 
ATOM      6  C   UNL     1      -0.576  11.158  22.398  0.00  0.00    +0.000 A 
ATOM      7  C   UNL     1      -0.545  10.521  21.161  0.00  0.00    +0.000 A 
ATOM      8  C   UNL     1      -1.136  11.122  20.051  0.00  0.00    +0.000 A 
ATOM      9  C   UNL     1      -1.713  12.387  20.164  0.00  0.00    +0.000 A 
ENDBRANCH   3   4
BRANCH   1  10
ATOM     10  C   UNL     1      -4.512  13.532  21.942  0.00  0.00    +0.000 C 
BRANCH  10  15
ATOM     11  C   UNL     1      -6.744  10.701  18.498  0.00  0.00    +0.000 C 
ATOM     12  N   UNL     1      -6.867  11.889  19.342  0.00  0.00    +0.000 NA
ATOM     13  C   UNL     1      -5.785  12.840  19.057  0.00  0.00    +0.000 C 
ATOM     14  C   UNL     1      -5.851  14.105  19.945  0.00  0.00    +0.000 C 
ATOM     15  N   UNL     1      -5.856  13.869  21.403  0.00  0.00    +0.000 NA
ATOM     16  C   UNL     1      -6.851  12.797  21.701  0.00  0.00    +0.000 C 
ATOM     17  C   UNL     1      -6.853  11.545  20.774  0.00  0.00    +0.000 C 
ENDBRANCH  10  15
ENDBRANCH   1  10
BRANCH   3  18
ATOM     18  C   UNL     1      -1.095  15.437  21.604  0.00  0.00    +0.000 C 
BRANCH  18  19
ATOM     19  C   UNL     1      -0.378  15.686  20.289  0.00  0.00    +0.000 A 
ATOM     20  C   UNL     1       0.841  15.189  19.844  0.00  0.00    +0.000 A 
ATOM     21  C   UNL     1       1.308  16.010  18.780  0.00  0.00    +0.000 A 
ATOM     22  C   UNL     1       2.536  16.115  18.081  0.00  0.00    +0.000 A 
ATOM     23  C   UNL     1       2.718  17.141  17.148  0.00  0.00    +0.000 A 
ATOM     24  C   UNL     1       1.674  18.004  16.841  0.00  0.00    +0.000 A 
ATOM     25  C   UNL     1       0.427  17.873  17.467  0.00  0.00    +0.000 A 
ATOM     26  C   UNL     1       0.276  16.901  18.475  0.00  0.00    +0.000 A 
ATOM     27  N   UNL     1      -0.768  16.626  19.348  0.00  0.00    +0.000 N 
ATOM     28  C   UNL     1      -2.045  17.306  19.361  0.00  0.00    +0.000 C 
BRANCH  20  29
ATOM     29  C   UNL     1       1.577  14.144  20.471  0.00  0.00    +0.000 C 
ATOM     30  N   UNL     1       2.164  13.272  20.979  0.00  0.00    +0.000 NA
ENDBRANCH  20  29
ENDBRANCH  18  19
ENDBRANCH   3  18
TORSDOF 6
ENDMDL
MODEL 5
REMARK VINA RESULT:      -5.6      1.798      7.962
REMARK  Name = 
REMARK  8 active torsions:
REMARK  status: ('A' for Active; 'I' for Inactive)
REMARK    1  A    between atoms: C_1  and  N_2
REMARK    2  A    between atoms: N_5  and  C_6
REMARK    3  A    between atoms: C_6  and  C_7
REMARK    4  A    between atoms: N_9  and  C_10
REMARK    5  A    between atoms: N_9  and  C_23
REMARK    6  A    between atoms: C_10  and  C_11
REMARK    7  A    between atoms: C_12  and  C_13
REMARK    8  A    between atoms: N_21  and  C_22
REMARK                            x       y       z     vdW  Elec       q    Type
REMARK                         _______ _______ _______ _____ _____    ______ ____
ROOT
ATOM      1  C   UNL     1      -1.091  11.965  21.632  0.00  0.00    +0.000 C 
ATOM      2  O   UNL     1      -0.444  11.939  22.686  0.00  0.00    +0.000 OA
ATOM      3  N   UNL     1      -0.458  11.662  20.394  0.00  0.00    +0.000 N 
ENDROOT
BRANCH   3   4
ATOM      4  C   UNL     1      -1.232  11.384  19.237  0.00  0.00    +0.000 A 
ATOM      5  C   UNL     1      -1.893  10.159  19.139  0.00  0.00    +0.000 A 
ATOM      6  C   UNL     1      -2.487   9.769  17.942  0.00  0.00    +0.000 A 
ATOM      7  C   UNL     1      -2.490  10.641  16.858  0.00  0.00    +0.000 A 
ATOM      8  C   UNL     1      -1.910  11.903  16.974  0.00  0.00    +0.000 A 
ATOM      9  C   UNL     1      -1.276  12.276  18.159  0.00  0.00    +0.000 A 
ENDBRANCH   3   4
BRANCH   1  10
ATOM     10  C   UNL     1      -2.626  12.335  21.594  0.00  0.00    +0.000 C 
BRANCH  10  15
ATOM     11  C   UNL     1      -7.012  12.683  23.940  0.00  0.00    +0.000 C 
ATOM     12  N   UNL     1      -5.754  13.363  23.635  0.00  0.00    +0.000 NA
ATOM     13  C   UNL     1      -5.579  13.500  22.183  0.00  0.00    +0.000 C 
ATOM     14  C   UNL     1      -4.246  14.188  21.803  0.00  0.00    +0.000 C 
ATOM     15  N   UNL     1      -3.021  13.560  22.337  0.00  0.00    +0.000 NA
ATOM     16  C   UNL     1      -3.232  13.278  23.788  0.00  0.00    +0.000 C 
ATOM     17  C   UNL     1      -4.596  12.652  24.204  0.00  0.00    +0.000 C 
ENDBRANCH  10  15
ENDBRANCH   1  10
BRANCH   3  18
ATOM     18  C   UNL     1       0.943  11.212  20.403  0.00  0.00    +0.000 C 
BRANCH  18  19
ATOM     19  C   UNL     1       1.104   9.746  20.040  0.00  0.00    +0.000 A 
ATOM     20  C   UNL     1       0.799   8.616  20.789  0.00  0.00    +0.000 A 
ATOM     21  C   UNL     1       1.504   7.505  20.247  0.00  0.00    +0.000 A 
ATOM     22  C   UNL     1       1.736   6.177  20.683  0.00  0.00    +0.000 A 
ATOM     23  C   UNL     1       2.602   5.351  19.959  0.00  0.00    +0.000 A 
ATOM     24  C   UNL     1       3.168   5.797  18.772  0.00  0.00    +0.000 A 
ATOM     25  C   UNL     1       2.895   7.081  18.284  0.00  0.00    +0.000 A 
ATOM     26  C   UNL     1       2.100   7.944  19.063  0.00  0.00    +0.000 A 
ATOM     27  N   UNL     1       1.770   9.286  18.916  0.00  0.00    +0.000 N 
ATOM     28  C   UNL     1       2.168  10.125  17.806  0.00  0.00    +0.000 C 
BRANCH  20  29
ATOM     29  C   UNL     1       0.048   8.613  21.999  0.00  0.00    +0.000 C 
ATOM     30  N   UNL     1      -0.562   8.588  22.994  0.00  0.00    +0.000 NA
ENDBRANCH  20  29
ENDBRANCH  18  19
ENDBRANCH   3  18
TORSDOF 6
ENDMDL
MODEL 6
REMARK VINA RESULT:      -5.6      4.147      6.611
REMARK  Name = 
REMARK  8 active torsions:
REMARK  status: ('A' for Active; 'I' for Inactive)
REMARK    1  A    between atoms: C_1  and  N_2
REMARK    2  A    between atoms: N_5  and  C_6
REMARK    3  A    between atoms: C_6  and  C_7
REMARK    4  A    between atoms: N_9  and  C_10
REMARK    5  A    between atoms: N_9  and  C_23
REMARK    6  A    between atoms: C_10  and  C_11
REMARK    7  A    between atoms: C_12  and  C_13
REMARK    8  A    between atoms: N_21  and  C_22
REMARK                            x       y       z     vdW  Elec       q    Type
REMARK                         _______ _______ _______ _____ _____    ______ ____
ROOT
ATOM      1  C   UNL     1       1.554  13.156  20.697  0.00  0.00    +0.000 C 
ATOM      2  O   UNL     1       1.893  12.117  21.273  0.00  0.00    +0.000 OA
ATOM      3  N   UNL     1       0.177  13.430  20.462  0.00  0.00    +0.000 N 
ENDROOT
BRANCH   3   4
ATOM      4  C   UNL     1      -0.247  14.733  20.091  0.00  0.00    +0.000 A 
ATOM      5  C   UNL     1      -0.992  15.489  20.997  0.00  0.00    +0.000 A 
ATOM      6  C   UNL     1      -1.597  16.677  20.598  0.00  0.00    +0.000 A 
ATOM      7  C   UNL     1      -1.390  17.157  19.308  0.00  0.00    +0.000 A 
ATOM      8  C   UNL     1      -0.574  16.454  18.423  0.00  0.00    +0.000 A 
ATOM      9  C   UNL     1      -0.004  15.241  18.810  0.00  0.00    +0.000 A 
ENDBRANCH   3   4
BRANCH   1  10
ATOM     10  C   UNL     1       2.605  14.220  20.189  0.00  0.00    +0.000 C 
BRANCH  10  15
ATOM     11  C   UNL     1       7.259  15.995  20.408  0.00  0.00    +0.000 C 
ATOM     12  N   UNL     1       5.909  16.086  20.964  0.00  0.00    +0.000 NA
ATOM     13  C   UNL     1       5.490  14.792  21.519  0.00  0.00    +0.000 C 
ATOM     14  C   UNL     1       4.055  14.825  22.096  0.00  0.00    +0.000 C 
ATOM     15  N   UNL     1       2.997  15.269  21.166  0.00  0.00    +0.000 NA
ATOM     16  C   UNL     1       3.465  16.510  20.480  0.00  0.00    +0.000 C 
ATOM     17  C   UNL     1       4.931  16.527  19.955  0.00  0.00    +0.000 C 
ENDBRANCH  10  15
ENDBRANCH   1  10
BRANCH   3  18
ATOM     18  C   UNL     1      -0.835  12.514  21.013  0.00  0.00    +0.000 C 
BRANCH  18  19
ATOM     19  C   UNL     1      -1.599  11.752  19.946  0.00  0.00    +0.000 A 
ATOM     20  C   UNL     1      -1.159  10.737  19.105  0.00  0.00    +0.000 A 
ATOM     21  C   UNL     1      -2.056  10.633  18.005  0.00  0.00    +0.000 A 
ATOM     22  C   UNL     1      -2.028   9.938  16.771  0.00  0.00    +0.000 A 
ATOM     23  C   UNL     1      -3.038  10.155  15.830  0.00  0.00    +0.000 A 
ATOM     24  C   UNL     1      -4.113  10.981  16.131  0.00  0.00    +0.000 A 
ATOM     25  C   UNL     1      -4.200  11.622  17.374  0.00  0.00    +0.000 A 
ATOM     26  C   UNL     1      -3.133  11.478  18.283  0.00  0.00    +0.000 A 
ATOM     27  N   UNL     1      -2.871  12.079  19.508  0.00  0.00    +0.000 N 
ATOM     28  C   UNL     1      -3.746  13.016  20.180  0.00  0.00    +0.000 C 
BRANCH  20  29
ATOM     29  C   UNL     1       0.079  10.044  19.235  0.00  0.00    +0.000 C 
ATOM     30  N   UNL     1       1.089   9.466  19.320  0.00  0.00    +0.000 NA
ENDBRANCH  20  29
ENDBRANCH  18  19
ENDBRANCH   3  18
TORSDOF 6
ENDMDL
MODEL 7
REMARK VINA RESULT:      -5.6      3.997      6.662
REMARK  Name = 
REMARK  8 active torsions:
REMARK  status: ('A' for Active; 'I' for Inactive)
REMARK    1  A    between atoms: C_1  and  N_2
REMARK    2  A    between atoms: N_5  and  C_6
REMARK    3  A    between atoms: C_6  and  C_7
REMARK    4  A    between atoms: N_9  and  C_10
REMARK    5  A    between atoms: N_9  and  C_23
REMARK    6  A    between atoms: C_10  and  C_11
REMARK    7  A    between atoms: C_12  and  C_13
REMARK    8  A    between atoms: N_21  and  C_22
REMARK                            x       y       z     vdW  Elec       q    Type
REMARK                         _______ _______ _______ _____ _____    ______ ____
ROOT
ATOM      1  C   UNL     1       1.360  13.479  20.837  0.00  0.00    +0.000 C 
ATOM      2  O   UNL     1       1.898  12.417  21.171  0.00  0.00    +0.000 OA
ATOM      3  N   UNL     1      -0.059  13.581  20.795  0.00  0.00    +0.000 N 
ENDROOT
BRANCH   3   4
ATOM      4  C   UNL     1      -0.690  14.851  20.721  0.00  0.00    +0.000 A 
ATOM      5  C   UNL     1      -0.894  15.436  19.471  0.00  0.00    +0.000 A 
ATOM      6  C   UNL     1      -1.317  16.758  19.370  0.00  0.00    +0.000 A 
ATOM      7  C   UNL     1      -1.615  17.477  20.523  0.00  0.00    +0.000 A 
ATOM      8  C   UNL     1      -1.500  16.872  21.774  0.00  0.00    +0.000 A 
ATOM      9  C   UNL     1      -1.033  15.561  21.877  0.00  0.00    +0.000 A 
ENDBRANCH   3   4
BRANCH   1  10
ATOM     10  C   UNL     1       2.194  14.759  20.437  0.00  0.00    +0.000 C 
BRANCH  10  15
ATOM     11  C   UNL     1       6.344  17.021  18.851  0.00  0.00    +0.000 C 
ATOM     12  N   UNL     1       5.121  16.329  18.445  0.00  0.00    +0.000 NA
ATOM     13  C   UNL     1       3.936  17.035  18.951  0.00  0.00    +0.000 C 
ATOM     14  C   UNL     1       2.613  16.327  18.574  0.00  0.00    +0.000 C 
ATOM     15  N   UNL     1       2.496  14.915  18.990  0.00  0.00    +0.000 NA
ATOM     16  C   UNL     1       3.756  14.209  18.612  0.00  0.00    +0.000 C 
ATOM     17  C   UNL     1       5.101  14.934  18.916  0.00  0.00    +0.000 C 
ENDBRANCH  10  15
ENDBRANCH   1  10
BRANCH   3  18
ATOM     18  C   UNL     1      -0.868  12.443  21.261  0.00  0.00    +0.000 C 
BRANCH  18  19
ATOM     19  C   UNL     1      -1.601  11.729  20.140  0.00  0.00    +0.000 A 
ATOM     20  C   UNL     1      -1.140  10.745  19.275  0.00  0.00    +0.000 A 
ATOM     21  C   UNL     1      -2.001  10.690  18.143  0.00  0.00    +0.000 A 
ATOM     22  C   UNL     1      -1.936  10.045  16.883  0.00  0.00    +0.000 A 
ATOM     23  C   UNL     1      -2.914  10.306  15.919  0.00  0.00    +0.000 A 
ATOM     24  C   UNL     1      -3.993  11.127  16.218  0.00  0.00    +0.000 A 
ATOM     25  C   UNL     1      -4.117  11.718  17.482  0.00  0.00    +0.000 A 
ATOM     26  C   UNL     1      -3.082  11.531  18.419  0.00  0.00    +0.000 A 
ATOM     27  N   UNL     1      -2.857  12.082  19.674  0.00  0.00    +0.000 N 
ATOM     28  C   UNL     1      -3.748  12.997  20.354  0.00  0.00    +0.000 C 
BRANCH  20  29
ATOM     29  C   UNL     1       0.089  10.039  19.416  0.00  0.00    +0.000 C 
ATOM     30  N   UNL     1       1.095   9.463  19.556  0.00  0.00    +0.000 NA
ENDBRANCH  20  29
ENDBRANCH  18  19
ENDBRANCH   3  18
TORSDOF 6
ENDMDL
MODEL 8
REMARK VINA RESULT:      -5.6      2.661      5.213
REMARK  Name = 
REMARK  8 active torsions:
REMARK  status: ('A' for Active; 'I' for Inactive)
REMARK    1  A    between atoms: C_1  and  N_2
REMARK    2  A    between atoms: N_5  and  C_6
REMARK    3  A    between atoms: C_6  and  C_7
REMARK    4  A    between atoms: N_9  and  C_10
REMARK    5  A    between atoms: N_9  and  C_23
REMARK    6  A    between atoms: C_10  and  C_11
REMARK    7  A    between atoms: C_12  and  C_13
REMARK    8  A    between atoms: N_21  and  C_22
REMARK                            x       y       z     vdW  Elec       q    Type
REMARK                         _______ _______ _______ _____ _____    ______ ____
ROOT
ATOM      1  C   UNL     1       1.937   8.814  18.382  0.00  0.00    +0.000 C 
ATOM      2  O   UNL     1       2.092   9.044  17.177  0.00  0.00    +0.000 OA
ATOM      3  N   UNL     1       1.397   9.814  19.238  0.00  0.00    +0.000 N 
ENDROOT
BRANCH   3   4
ATOM      4  C   UNL     1       0.927   9.477  20.535  0.00  0.00    +0.000 A 
ATOM      5  C   UNL     1      -0.369   8.983  20.681  0.00  0.00    +0.000 A 
ATOM      6  C   UNL     1      -0.933   8.838  21.945  0.00  0.00    +0.000 A 
ATOM      7  C   UNL     1      -0.170   9.112  23.076  0.00  0.00    +0.000 A 
ATOM      8  C   UNL     1       1.156   9.521  22.943  0.00  0.00    +0.000 A 
ATOM      9  C   UNL     1       1.706   9.709  21.674  0.00  0.00    +0.000 A 
ENDBRANCH   3   4
BRANCH   1  10
ATOM     10  C   UNL     1       2.328   7.430  19.034  0.00  0.00    +0.000 C 
BRANCH  10  15
ATOM     11  C   UNL     1       3.179   2.751  20.531  0.00  0.00    +0.000 C 
ATOM     12  N   UNL     1       3.210   3.676  19.399  0.00  0.00    +0.000 NA
ATOM     13  C   UNL     1       4.100   4.811  19.682  0.00  0.00    +0.000 C 
ATOM     14  C   UNL     1       4.146   5.837  18.525  0.00  0.00    +0.000 C 
ATOM     15  N   UNL     1       2.845   6.393  18.104  0.00  0.00    +0.000 NA
ATOM     16  C   UNL     1       1.880   5.264  17.950  0.00  0.00    +0.000 C 
ATOM     17  C   UNL     1       1.866   4.178  19.067  0.00  0.00    +0.000 C 
ENDBRANCH  10  15
ENDBRANCH   1  10
BRANCH   3  18
ATOM     18  C   UNL     1       0.925  11.077  18.648  0.00  0.00    +0.000 C 
BRANCH  18  19
ATOM     19  C   UNL     1       0.075  11.902  19.598  0.00  0.00    +0.000 A 
ATOM     20  C   UNL     1       0.471  12.714  20.654  0.00  0.00    +0.000 A 
ATOM     21  C   UNL     1      -0.645  12.929  21.510  0.00  0.00    +0.000 A 
ATOM     22  C   UNL     1      -0.805  13.491  22.800  0.00  0.00    +0.000 A 
ATOM     23  C   UNL     1      -2.051  13.434  23.432  0.00  0.00    +0.000 A 
ATOM     24  C   UNL     1      -3.151  12.906  22.769  0.00  0.00    +0.000 A 
ATOM     25  C   UNL     1      -3.032  12.410  21.464  0.00  0.00    +0.000 A 
ATOM     26  C   UNL     1      -1.757  12.381  20.866  0.00  0.00    +0.000 A 
ATOM     27  N   UNL     1      -1.307  11.841  19.668  0.00  0.00    +0.000 N 
ATOM     28  C   UNL     1      -2.143  11.191  18.681  0.00  0.00    +0.000 C 
BRANCH  20  29
ATOM     29  C   UNL     1       1.812  13.111  20.923  0.00  0.00    +0.000 C 
ATOM     30  N   UNL     1       2.919  13.417  21.135  0.00  0.00    +0.000 NA
ENDBRANCH  20  29
ENDBRANCH  18  19
ENDBRANCH   3  18
TORSDOF 6
ENDMDL
MODEL 9
REMARK VINA RESULT:      -5.5      1.906      7.919
REMARK  Name = 
REMARK  8 active torsions:
REMARK  status: ('A' for Active; 'I' for Inactive)
REMARK    1  A    between atoms: C_1  and  N_2
REMARK    2  A    between atoms: N_5  and  C_6
REMARK    3  A    between atoms: C_6  and  C_7
REMARK    4  A    between atoms: N_9  and  C_10
REMARK    5  A    between atoms: N_9  and  C_23
REMARK    6  A    between atoms: C_10  and  C_11
REMARK    7  A    between atoms: C_12  and  C_13
REMARK    8  A    between atoms: N_21  and  C_22
REMARK                            x       y       z     vdW  Elec       q    Type
REMARK                         _______ _______ _______ _____ _____    ______ ____
ROOT
ATOM      1  C   UNL     1      -0.712  12.889  21.434  0.00  0.00    +0.000 C 
ATOM      2  O   UNL     1      -0.027  13.025  22.454  0.00  0.00    +0.000 OA
ATOM      3  N   UNL     1      -0.173  12.236  20.290  0.00  0.00    +0.000 N 
ENDROOT
BRANCH   3   4
ATOM      4  C   UNL     1      -1.024  11.799  19.241  0.00  0.00    +0.000 A 
ATOM      5  C   UNL     1      -1.769  10.632  19.410  0.00  0.00    +0.000 A 
ATOM      6  C   UNL     1      -2.449  10.064  18.338  0.00  0.00    +0.000 A 
ATOM      7  C   UNL     1      -2.453  10.708  17.104  0.00  0.00    +0.000 A 
ATOM      8  C   UNL     1      -1.785  11.922  16.948  0.00  0.00    +0.000 A 
ATOM      9  C   UNL     1      -1.066  12.468  18.012  0.00  0.00    +0.000 A 
ENDBRANCH   3   4
BRANCH   1  10
ATOM     10  C   UNL     1      -2.193  13.428  21.335  0.00  0.00    +0.000 C 
BRANCH  10  15
ATOM     11  C   UNL     1      -6.311  15.892  22.688  0.00  0.00    +0.000 C 
ATOM     12  N   UNL     1      -5.538  14.661  22.849  0.00  0.00    +0.000 NA
ATOM     13  C   UNL     1      -4.192  14.958  23.357  0.00  0.00    +0.000 C 
ATOM     14  C   UNL     1      -3.321  13.689  23.518  0.00  0.00    +0.000 C 
ATOM     15  N   UNL     1      -3.162  12.858  22.307  0.00  0.00    +0.000 NA
ATOM     16  C   UNL     1      -4.508  12.664  21.692  0.00  0.00    +0.000 C 
ATOM     17  C   UNL     1      -5.433  13.913  21.585  0.00  0.00    +0.000 C 
ENDBRANCH  10  15
ENDBRANCH   1  10
BRANCH   3  18
ATOM     18  C   UNL     1       1.165  11.629  20.382  0.00  0.00    +0.000 C 
BRANCH  18  19
ATOM     19  C   UNL     1       1.157  10.126  20.170  0.00  0.00    +0.000 A 
ATOM     20  C   UNL     1       0.910   9.110  21.085  0.00  0.00    +0.000 A 
ATOM     21  C   UNL     1       1.430   7.891  20.566  0.00  0.00    +0.000 A 
ATOM     22  C   UNL     1       1.642   6.599  21.109  0.00  0.00    +0.000 A 
ATOM     23  C   UNL     1       2.308   5.630  20.352  0.00  0.00    +0.000 A 
ATOM     24  C   UNL     1       2.687   5.900  19.043  0.00  0.00    +0.000 A 
ATOM     25  C   UNL     1       2.422   7.146  18.461  0.00  0.00    +0.000 A 
ATOM     26  C   UNL     1       1.837   8.152  19.256  0.00  0.00    +0.000 A 
ATOM     27  N   UNL     1       1.581   9.495  19.012  0.00  0.00    +0.000 N 
ATOM     28  C   UNL     1       1.835  10.178  17.761  0.00  0.00    +0.000 C 
BRANCH  20  29
ATOM     29  C   UNL     1       0.386   9.298  22.396  0.00  0.00    +0.000 C 
ATOM     30  N   UNL     1      -0.033   9.472  23.471  0.00  0.00    +0.000 NA
ENDBRANCH  20  29
ENDBRANCH  18  19
ENDBRANCH   3  18
TORSDOF 6
ENDMDL
