MODEL 1
REMARK VINA RESULT:      -7.3      0.000      0.000
REMARK  Name = 
REMARK  4 active torsions:
REMARK  status: ('A' for Active; 'I' for Inactive)
REMARK    1  A    between atoms: C_1  and  O_2
REMARK    2  A    between atoms: O_2  and  C_3
REMARK    3  A    between atoms: C_8  and  C_9
REMARK    4  A    between atoms: N_14  and  C_15
REMARK                            x       y       z     vdW  Elec       q    Type
REMARK                         _______ _______ _______ _____ _____    ______ ____
ROOT
ATOM      1  C   UNL     1       5.331   4.686  18.956  0.00  0.00    +0.000 C 
ATOM      2  O   UNL     1       6.213   4.736  19.820  0.00  0.00    +0.000 OA
ATOM      3  N   UNL     1       5.644   4.812  17.596  0.00  0.00    +0.000 N 
ATOM      4  C   UNL     1       4.683   4.774  16.502  0.00  0.00    +0.000 C 
ATOM      5  C   UNL     1       5.121   5.584  15.279  0.00  0.00    +0.000 C 
ATOM      6  N   UNL     1       6.459   5.239  14.775  0.00  0.00    +0.000 NA
ATOM      7  C   UNL     1       7.434   5.318  15.885  0.00  0.00    +0.000 C 
ATOM      8  C   UNL     1       7.037   4.591  17.190  0.00  0.00    +0.000 C 
ENDROOT
BRANCH   1  14
ATOM      9  C   UNL     1       3.252   3.349  19.723  0.00  0.00    +0.000 A 
ATOM     10  C   UNL     1       1.956   3.377  20.267  0.00  0.00    +0.000 A 
ATOM     11  C   UNL     1       1.327   4.586  20.565  0.00  0.00    +0.000 A 
ATOM     12  C   UNL     1       1.992   5.782  20.335  0.00  0.00    +0.000 A 
ATOM     13  C   UNL     1       3.277   5.769  19.785  0.00  0.00    +0.000 A 
ATOM     14  C   UNL     1       3.922   4.558  19.459  0.00  0.00    +0.000 A 
BRANCH   9  16
ATOM     15  C   UNL     1       3.562   1.456  18.349  0.00  0.00    +0.000 C 
ATOM     16  O   UNL     1       3.902   2.154  19.549  0.00  0.00    +0.000 OA
ENDBRANCH   9  16
ENDBRANCH   1  14
BRANCH   6  17
ATOM     17  C   UNL     1       6.506   3.968  14.034  0.00  0.00    +0.000 C 
ATOM     18  C   UNL     1       5.472   3.651  12.995  0.00  0.00    +0.000 C 
ATOM     19  C   UNL     1       6.850   4.039  12.563  0.00  0.00    +0.000 C 
ENDBRANCH   6  17
TORSDOF 3
ENDMDL
MODEL 2
REMARK VINA RESULT:      -7.0      1.033      2.038
REMARK  Name = 
REMARK  4 active torsions:
REMARK  status: ('A' for Active; 'I' for Inactive)
REMARK    1  A    between atoms: C_1  and  O_2
REMARK    2  A    between atoms: O_2  and  C_3
REMARK    3  A    between atoms: C_8  and  C_9
REMARK    4  A    between atoms: N_14  and  C_15
REMARK                            x       y       z     vdW  Elec       q    Type
REMARK                         _______ _______ _______ _____ _____    ______ ____
ROOT
ATOM      1  C   UNL     1       5.210   4.371  19.012  0.00  0.00    +0.000 C 
ATOM      2  O   UNL     1       6.062   4.438  19.904  0.00  0.00    +0.000 OA
ATOM      3  N   UNL     1       5.550   4.599  17.671  0.00  0.00    +0.000 N 
ATOM      4  C   UNL     1       4.625   4.552  16.547  0.00  0.00    +0.000 C 
ATOM      5  C   UNL     1       5.034   5.461  15.385  0.00  0.00    +0.000 C 
ATOM      6  N   UNL     1       6.407   5.247  14.905  0.00  0.00    +0.000 NA
ATOM      7  C   UNL     1       7.342   5.335  16.048  0.00  0.00    +0.000 C 
ATOM      8  C   UNL     1       6.967   4.506  17.298  0.00  0.00    +0.000 C 
ENDROOT
BRANCH   1  14
ATOM      9  C   UNL     1       2.832   5.092  19.734  0.00  0.00    +0.000 A 
ATOM     10  C   UNL     1       1.524   4.702  20.071  0.00  0.00    +0.000 A 
ATOM     11  C   UNL     1       1.167   3.356  20.126  0.00  0.00    +0.000 A 
ATOM     12  C   UNL     1       2.109   2.381  19.831  0.00  0.00    +0.000 A 
ATOM     13  C   UNL     1       3.416   2.753  19.503  0.00  0.00    +0.000 A 
ATOM     14  C   UNL     1       3.802   4.109  19.461  0.00  0.00    +0.000 A 
BRANCH   9  16
ATOM     15  C   UNL     1       2.661   6.991  18.344  0.00  0.00    +0.000 C 
ATOM     16  O   UNL     1       3.136   6.419  19.565  0.00  0.00    +0.000 OA
ENDBRANCH   9  16
ENDBRANCH   1  14
BRANCH   6  17
ATOM     17  C   UNL     1       6.572   4.028  14.097  0.00  0.00    +0.000 C 
ATOM     18  C   UNL     1       5.573   3.674  13.037  0.00  0.00    +0.000 C 
ATOM     19  C   UNL     1       6.909   4.210  12.634  0.00  0.00    +0.000 C 
ENDBRANCH   6  17
TORSDOF 3
ENDMDL
MODEL 3
REMARK VINA RESULT:      -6.3      2.599      6.077
REMARK  Name = 
REMARK  4 active torsions:
REMARK  status: ('A' for Active; 'I' for Inactive)
REMARK    1  A    between atoms: C_1  and  O_2
REMARK    2  A    between atoms: O_2  and  C_3
REMARK    3  A    between atoms: C_8  and  C_9
REMARK    4  A    between atoms: N_14  and  C_15
REMARK                            x       y       z     vdW  Elec       q    Type
REMARK                         _______ _______ _______ _____ _____    ______ ____
ROOT
ATOM      1  C   UNL     1       5.519   4.209  17.119  0.00  0.00    +0.000 C 
ATOM      2  O   UNL     1       5.815   3.576  16.100  0.00  0.00    +0.000 OA
ATOM      3  N   UNL     1       4.357   3.909  17.842  0.00  0.00    +0.000 N 
ATOM      4  C   UNL     1       3.913   4.596  19.048  0.00  0.00    +0.000 C 
ATOM      5  C   UNL     1       2.393   4.583  19.231  0.00  0.00    +0.000 C 
ATOM      6  N   UNL     1       1.791   3.242  19.174  0.00  0.00    +0.000 NA
ATOM      7  C   UNL     1       2.216   2.568  17.928  0.00  0.00    +0.000 C 
ATOM      8  C   UNL     1       3.731   2.599  17.623  0.00  0.00    +0.000 C 
ENDROOT
BRANCH   1  14
ATOM      9  C   UNL     1       6.370   6.647  16.943  0.00  0.00    +0.000 A 
ATOM     10  C   UNL     1       7.238   7.639  17.429  0.00  0.00    +0.000 A 
ATOM     11  C   UNL     1       8.152   7.360  18.445  0.00  0.00    +0.000 A 
ATOM     12  C   UNL     1       8.199   6.089  18.999  0.00  0.00    +0.000 A 
ATOM     13  C   UNL     1       7.348   5.089  18.519  0.00  0.00    +0.000 A 
ATOM     14  C   UNL     1       6.431   5.346  17.478  0.00  0.00    +0.000 A 
BRANCH   9  16
ATOM     15  C   UNL     1       4.144   7.351  16.604  0.00  0.00    +0.000 C 
ATOM     16  O   UNL     1       5.396   6.967  16.032  0.00  0.00    +0.000 OA
ENDBRANCH   9  16
ENDBRANCH   1  14
BRANCH   6  17
ATOM     17  C   UNL     1       2.012   2.438  20.388  0.00  0.00    +0.000 C 
ATOM     18  C   UNL     1       2.512   3.080  21.648  0.00  0.00    +0.000 C 
ATOM     19  C   UNL     1       1.076   2.675  21.552  0.00  0.00    +0.000 C 
ENDBRANCH   6  17
TORSDOF 3
ENDMDL
MODEL 4
REMARK VINA RESULT:      -6.2      2.266      3.540
REMARK  Name = 
REMARK  4 active torsions:
REMARK  status: ('A' for Active; 'I' for Inactive)
REMARK    1  A    between atoms: C_1  and  O_2
REMARK    2  A    between atoms: O_2  and  C_3
REMARK    3  A    between atoms: C_8  and  C_9
REMARK    4  A    between atoms: N_14  and  C_15
REMARK                            x       y       z     vdW  Elec       q    Type
REMARK                         _______ _______ _______ _____ _____    ______ ____
ROOT
ATOM      1  C   UNL     1       4.116   3.268  18.190  0.00  0.00    +0.000 C 
ATOM      2  O   UNL     1       3.935   2.324  17.413  0.00  0.00    +0.000 OA
ATOM      3  N   UNL     1       5.225   4.112  18.053  0.00  0.00    +0.000 N 
ATOM      4  C   UNL     1       5.535   5.245  18.916  0.00  0.00    +0.000 C 
ATOM      5  C   UNL     1       7.033   5.545  19.011  0.00  0.00    +0.000 C 
ATOM      6  N   UNL     1       7.698   5.717  17.710  0.00  0.00    +0.000 NA
ATOM      7  C   UNL     1       7.409   4.545  16.856  0.00  0.00    +0.000 C 
ATOM      8  C   UNL     1       5.925   4.121  16.763  0.00  0.00    +0.000 C 
ENDROOT
BRANCH   1  14
ATOM      9  C   UNL     1       1.977   4.210  19.302  0.00  0.00    +0.000 A 
ATOM     10  C   UNL     1       1.093   4.176  20.394  0.00  0.00    +0.000 A 
ATOM     11  C   UNL     1       1.328   3.338  21.483  0.00  0.00    +0.000 A 
ATOM     12  C   UNL     1       2.444   2.512  21.489  0.00  0.00    +0.000 A 
ATOM     13  C   UNL     1       3.337   2.543  20.414  0.00  0.00    +0.000 A 
ATOM     14  C   UNL     1       3.127   3.398  19.312  0.00  0.00    +0.000 A 
BRANCH   9  16
ATOM     15  C   UNL     1       2.224   6.264  18.167  0.00  0.00    +0.000 C 
ATOM     16  O   UNL     1       1.669   4.946  18.186  0.00  0.00    +0.000 OA
ENDBRANCH   9  16
ENDBRANCH   1  14
BRANCH   6  17
ATOM     17  C   UNL     1       7.412   7.008  17.062  0.00  0.00    +0.000 C 
ATOM     18  C   UNL     1       6.591   8.049  17.763  0.00  0.00    +0.000 C 
ATOM     19  C   UNL     1       8.070   8.236  17.650  0.00  0.00    +0.000 C 
ENDBRANCH   6  17
TORSDOF 3
ENDMDL
MODEL 5
REMARK VINA RESULT:      -5.9      2.191      3.505
REMARK  Name = 
REMARK  4 active torsions:
REMARK  status: ('A' for Active; 'I' for Inactive)
REMARK    1  A    between atoms: C_1  and  O_2
REMARK    2  A    between atoms: O_2  and  C_3
REMARK    3  A    between atoms: C_8  and  C_9
REMARK    4  A    between atoms: N_14  and  C_15
REMARK                            x       y       z     vdW  Elec       q    Type
REMARK                         _______ _______ _______ _____ _____    ______ ____
ROOT
ATOM      1  C   UNL     1       3.843   4.118  17.958  0.00  0.00    +0.000 C 
ATOM      2  O   UNL     1       3.374   3.708  16.891  0.00  0.00    +0.000 OA
ATOM      3  N   UNL     1       5.025   4.871  17.984  0.00  0.00    +0.000 N 
ATOM      4  C   UNL     1       5.664   5.395  19.183  0.00  0.00    +0.000 C 
ATOM      5  C   UNL     1       7.182   5.545  19.048  0.00  0.00    +0.000 C 
ATOM      6  N   UNL     1       7.608   6.328  17.877  0.00  0.00    +0.000 NA
ATOM      7  C   UNL     1       6.984   5.764  16.660  0.00  0.00    +0.000 C 
ATOM      8  C   UNL     1       5.462   5.506  16.735  0.00  0.00    +0.000 C 
ENDROOT
BRANCH   1  14
ATOM      9  C   UNL     1       3.544   2.711  20.109  0.00  0.00    +0.000 A 
ATOM     10  C   UNL     1       2.802   2.475  21.280  0.00  0.00    +0.000 A 
ATOM     11  C   UNL     1       1.656   3.216  21.567  0.00  0.00    +0.000 A 
ATOM     12  C   UNL     1       1.244   4.212  20.693  0.00  0.00    +0.000 A 
ATOM     13  C   UNL     1       1.966   4.451  19.520  0.00  0.00    +0.000 A 
ATOM     14  C   UNL     1       3.116   3.700  19.202  0.00  0.00    +0.000 A 
BRANCH   9  16
ATOM     15  C   UNL     1       5.227   1.341  21.034  0.00  0.00    +0.000 C 
ATOM     16  O   UNL     1       4.733   2.061  19.902  0.00  0.00    +0.000 OA
ENDBRANCH   9  16
ENDBRANCH   1  14
BRANCH   6  17
ATOM     17  C   UNL     1       7.410   7.779  18.027  0.00  0.00    +0.000 C 
ATOM     18  C   UNL     1       8.447   8.625  18.703  0.00  0.00    +0.000 C 
ATOM     19  C   UNL     1       8.308   8.685  17.216  0.00  0.00    +0.000 C 
ENDBRANCH   6  17
TORSDOF 3
ENDMDL
MODEL 6
REMARK VINA RESULT:      -5.9      1.837      3.060
REMARK  Name = 
REMARK  4 active torsions:
REMARK  status: ('A' for Active; 'I' for Inactive)
REMARK    1  A    between atoms: C_1  and  O_2
REMARK    2  A    between atoms: O_2  and  C_3
REMARK    3  A    between atoms: C_8  and  C_9
REMARK    4  A    between atoms: N_14  and  C_15
REMARK                            x       y       z     vdW  Elec       q    Type
REMARK                         _______ _______ _______ _____ _____    ______ ____
ROOT
ATOM      1  C   UNL     1       3.323   3.504  17.488  0.00  0.00    +0.000 C 
ATOM      2  O   UNL     1       2.694   3.007  16.547  0.00  0.00    +0.000 OA
ATOM      3  N   UNL     1       4.580   4.088  17.287  0.00  0.00    +0.000 N 
ATOM      4  C   UNL     1       5.405   4.694  18.324  0.00  0.00    +0.000 C 
ATOM      5  C   UNL     1       6.905   4.619  18.030  0.00  0.00    +0.000 C 
ATOM      6  N   UNL     1       7.290   5.155  16.715  0.00  0.00    +0.000 NA
ATOM      7  C   UNL     1       6.475   4.506  15.666  0.00  0.00    +0.000 C 
ATOM      8  C   UNL     1       4.949   4.468  15.917  0.00  0.00    +0.000 C 
ENDROOT
BRANCH   1  14
ATOM      9  C   UNL     1       3.114   2.503  19.865  0.00  0.00    +0.000 A 
ATOM     10  C   UNL     1       2.479   2.543  21.119  0.00  0.00    +0.000 A 
ATOM     11  C   UNL     1       1.447   3.445  21.374  0.00  0.00    +0.000 A 
ATOM     12  C   UNL     1       1.044   4.329  20.383  0.00  0.00    +0.000 A 
ATOM     13  C   UNL     1       1.660   4.294  19.128  0.00  0.00    +0.000 A 
ATOM     14  C   UNL     1       2.692   3.376  18.844  0.00  0.00    +0.000 A 
BRANCH   9  16
ATOM     15  C   UNL     1       5.051   1.546  20.812  0.00  0.00    +0.000 C 
ATOM     16  O   UNL     1       4.206   1.697  19.669  0.00  0.00    +0.000 OA
ENDBRANCH   9  16
ENDBRANCH   1  14
BRANCH   6  17
ATOM     17  C   UNL     1       7.282   6.626  16.647  0.00  0.00    +0.000 C 
ATOM     18  C   UNL     1       6.409   7.427  17.565  0.00  0.00    +0.000 C 
ATOM     19  C   UNL     1       7.881   7.374  17.816  0.00  0.00    +0.000 C 
ENDBRANCH   6  17
TORSDOF 3
ENDMDL
MODEL 7
REMARK VINA RESULT:      -5.8      2.215      6.264
REMARK  Name = 
REMARK  4 active torsions:
REMARK  status: ('A' for Active; 'I' for Inactive)
REMARK    1  A    between atoms: C_1  and  O_2
REMARK    2  A    between atoms: O_2  and  C_3
REMARK    3  A    between atoms: C_8  and  C_9
REMARK    4  A    between atoms: N_14  and  C_15
REMARK                            x       y       z     vdW  Elec       q    Type
REMARK                         _______ _______ _______ _____ _____    ______ ____
ROOT
ATOM      1  C   UNL     1       4.279   6.485  17.172  0.00  0.00    +0.000 C 
ATOM      2  O   UNL     1       4.000   7.655  16.891  0.00  0.00    +0.000 OA
ATOM      3  N   UNL     1       3.706   5.854  18.284  0.00  0.00    +0.000 N 
ATOM      4  C   UNL     1       3.971   4.485  18.708  0.00  0.00    +0.000 C 
ATOM      5  C   UNL     1       3.810   4.273  20.215  0.00  0.00    +0.000 C 
ATOM      6  N   UNL     1       2.514   4.715  20.752  0.00  0.00    +0.000 NA
ATOM      7  C   UNL     1       2.272   6.117  20.349  0.00  0.00    +0.000 C 
ATOM      8  C   UNL     1       2.486   6.441  18.853  0.00  0.00    +0.000 C 
ENDROOT
BRANCH   1  14
ATOM      9  C   UNL     1       6.699   5.831  16.530  0.00  0.00    +0.000 A 
ATOM     10  C   UNL     1       7.546   5.103  15.676  0.00  0.00    +0.000 A 
ATOM     11  C   UNL     1       7.029   4.359  14.615  0.00  0.00    +0.000 A 
ATOM     12  C   UNL     1       5.659   4.322  14.402  0.00  0.00    +0.000 A 
ATOM     13  C   UNL     1       4.806   5.050  15.238  0.00  0.00    +0.000 A 
ATOM     14  C   UNL     1       5.310   5.824  16.304  0.00  0.00    +0.000 A 
BRANCH   9  16
ATOM     15  C   UNL     1       7.582   5.579  18.703  0.00  0.00    +0.000 C 
ATOM     16  O   UNL     1       7.209   6.457  17.638  0.00  0.00    +0.000 OA
ENDBRANCH   9  16
ENDBRANCH   1  14
BRANCH   6  17
ATOM     17  C   UNL     1       1.398   3.807  20.437  0.00  0.00    +0.000 C 
ATOM     18  C   UNL     1       1.660   2.380  20.057  0.00  0.00    +0.000 C 
ATOM     19  C   UNL     1       1.121   2.689  21.417  0.00  0.00    +0.000 C 
ENDBRANCH   6  17
TORSDOF 3
ENDMDL
MODEL 8
REMARK VINA RESULT:      -5.7      2.561      3.499
REMARK  Name = 
REMARK  4 active torsions:
REMARK  status: ('A' for Active; 'I' for Inactive)
REMARK    1  A    between atoms: C_1  and  O_2
REMARK    2  A    between atoms: O_2  and  C_3
REMARK    3  A    between atoms: C_8  and  C_9
REMARK    4  A    between atoms: N_14  and  C_15
REMARK                            x       y       z     vdW  Elec       q    Type
REMARK                         _______ _______ _______ _____ _____    ______ ____
ROOT
ATOM      1  C   UNL     1       2.421   5.100  18.266  0.00  0.00    +0.000 C 
ATOM      2  O   UNL     1       1.445   5.468  17.603  0.00  0.00    +0.000 OA
ATOM      3  N   UNL     1       3.716   5.525  17.940  0.00  0.00    +0.000 N 
ATOM      4  C   UNL     1       4.931   5.147  18.648  0.00  0.00    +0.000 C 
ATOM      5  C   UNL     1       6.178   5.144  17.760  0.00  0.00    +0.000 C 
ATOM      6  N   UNL     1       6.401   6.401  17.029  0.00  0.00    +0.000 NA
ATOM      7  C   UNL     1       5.175   6.756  16.282  0.00  0.00    +0.000 C 
ATOM      8  C   UNL     1       3.854   6.710  17.085  0.00  0.00    +0.000 C 
ENDROOT
BRANCH   1  14
ATOM      9  C   UNL     1       2.027   2.733  19.234  0.00  0.00    +0.000 A 
ATOM     10  C   UNL     1       1.837   1.932  20.374  0.00  0.00    +0.000 A 
ATOM     11  C   UNL     1       1.772   2.498  21.647  0.00  0.00    +0.000 A 
ATOM     12  C   UNL     1       1.911   3.871  21.798  0.00  0.00    +0.000 A 
ATOM     13  C   UNL     1       2.090   4.680  20.673  0.00  0.00    +0.000 A 
ATOM     14  C   UNL     1       2.138   4.129  19.375  0.00  0.00    +0.000 A 
BRANCH   9  16
ATOM     15  C   UNL     1       3.537   1.682  17.757  0.00  0.00    +0.000 C 
ATOM     16  O   UNL     1       2.210   2.152  18.005  0.00  0.00    +0.000 OA
ENDBRANCH   9  16
ENDBRANCH   1  14
BRANCH   6  17
ATOM     17  C   UNL     1       6.920   7.493  17.869  0.00  0.00    +0.000 C 
ATOM     18  C   UNL     1       8.231   7.350  18.583  0.00  0.00    +0.000 C 
ATOM     19  C   UNL     1       8.149   8.222  17.372  0.00  0.00    +0.000 C 
ENDBRANCH   6  17
TORSDOF 3
ENDMDL
MODEL 9
REMARK VINA RESULT:      -5.7      3.977      6.346
REMARK  Name = 
REMARK  4 active torsions:
REMARK  status: ('A' for Active; 'I' for Inactive)
REMARK    1  A    between atoms: C_1  and  O_2
REMARK    2  A    between atoms: O_2  and  C_3
REMARK    3  A    between atoms: C_8  and  C_9
REMARK    4  A    between atoms: N_14  and  C_15
REMARK                            x       y       z     vdW  Elec       q    Type
REMARK                         _______ _______ _______ _____ _____    ______ ____
ROOT
ATOM      1  C   UNL     1       2.417   6.226  19.741  0.00  0.00    +0.000 C 
ATOM      2  O   UNL     1       2.081   5.667  20.790  0.00  0.00    +0.000 OA
ATOM      3  N   UNL     1       1.975   7.522  19.441  0.00  0.00    +0.000 N 
ATOM      4  C   UNL     1       2.305   8.267  18.234  0.00  0.00    +0.000 C 
ATOM      5  C   UNL     1       1.226   9.273  17.825  0.00  0.00    +0.000 C 
ATOM      6  N   UNL     1       0.837  10.207  18.893  0.00  0.00    +0.000 NA
ATOM      7  C   UNL     1       0.466   9.440  20.102  0.00  0.00    +0.000 C 
ATOM      8  C   UNL     1       1.465   8.346  20.544  0.00  0.00    +0.000 C 
ENDROOT
BRANCH   1  14
ATOM      9  C   UNL     1       2.771   4.413  17.929  0.00  0.00    +0.000 A 
ATOM     10  C   UNL     1       3.656   3.782  17.038  0.00  0.00    +0.000 A 
ATOM     11  C   UNL     1       5.003   4.139  16.989  0.00  0.00    +0.000 A 
ATOM     12  C   UNL     1       5.480   5.143  17.820  0.00  0.00    +0.000 A 
ATOM     13  C   UNL     1       4.613   5.772  18.717  0.00  0.00    +0.000 A 
ATOM     14  C   UNL     1       3.252   5.412  18.797  0.00  0.00    +0.000 A 
BRANCH   9  16
ATOM     15  C   UNL     1       1.036   2.951  18.576  0.00  0.00    +0.000 C 
ATOM     16  O   UNL     1       1.428   4.137  17.881  0.00  0.00    +0.000 OA
ENDBRANCH   9  16
ENDBRANCH   1  14
BRANCH   6  17
ATOM     17  C   UNL     1       1.826  11.268  19.145  0.00  0.00    +0.000 C 
ATOM     18  C   UNL     1       2.390  12.070  18.010  0.00  0.00    +0.000 C 
ATOM     19  C   UNL     1       1.380  12.695  18.918  0.00  0.00    +0.000 C 
ENDBRANCH   6  17
TORSDOF 3
ENDMDL
