MODEL 1
REMARK VINA RESULT:      -7.7      0.000      0.000
REMARK  Name = 
REMARK  5 active torsions:
REMARK  status: ('A' for Active; 'I' for Inactive)
REMARK    1  A    between atoms: C_1  and  S_2
REMARK    2  A    between atoms: S_2  and  N_5
REMARK    3  A    between atoms: N_5  and  C_6
REMARK    4  A    between atoms: C_11  and  N_12
REMARK    5  A    between atoms: N_12  and  C_13
REMARK                            x       y       z     vdW  Elec       q    Type
REMARK                         _______ _______ _______ _____ _____    ______ ____
ROOT
ATOM      1  C   UNL     1       6.526   4.382  17.394  0.00  0.00    +0.000 A 
ATOM      2  C   UNL     1       7.845   4.683  17.761  0.00  0.00    +0.000 A 
ATOM      3  C   UNL     1       8.106   5.271  18.996  0.00  0.00    +0.000 A 
ATOM      4  N   UNL     1       7.087   5.538  19.850  0.00  0.00    +0.000 NA
ATOM      5  C   UNL     1       5.797   5.256  19.537  0.00  0.00    +0.000 A 
ATOM      6  C   UNL     1       5.468   4.678  18.294  0.00  0.00    +0.000 A 
ENDROOT
BRANCH   1   7
ATOM      7  N   UNL     1       6.293   3.721  16.153  0.00  0.00    +0.000 N 
ATOM      8  H   UNL     1       6.861   2.871  16.027  0.00  0.00    +0.000 HD
BRANCH   7  10
ATOM      9  C   UNL     1       5.886   3.765  13.073  0.00  0.00    +0.000 C 
ATOM     10  S   UNL     1       6.259   4.615  14.634  0.00  0.00    +0.000 S 
ATOM     11  O   UNL     1       7.674   5.218  14.553  0.00  0.00    +0.000 OA
ATOM     12  O   UNL     1       5.429   5.881  14.888  0.00  0.00    +0.000 OA
ENDBRANCH   7  10
ENDBRANCH   1   7
BRANCH   6  13
ATOM     13  N   UNL     1       4.113   4.392  17.937  0.00  0.00    +0.000 N 
ATOM     14  H   UNL     1       3.554   5.180  17.562  0.00  0.00    +0.000 HD
BRANCH  13  15
ATOM     15  C   UNL     1       3.418   3.134  18.199  0.00  0.00    +0.000 C 
ATOM     16  C   UNL     1       3.709   2.656  19.633  0.00  0.00    +0.000 C 
ATOM     17  C   UNL     1       3.024   3.446  20.748  0.00  0.00    +0.000 C 
ATOM     18  C   UNL     1       1.622   2.906  21.053  0.00  0.00    +0.000 C 
ATOM     19  C   UNL     1       0.567   3.018  19.950  0.00  0.00    +0.000 C 
ATOM     20  C   UNL     1       0.922   2.390  18.581  0.00  0.00    +0.000 C 
ATOM     21  C   UNL     1       1.924   3.253  17.799  0.00  0.00    +0.000 C 
ENDBRANCH  13  15
ENDBRANCH   6  13
TORSDOF 4
ENDMDL
MODEL 2
REMARK VINA RESULT:      -7.6      0.926      1.616
REMARK  Name = 
REMARK  5 active torsions:
REMARK  status: ('A' for Active; 'I' for Inactive)
REMARK    1  A    between atoms: C_1  and  S_2
REMARK    2  A    between atoms: S_2  and  N_5
REMARK    3  A    between atoms: N_5  and  C_6
REMARK    4  A    between atoms: C_11  and  N_12
REMARK    5  A    between atoms: N_12  and  C_13
REMARK                            x       y       z     vdW  Elec       q    Type
REMARK                         _______ _______ _______ _____ _____    ______ ____
ROOT
ATOM      1  C   UNL     1       6.536   4.391  17.298  0.00  0.00    +0.000 A 
ATOM      2  C   UNL     1       7.823   4.635  17.797  0.00  0.00    +0.000 A 
ATOM      3  C   UNL     1       7.983   5.232  19.045  0.00  0.00    +0.000 A 
ATOM      4  N   UNL     1       6.894   5.562  19.784  0.00  0.00    +0.000 NA
ATOM      5  C   UNL     1       5.632   5.335  19.342  0.00  0.00    +0.000 A 
ATOM      6  C   UNL     1       5.406   4.752  18.078  0.00  0.00    +0.000 A 
ENDROOT
BRANCH   1   7
ATOM      7  N   UNL     1       6.402   3.720  16.048  0.00  0.00    +0.000 N 
ATOM      8  H   UNL     1       7.055   2.933  15.931  0.00  0.00    +0.000 HD
BRANCH   7  10
ATOM      9  C   UNL     1       5.975   3.759  12.970  0.00  0.00    +0.000 C 
ATOM     10  S   UNL     1       6.315   4.618  14.533  0.00  0.00    +0.000 S 
ATOM     11  O   UNL     1       7.699   5.289  14.447  0.00  0.00    +0.000 OA
ATOM     12  O   UNL     1       5.426   5.841  14.799  0.00  0.00    +0.000 OA
ENDBRANCH   7  10
ENDBRANCH   1   7
BRANCH   6  13
ATOM     13  N   UNL     1       4.084   4.524  17.585  0.00  0.00    +0.000 N 
ATOM     14  H   UNL     1       4.003   4.011  16.688  0.00  0.00    +0.000 HD
BRANCH  13  15
ATOM     15  C   UNL     1       2.861   5.085  18.156  0.00  0.00    +0.000 C 
ATOM     16  C   UNL     1       1.638   4.274  17.692  0.00  0.00    +0.000 C 
ATOM     17  C   UNL     1       1.481   2.890  18.319  0.00  0.00    +0.000 C 
ATOM     18  C   UNL     1       0.706   2.946  19.641  0.00  0.00    +0.000 C 
ATOM     19  C   UNL     1       1.351   3.703  20.805  0.00  0.00    +0.000 C 
ATOM     20  C   UNL     1       1.751   5.174  20.542  0.00  0.00    +0.000 C 
ATOM     21  C   UNL     1       3.025   5.275  19.688  0.00  0.00    +0.000 C 
ENDBRANCH  13  15
ENDBRANCH   6  13
TORSDOF 4
ENDMDL
MODEL 3
REMARK VINA RESULT:      -7.6      1.047      1.296
REMARK  Name = 
REMARK  5 active torsions:
REMARK  status: ('A' for Active; 'I' for Inactive)
REMARK    1  A    between atoms: C_1  and  S_2
REMARK    2  A    between atoms: S_2  and  N_5
REMARK    3  A    between atoms: N_5  and  C_6
REMARK    4  A    between atoms: C_11  and  N_12
REMARK    5  A    between atoms: N_12  and  C_13
REMARK                            x       y       z     vdW  Elec       q    Type
REMARK                         _______ _______ _______ _____ _____    ______ ____
ROOT
ATOM      1  C   UNL     1       6.764   4.381  17.283  0.00  0.00    +0.000 A 
ATOM      2  C   UNL     1       7.692   5.269  17.845  0.00  0.00    +0.000 A 
ATOM      3  C   UNL     1       7.484   5.770  19.128  0.00  0.00    +0.000 A 
ATOM      4  N   UNL     1       6.396   5.386  19.840  0.00  0.00    +0.000 NA
ATOM      5  C   UNL     1       5.479   4.522  19.336  0.00  0.00    +0.000 A 
ATOM      6  C   UNL     1       5.623   3.996  18.035  0.00  0.00    +0.000 A 
ENDROOT
BRANCH   1   7
ATOM      7  N   UNL     1       7.034   3.834  15.995  0.00  0.00    +0.000 N 
ATOM      8  H   UNL     1       7.990   3.464  15.896  0.00  0.00    +0.000 HD
BRANCH   7  10
ATOM      9  C   UNL     1       6.129   3.803  13.022  0.00  0.00    +0.000 C 
ATOM     10  S   UNL     1       6.606   4.706  14.524  0.00  0.00    +0.000 S 
ATOM     11  O   UNL     1       7.870   5.536  14.231  0.00  0.00    +0.000 OA
ATOM     12  O   UNL     1       5.632   5.817  14.940  0.00  0.00    +0.000 OA
ENDBRANCH   7  10
ENDBRANCH   1   7
BRANCH   6  13
ATOM     13  N   UNL     1       4.657   3.101  17.478  0.00  0.00    +0.000 N 
ATOM     14  H   UNL     1       5.017   2.211  17.089  0.00  0.00    +0.000 HD
BRANCH  13  15
ATOM     15  C   UNL     1       3.242   3.405  17.277  0.00  0.00    +0.000 C 
ATOM     16  C   UNL     1       2.371   2.256  17.814  0.00  0.00    +0.000 C 
ATOM     17  C   UNL     1       2.289   2.139  19.335  0.00  0.00    +0.000 C 
ATOM     18  C   UNL     1       1.168   3.008  19.915  0.00  0.00    +0.000 C 
ATOM     19  C   UNL     1       1.302   4.526  19.764  0.00  0.00    +0.000 C 
ATOM     20  C   UNL     1       1.492   5.068  18.328  0.00  0.00    +0.000 C 
ATOM     21  C   UNL     1       2.919   4.826  17.810  0.00  0.00    +0.000 C 
ENDBRANCH  13  15
ENDBRANCH   6  13
TORSDOF 4
ENDMDL
MODEL 4
REMARK VINA RESULT:      -7.5      2.323      3.117
REMARK  Name = 
REMARK  5 active torsions:
REMARK  status: ('A' for Active; 'I' for Inactive)
REMARK    1  A    between atoms: C_1  and  S_2
REMARK    2  A    between atoms: S_2  and  N_5
REMARK    3  A    between atoms: N_5  and  C_6
REMARK    4  A    between atoms: C_11  and  N_12
REMARK    5  A    between atoms: N_12  and  C_13
REMARK                            x       y       z     vdW  Elec       q    Type
REMARK                         _______ _______ _______ _____ _____    ______ ____
ROOT
ATOM      1  C   UNL     1       4.208   6.379  17.474  0.00  0.00    +0.000 A 
ATOM      2  C   UNL     1       3.598   7.607  17.183  0.00  0.00    +0.000 A 
ATOM      3  C   UNL     1       2.667   8.148  18.068  0.00  0.00    +0.000 A 
ATOM      4  N   UNL     1       2.365   7.495  19.218  0.00  0.00    +0.000 NA
ATOM      5  C   UNL     1       2.939   6.309  19.541  0.00  0.00    +0.000 A 
ATOM      6  C   UNL     1       3.873   5.702  18.676  0.00  0.00    +0.000 A 
ENDROOT
BRANCH   1   7
ATOM      7  N   UNL     1       5.203   5.881  16.584  0.00  0.00    +0.000 N 
ATOM      8  H   UNL     1       5.021   4.921  16.258  0.00  0.00    +0.000 HD
BRANCH   7  10
ATOM      9  C   UNL     1       7.588   7.614  17.566  0.00  0.00    +0.000 C 
ATOM     10  S   UNL     1       6.920   6.041  16.951  0.00  0.00    +0.000 S 
ATOM     11  O   UNL     1       7.596   5.698  15.611  0.00  0.00    +0.000 OA
ATOM     12  O   UNL     1       7.308   4.811  17.783  0.00  0.00    +0.000 OA
ENDBRANCH   7  10
ENDBRANCH   1   7
BRANCH   6  13
ATOM     13  N   UNL     1       4.473   4.442  18.988  0.00  0.00    +0.000 N 
ATOM     14  H   UNL     1       5.499   4.439  19.134  0.00  0.00    +0.000 HD
BRANCH  13  15
ATOM     15  C   UNL     1       3.788   3.152  18.965  0.00  0.00    +0.000 C 
ATOM     16  C   UNL     1       3.677   2.585  20.391  0.00  0.00    +0.000 C 
ATOM     17  C   UNL     1       2.668   3.278  21.305  0.00  0.00    +0.000 C 
ATOM     18  C   UNL     1       1.263   2.683  21.162  0.00  0.00    +0.000 C 
ATOM     19  C   UNL     1       0.564   2.845  19.809  0.00  0.00    +0.000 C 
ATOM     20  C   UNL     1       1.322   2.322  18.567  0.00  0.00    +0.000 C 
ATOM     21  C   UNL     1       2.467   3.261  18.158  0.00  0.00    +0.000 C 
ENDBRANCH  13  15
ENDBRANCH   6  13
TORSDOF 4
ENDMDL
MODEL 5
REMARK VINA RESULT:      -7.5      1.729      2.084
REMARK  Name = 
REMARK  5 active torsions:
REMARK  status: ('A' for Active; 'I' for Inactive)
REMARK    1  A    between atoms: C_1  and  S_2
REMARK    2  A    between atoms: S_2  and  N_5
REMARK    3  A    between atoms: N_5  and  C_6
REMARK    4  A    between atoms: C_11  and  N_12
REMARK    5  A    between atoms: N_12  and  C_13
REMARK                            x       y       z     vdW  Elec       q    Type
REMARK                         _______ _______ _______ _____ _____    ______ ____
ROOT
ATOM      1  C   UNL     1       6.628   4.352  17.341  0.00  0.00    +0.000 A 
ATOM      2  C   UNL     1       7.866   4.787  17.832  0.00  0.00    +0.000 A 
ATOM      3  C   UNL     1       7.948   5.366  19.096  0.00  0.00    +0.000 A 
ATOM      4  N   UNL     1       6.834   5.493  19.858  0.00  0.00    +0.000 NA
ATOM      5  C   UNL     1       5.617   5.078  19.425  0.00  0.00    +0.000 A 
ATOM      6  C   UNL     1       5.468   4.502  18.146  0.00  0.00    +0.000 A 
ENDROOT
BRANCH   1   7
ATOM      7  N   UNL     1       6.582   3.704  16.072  0.00  0.00    +0.000 N 
ATOM      8  H   UNL     1       7.338   3.019  15.933  0.00  0.00    +0.000 HD
BRANCH   7  10
ATOM      9  C   UNL     1       5.968   3.779  13.027  0.00  0.00    +0.000 C 
ATOM     10  S   UNL     1       6.367   4.624  14.584  0.00  0.00    +0.000 S 
ATOM     11  O   UNL     1       7.713   5.356  14.428  0.00  0.00    +0.000 OA
ATOM     12  O   UNL     1       5.445   5.804  14.927  0.00  0.00    +0.000 OA
ENDBRANCH   7  10
ENDBRANCH   1   7
BRANCH   6  13
ATOM     13  N   UNL     1       4.191   4.077  17.662  0.00  0.00    +0.000 N 
ATOM     14  H   UNL     1       4.146   3.137  17.229  0.00  0.00    +0.000 HD
BRANCH  13  15
ATOM     15  C   UNL     1       2.995   4.913  17.589  0.00  0.00    +0.000 C 
ATOM     16  C   UNL     1       1.907   4.367  18.531  0.00  0.00    +0.000 C 
ATOM     17  C   UNL     1       2.153   4.580  20.023  0.00  0.00    +0.000 C 
ATOM     18  C   UNL     1       1.622   5.936  20.503  0.00  0.00    +0.000 C 
ATOM     19  C   UNL     1       2.284   7.194  19.933  0.00  0.00    +0.000 C 
ATOM     20  C   UNL     1       2.317   7.327  18.393  0.00  0.00    +0.000 C 
ATOM     21  C   UNL     1       3.375   6.407  17.762  0.00  0.00    +0.000 C 
ENDBRANCH  13  15
ENDBRANCH   6  13
TORSDOF 4
ENDMDL
MODEL 6
REMARK VINA RESULT:      -7.5      1.398      1.985
REMARK  Name = 
REMARK  5 active torsions:
REMARK  status: ('A' for Active; 'I' for Inactive)
REMARK    1  A    between atoms: C_1  and  S_2
REMARK    2  A    between atoms: S_2  and  N_5
REMARK    3  A    between atoms: N_5  and  C_6
REMARK    4  A    between atoms: C_11  and  N_12
REMARK    5  A    between atoms: N_12  and  C_13
REMARK                            x       y       z     vdW  Elec       q    Type
REMARK                         _______ _______ _______ _____ _____    ______ ____
ROOT
ATOM      1  C   UNL     1       6.180   5.876  17.132  0.00  0.00    +0.000 A 
ATOM      2  C   UNL     1       7.431   6.258  17.635  0.00  0.00    +0.000 A 
ATOM      3  C   UNL     1       7.737   6.042  18.977  0.00  0.00    +0.000 A 
ATOM      4  N   UNL     1       6.831   5.446  19.792  0.00  0.00    +0.000 NA
ATOM      5  C   UNL     1       5.612   5.054  19.344  0.00  0.00    +0.000 A 
ATOM      6  C   UNL     1       5.237   5.264  18.001  0.00  0.00    +0.000 A 
ENDROOT
BRANCH   1   7
ATOM      7  N   UNL     1       5.917   6.049  15.743  0.00  0.00    +0.000 N 
ATOM      8  H   UNL     1       4.938   6.292  15.535  0.00  0.00    +0.000 HD
BRANCH   7  10
ATOM      9  C   UNL     1       5.330   4.194  13.320  0.00  0.00    +0.000 C 
ATOM     10  S   UNL     1       6.476   4.874  14.554  0.00  0.00    +0.000 S 
ATOM     11  O   UNL     1       7.015   3.725  15.426  0.00  0.00    +0.000 OA
ATOM     12  O   UNL     1       7.787   5.424  13.975  0.00  0.00    +0.000 OA
ENDBRANCH   7  10
ENDBRANCH   1   7
BRANCH   6  13
ATOM     13  N   UNL     1       3.950   4.877  17.514  0.00  0.00    +0.000 N 
ATOM     14  H   UNL     1       3.929   4.339  16.629  0.00  0.00    +0.000 HD
BRANCH  13  15
ATOM     15  C   UNL     1       2.671   5.306  18.075  0.00  0.00    +0.000 C 
ATOM     16  C   UNL     1       1.561   4.312  17.690  0.00  0.00    +0.000 C 
ATOM     17  C   UNL     1       1.600   2.964  18.408  0.00  0.00    +0.000 C 
ATOM     18  C   UNL     1       0.842   3.003  19.740  0.00  0.00    +0.000 C 
ATOM     19  C   UNL     1       1.394   3.914  20.839  0.00  0.00    +0.000 C 
ATOM     20  C   UNL     1       1.591   5.404  20.474  0.00  0.00    +0.000 C 
ATOM     21  C   UNL     1       2.827   5.618  19.587  0.00  0.00    +0.000 C 
ENDBRANCH  13  15
ENDBRANCH   6  13
TORSDOF 4
ENDMDL
MODEL 7
REMARK VINA RESULT:      -7.4      2.414      3.389
REMARK  Name = 
REMARK  5 active torsions:
REMARK  status: ('A' for Active; 'I' for Inactive)
REMARK    1  A    between atoms: C_1  and  S_2
REMARK    2  A    between atoms: S_2  and  N_5
REMARK    3  A    between atoms: N_5  and  C_6
REMARK    4  A    between atoms: C_11  and  N_12
REMARK    5  A    between atoms: N_12  and  C_13
REMARK                            x       y       z     vdW  Elec       q    Type
REMARK                         _______ _______ _______ _____ _____    ______ ____
ROOT
ATOM      1  C   UNL     1       6.510   4.296  16.770  0.00  0.00    +0.000 A 
ATOM      2  C   UNL     1       7.358   4.435  15.663  0.00  0.00    +0.000 A 
ATOM      3  C   UNL     1       6.819   4.543  14.384  0.00  0.00    +0.000 A 
ATOM      4  N   UNL     1       5.474   4.532  14.210  0.00  0.00    +0.000 NA
ATOM      5  C   UNL     1       4.617   4.408  15.255  0.00  0.00    +0.000 A 
ATOM      6  C   UNL     1       5.104   4.275  16.572  0.00  0.00    +0.000 A 
ENDROOT
BRANCH   1   7
ATOM      7  N   UNL     1       7.085   4.253  18.073  0.00  0.00    +0.000 N 
ATOM      8  H   UNL     1       6.749   3.465  18.646  0.00  0.00    +0.000 HD
BRANCH   7  10
ATOM      9  C   UNL     1       8.027   7.183  18.494  0.00  0.00    +0.000 C 
ATOM     10  S   UNL     1       7.170   5.695  19.083  0.00  0.00    +0.000 S 
ATOM     11  O   UNL     1       7.866   5.186  20.359  0.00  0.00    +0.000 OA
ATOM     12  O   UNL     1       5.752   5.941  19.617  0.00  0.00    +0.000 OA
ENDBRANCH   7  10
ENDBRANCH   1   7
BRANCH   6  13
ATOM     13  N   UNL     1       4.219   4.122  17.685  0.00  0.00    +0.000 N 
ATOM     14  H   UNL     1       4.308   4.815  18.449  0.00  0.00    +0.000 HD
BRANCH  13  15
ATOM     15  C   UNL     1       3.318   2.991  17.897  0.00  0.00    +0.000 C 
ATOM     16  C   UNL     1       3.771   2.174  19.120  0.00  0.00    +0.000 C 
ATOM     17  C   UNL     1       3.527   2.823  20.481  0.00  0.00    +0.000 C 
ATOM     18  C   UNL     1       2.129   2.506  21.024  0.00  0.00    +0.000 C 
ATOM     19  C   UNL     1       0.929   3.048  20.242  0.00  0.00    +0.000 C 
ATOM     20  C   UNL     1       0.846   2.670  18.745  0.00  0.00    +0.000 C 
ATOM     21  C   UNL     1       1.843   3.474  17.896  0.00  0.00    +0.000 C 
ENDBRANCH  13  15
ENDBRANCH   6  13
TORSDOF 4
ENDMDL
MODEL 8
REMARK VINA RESULT:      -7.3      2.524      3.677
REMARK  Name = 
REMARK  5 active torsions:
REMARK  status: ('A' for Active; 'I' for Inactive)
REMARK    1  A    between atoms: C_1  and  S_2
REMARK    2  A    between atoms: S_2  and  N_5
REMARK    3  A    between atoms: N_5  and  C_6
REMARK    4  A    between atoms: C_11  and  N_12
REMARK    5  A    between atoms: N_12  and  C_13
REMARK                            x       y       z     vdW  Elec       q    Type
REMARK                         _______ _______ _______ _____ _____    ______ ____
ROOT
ATOM      1  C   UNL     1       6.567   4.267  16.627  0.00  0.00    +0.000 A 
ATOM      2  C   UNL     1       7.367   4.561  15.514  0.00  0.00    +0.000 A 
ATOM      3  C   UNL     1       6.779   4.746  14.265  0.00  0.00    +0.000 A 
ATOM      4  N   UNL     1       5.432   4.659  14.129  0.00  0.00    +0.000 NA
ATOM      5  C   UNL     1       4.621   4.385  15.181  0.00  0.00    +0.000 A 
ATOM      6  C   UNL     1       5.159   4.168  16.467  0.00  0.00    +0.000 A 
ENDROOT
BRANCH   1   7
ATOM      7  N   UNL     1       7.187   4.146  17.904  0.00  0.00    +0.000 N 
ATOM      8  H   UNL     1       6.816   3.370  18.470  0.00  0.00    +0.000 HD
BRANCH   7  10
ATOM      9  C   UNL     1       7.887   7.155  18.238  0.00  0.00    +0.000 C 
ATOM     10  S   UNL     1       7.416   5.551  18.945  0.00  0.00    +0.000 S 
ATOM     11  O   UNL     1       8.517   5.087  19.918  0.00  0.00    +0.000 OA
ATOM     12  O   UNL     1       6.208   5.597  19.892  0.00  0.00    +0.000 OA
ENDBRANCH   7  10
ENDBRANCH   1   7
BRANCH   6  13
ATOM     13  N   UNL     1       4.323   3.857  17.584  0.00  0.00    +0.000 N 
ATOM     14  H   UNL     1       4.533   2.979  18.092  0.00  0.00    +0.000 HD
BRANCH  13  15
ATOM     15  C   UNL     1       3.118   4.590  17.967  0.00  0.00    +0.000 C 
ATOM     16  C   UNL     1       1.865   3.764  17.627  0.00  0.00    +0.000 C 
ATOM     17  C   UNL     1       1.602   2.555  18.524  0.00  0.00    +0.000 C 
ATOM     18  C   UNL     1       0.786   2.932  19.766  0.00  0.00    +0.000 C 
ATOM     19  C   UNL     1       1.435   3.885  20.773  0.00  0.00    +0.000 C 
ATOM     20  C   UNL     1       1.933   5.243  20.225  0.00  0.00    +0.000 C 
ATOM     21  C   UNL     1       3.239   5.094  19.429  0.00  0.00    +0.000 C 
ENDBRANCH  13  15
ENDBRANCH   6  13
TORSDOF 4
ENDMDL
MODEL 9
REMARK VINA RESULT:      -7.2      0.821      1.146
REMARK  Name = 
REMARK  5 active torsions:
REMARK  status: ('A' for Active; 'I' for Inactive)
REMARK    1  A    between atoms: C_1  and  S_2
REMARK    2  A    between atoms: S_2  and  N_5
REMARK    3  A    between atoms: N_5  and  C_6
REMARK    4  A    between atoms: C_11  and  N_12
REMARK    5  A    between atoms: N_12  and  C_13
REMARK                            x       y       z     vdW  Elec       q    Type
REMARK                         _______ _______ _______ _____ _____    ______ ____
ROOT
ATOM      1  C   UNL     1       6.422   4.425  17.202  0.00  0.00    +0.000 A 
ATOM      2  C   UNL     1       7.624   4.692  17.873  0.00  0.00    +0.000 A 
ATOM      3  C   UNL     1       7.602   5.316  19.117  0.00  0.00    +0.000 A 
ATOM      4  N   UNL     1       6.418   5.650  19.688  0.00  0.00    +0.000 NA
ATOM      5  C   UNL     1       5.232   5.402  19.078  0.00  0.00    +0.000 A 
ATOM      6  C   UNL     1       5.191   4.790  17.808  0.00  0.00    +0.000 A 
ENDROOT
BRANCH   1   7
ATOM      7  N   UNL     1       6.470   3.727  15.961  0.00  0.00    +0.000 N 
ATOM      8  H   UNL     1       7.201   3.003  15.923  0.00  0.00    +0.000 HD
BRANCH   7  10
ATOM      9  C   UNL     1       6.217   3.693  12.864  0.00  0.00    +0.000 C 
ATOM     10  S   UNL     1       6.445   4.592  14.425  0.00  0.00    +0.000 S 
ATOM     11  O   UNL     1       7.813   5.300  14.402  0.00  0.00    +0.000 OA
ATOM     12  O   UNL     1       5.510   5.795  14.614  0.00  0.00    +0.000 OA
ENDBRANCH   7  10
ENDBRANCH   1   7
BRANCH   6  13
ATOM     13  N   UNL     1       3.953   4.540  17.138  0.00  0.00    +0.000 N 
ATOM     14  H   UNL     1       3.824   4.988  16.213  0.00  0.00    +0.000 HD
BRANCH  13  15
ATOM     15  C   UNL     1       2.808   3.838  17.715  0.00  0.00    +0.000 C 
ATOM     16  C   UNL     1       3.242   2.459  18.243  0.00  0.00    +0.000 C 
ATOM     17  C   UNL     1       4.076   2.471  19.523  0.00  0.00    +0.000 C 
ATOM     18  C   UNL     1       3.197   2.466  20.779  0.00  0.00    +0.000 C 
ATOM     19  C   UNL     1       2.307   3.687  21.021  0.00  0.00    +0.000 C 
ATOM     20  C   UNL     1       1.334   4.077  19.884  0.00  0.00    +0.000 C 
ATOM     21  C   UNL     1       2.064   4.760  18.716  0.00  0.00    +0.000 C 
ENDBRANCH  13  15
ENDBRANCH   6  13
TORSDOF 4
ENDMDL
