MODEL 1
REMARK VINA RESULT:      -6.9      0.000      0.000
REMARK  Name = 
REMARK  7 active torsions:
REMARK  status: ('A' for Active; 'I' for Inactive)
REMARK    1  A    between atoms: C_1  and  N_2
REMARK    2  A    between atoms: N_2  and  C_3
REMARK    3  A    between atoms: N_2  and  C_4
REMARK    4  A    between atoms: C_4  and  C_5
REMARK    5  A    between atoms: C_5  and  N_6
REMARK    6  A    between atoms: C_10  and  C_11
REMARK    7  A    between atoms: C_15  and  C_17
REMARK                            x       y       z     vdW  Elec       q    Type
REMARK                         _______ _______ _______ _____ _____    ______ ____
ROOT
ATOM      1  C   UNL     1       0.713   9.614  18.514  0.00  0.00    +0.000 C 
ATOM      2  C   UNL     1       0.287   8.880  19.813  0.00  0.00    +0.000 C 
ATOM      3  C   UNL     1       1.452   8.290  20.613  0.00  0.00    +0.000 C 
ATOM      4  N   UNL     1       2.359   7.559  19.742  0.00  0.00    +0.000 N 
ATOM      5  C   UNL     1       2.382   6.178  19.775  0.00  0.00    +0.000 C 
ATOM      6  O   UNL     1       1.614   5.490  20.469  0.00  0.00    +0.000 OA
ATOM      7  C   UNL     1       2.896   8.398  18.665  0.00  0.00    +0.000 C 
ATOM      8  C   UNL     1       1.757   8.802  17.747  0.00  0.00    +0.000 C 
ENDROOT
BRANCH   5   9
ATOM      9  C   UNL     1       3.427   5.518  18.977  0.00  0.00    +0.000 A 
ATOM     10  N   UNL     1       3.220   5.040  17.759  0.00  0.00    +0.000 NA
ATOM     11  C   UNL     1       4.415   4.634  17.269  0.00  0.00    +0.000 A 
ATOM     12  C   UNL     1       4.701   4.114  16.034  0.00  0.00    +0.000 A 
ATOM     13  C   UNL     1       5.977   4.398  15.588  0.00  0.00    +0.000 A 
ATOM     14  C   UNL     1       6.999   4.556  16.514  0.00  0.00    +0.000 A 
ATOM     15  C   UNL     1       6.749   4.643  17.897  0.00  0.00    +0.000 A 
ATOM     16  C   UNL     1       5.407   4.861  18.211  0.00  0.00    +0.000 A 
ATOM     17  N   UNL     1       4.745   5.324  19.318  0.00  0.00    +0.000 N 
ATOM     18  H   UNL     1       5.163   5.606  20.183  0.00  0.00    +0.000 HD
ENDBRANCH   5   9
BRANCH   1  23
ATOM     19  N   UNL     1       0.666  11.891  19.678  0.00  0.00    +0.000 N 
ATOM     20  C   UNL     1       1.411  13.041  19.650  0.00  0.00    +0.000 A 
ATOM     21  C   UNL     1       2.357  12.835  18.679  0.00  0.00    +0.000 A 
ATOM     22  N   UNL     1       2.229  11.583  18.143  0.00  0.00    +0.000 NA
ATOM     23  C   UNL     1       1.220  11.011  18.771  0.00  0.00    +0.000 A 
BRANCH  19  24
ATOM     24  C   UNL     1      -0.495  11.700  20.537  0.00  0.00    +0.000 C 
BRANCH  24  25
ATOM     25  C   UNL     1      -0.412  12.581  21.786  0.00  0.00    +0.000 C 
BRANCH  25  27
ATOM     26  C   UNL     1      -2.228  12.307  23.326  0.00  0.00    +0.000 C 
ATOM     27  N   UNL     1      -0.835  11.932  23.044  0.00  0.00    +0.000 NA
ATOM     28  C   UNL     1      -0.734  10.472  22.981  0.00  0.00    +0.000 C 
ENDBRANCH  25  27
ENDBRANCH  24  25
ENDBRANCH  19  24
ENDBRANCH   1  23
TORSDOF 5
ENDMDL
MODEL 2
REMARK VINA RESULT:      -6.9      1.715      2.304
REMARK  Name = 
REMARK  7 active torsions:
REMARK  status: ('A' for Active; 'I' for Inactive)
REMARK    1  A    between atoms: C_1  and  N_2
REMARK    2  A    between atoms: N_2  and  C_3
REMARK    3  A    between atoms: N_2  and  C_4
REMARK    4  A    between atoms: C_4  and  C_5
REMARK    5  A    between atoms: C_5  and  N_6
REMARK    6  A    between atoms: C_10  and  C_11
REMARK    7  A    between atoms: C_15  and  C_17
REMARK                            x       y       z     vdW  Elec       q    Type
REMARK                         _______ _______ _______ _____ _____    ______ ____
ROOT
ATOM      1  C   UNL     1       0.592   9.472  18.364  0.00  0.00    +0.000 C 
ATOM      2  C   UNL     1       0.308   8.851  19.758  0.00  0.00    +0.000 C 
ATOM      3  C   UNL     1       1.562   8.399  20.512  0.00  0.00    +0.000 C 
ATOM      4  N   UNL     1       2.437   7.629  19.643  0.00  0.00    +0.000 N 
ATOM      5  C   UNL     1       2.539   6.261  19.805  0.00  0.00    +0.000 C 
ATOM      6  O   UNL     1       1.865   5.609  20.622  0.00  0.00    +0.000 OA
ATOM      7  C   UNL     1       2.843   8.380  18.450  0.00  0.00    +0.000 C 
ATOM      8  C   UNL     1       1.617   8.638  17.595  0.00  0.00    +0.000 C 
ENDROOT
BRANCH   5   9
ATOM      9  C   UNL     1       3.553   5.574  18.991  0.00  0.00    +0.000 A 
ATOM     10  N   UNL     1       3.309   5.082  17.785  0.00  0.00    +0.000 NA
ATOM     11  C   UNL     1       4.485   4.652  17.270  0.00  0.00    +0.000 A 
ATOM     12  C   UNL     1       4.732   4.111  16.036  0.00  0.00    +0.000 A 
ATOM     13  C   UNL     1       6.000   4.370  15.555  0.00  0.00    +0.000 A 
ATOM     14  C   UNL     1       7.047   4.526  16.452  0.00  0.00    +0.000 A 
ATOM     15  C   UNL     1       6.834   4.635  17.839  0.00  0.00    +0.000 A 
ATOM     16  C   UNL     1       5.504   4.878  18.184  0.00  0.00    +0.000 A 
ATOM     17  N   UNL     1       4.876   5.366  19.301  0.00  0.00    +0.000 N 
ATOM     18  H   UNL     1       5.320   5.654  20.151  0.00  0.00    +0.000 HD
ENDBRANCH   5   9
BRANCH   1  23
ATOM     19  N   UNL     1       0.210  11.974  18.733  0.00  0.00    +0.000 N 
ATOM     20  C   UNL     1       0.979  13.109  18.744  0.00  0.00    +0.000 A 
ATOM     21  C   UNL     1       2.240  12.695  18.401  0.00  0.00    +0.000 A 
ATOM     22  N   UNL     1       2.266  11.340  18.217  0.00  0.00    +0.000 NA
ATOM     23  C   UNL     1       1.041  10.909  18.445  0.00  0.00    +0.000 A 
BRANCH  19  24
ATOM     24  C   UNL     1      -1.224  11.966  18.989  0.00  0.00    +0.000 C 
BRANCH  24  25
ATOM     25  C   UNL     1      -2.021  11.883  17.685  0.00  0.00    +0.000 C 
BRANCH  25  27
ATOM     26  C   UNL     1      -4.163  11.526  16.671  0.00  0.00    +0.000 C 
ATOM     27  N   UNL     1      -3.271  11.100  17.759  0.00  0.00    +0.000 NA
ATOM     28  C   UNL     1      -3.034   9.658  17.649  0.00  0.00    +0.000 C 
ENDBRANCH  25  27
ENDBRANCH  24  25
ENDBRANCH  19  24
ENDBRANCH   1  23
TORSDOF 5
ENDMDL
MODEL 3
REMARK VINA RESULT:      -6.9      2.004      2.818
REMARK  Name = 
REMARK  7 active torsions:
REMARK  status: ('A' for Active; 'I' for Inactive)
REMARK    1  A    between atoms: C_1  and  N_2
REMARK    2  A    between atoms: N_2  and  C_3
REMARK    3  A    between atoms: N_2  and  C_4
REMARK    4  A    between atoms: C_4  and  C_5
REMARK    5  A    between atoms: C_5  and  N_6
REMARK    6  A    between atoms: C_10  and  C_11
REMARK    7  A    between atoms: C_15  and  C_17
REMARK                            x       y       z     vdW  Elec       q    Type
REMARK                         _______ _______ _______ _____ _____    ______ ____
ROOT
ATOM      1  C   UNL     1      -0.278   9.865  19.909  0.00  0.00    +0.000 C 
ATOM      2  C   UNL     1      -0.112   8.978  21.171  0.00  0.00    +0.000 C 
ATOM      3  C   UNL     1       1.320   8.492  21.414  0.00  0.00    +0.000 C 
ATOM      4  N   UNL     1       1.901   7.964  20.190  0.00  0.00    +0.000 N 
ATOM      5  C   UNL     1       2.071   6.602  20.040  0.00  0.00    +0.000 C 
ATOM      6  O   UNL     1       1.690   5.761  20.873  0.00  0.00    +0.000 OA
ATOM      7  C   UNL     1       1.910   8.952  19.105  0.00  0.00    +0.000 C 
ATOM      8  C   UNL     1       0.477   9.268  18.721  0.00  0.00    +0.000 C 
ENDROOT
BRANCH   5   9
ATOM      9  C   UNL     1       2.799   6.157  18.842  0.00  0.00    +0.000 A 
ATOM     10  N   UNL     1       3.586   6.950  18.131  0.00  0.00    +0.000 NA
ATOM     11  C   UNL     1       4.201   6.188  17.195  0.00  0.00    +0.000 A 
ATOM     12  C   UNL     1       5.134   6.562  16.265  0.00  0.00    +0.000 A 
ATOM     13  C   UNL     1       6.019   5.559  15.924  0.00  0.00    +0.000 A 
ATOM     14  C   UNL     1       5.597   4.237  15.972  0.00  0.00    +0.000 A 
ATOM     15  C   UNL     1       4.369   3.864  16.549  0.00  0.00    +0.000 A 
ATOM     16  C   UNL     1       3.784   4.871  17.320  0.00  0.00    +0.000 A 
ATOM     17  N   UNL     1       2.824   4.894  18.298  0.00  0.00    +0.000 N 
ATOM     18  H   UNL     1       2.322   4.104  18.654  0.00  0.00    +0.000 HD
ENDBRANCH   5   9
BRANCH   1  23
ATOM     19  N   UNL     1      -0.261  12.364  19.369  0.00  0.00    +0.000 N 
ATOM     20  C   UNL     1       0.310  13.495  19.895  0.00  0.00    +0.000 A 
ATOM     21  C   UNL     1       1.095  13.055  20.930  0.00  0.00    +0.000 A 
ATOM     22  N   UNL     1       0.990  11.698  21.068  0.00  0.00    +0.000 NA
ATOM     23  C   UNL     1       0.149  11.293  20.137  0.00  0.00    +0.000 A 
BRANCH  19  24
ATOM     24  C   UNL     1      -1.135  12.368  18.204  0.00  0.00    +0.000 C 
BRANCH  24  25
ATOM     25  C   UNL     1      -2.551  11.916  18.570  0.00  0.00    +0.000 C 
BRANCH  25  27
ATOM     26  C   UNL     1      -3.162   9.844  17.533  0.00  0.00    +0.000 C 
ATOM     27  N   UNL     1      -3.322  11.303  17.468  0.00  0.00    +0.000 NA
ATOM     28  C   UNL     1      -4.747  11.635  17.531  0.00  0.00    +0.000 C 
ENDBRANCH  25  27
ENDBRANCH  24  25
ENDBRANCH  19  24
ENDBRANCH   1  23
TORSDOF 5
ENDMDL
MODEL 4
REMARK VINA RESULT:      -6.8      2.036      8.713
REMARK  Name = 
REMARK  7 active torsions:
REMARK  status: ('A' for Active; 'I' for Inactive)
REMARK    1  A    between atoms: C_1  and  N_2
REMARK    2  A    between atoms: N_2  and  C_3
REMARK    3  A    between atoms: N_2  and  C_4
REMARK    4  A    between atoms: C_4  and  C_5
REMARK    5  A    between atoms: C_5  and  N_6
REMARK    6  A    between atoms: C_10  and  C_11
REMARK    7  A    between atoms: C_15  and  C_17
REMARK                            x       y       z     vdW  Elec       q    Type
REMARK                         _______ _______ _______ _____ _____    ______ ____
ROOT
ATOM      1  C   UNL     1       1.636   4.407  19.044  0.00  0.00    +0.000 C 
ATOM      2  C   UNL     1       2.149   5.230  17.831  0.00  0.00    +0.000 C 
ATOM      3  C   UNL     1       2.967   6.467  18.212  0.00  0.00    +0.000 C 
ATOM      4  N   UNL     1       2.298   7.228  19.254  0.00  0.00    +0.000 N 
ATOM      5  C   UNL     1       1.687   8.429  18.946  0.00  0.00    +0.000 C 
ATOM      6  O   UNL     1       1.608   8.888  17.794  0.00  0.00    +0.000 OA
ATOM      7  C   UNL     1       2.053   6.430  20.460  0.00  0.00    +0.000 C 
ATOM      8  C   UNL     1       1.066   5.328  20.123  0.00  0.00    +0.000 C 
ENDROOT
BRANCH   5   9
ATOM      9  C   UNL     1       1.163   9.211  20.076  0.00  0.00    +0.000 A 
ATOM     10  N   UNL     1       0.994  10.524  20.037  0.00  0.00    +0.000 NA
ATOM     11  C   UNL     1       0.367  10.892  21.180  0.00  0.00    +0.000 A 
ATOM     12  C   UNL     1      -0.052  12.138  21.563  0.00  0.00    +0.000 A 
ATOM     13  C   UNL     1      -1.165  12.128  22.381  0.00  0.00    +0.000 A 
ATOM     14  C   UNL     1      -1.374  11.049  23.228  0.00  0.00    +0.000 A 
ATOM     15  C   UNL     1      -0.609   9.870  23.141  0.00  0.00    +0.000 A 
ATOM     16  C   UNL     1       0.137   9.772  21.966  0.00  0.00    +0.000 A 
ATOM     17  N   UNL     1       0.738   8.739  21.295  0.00  0.00    +0.000 N 
ATOM     18  H   UNL     1       0.747   7.777  21.575  0.00  0.00    +0.000 HD
ENDBRANCH   5   9
BRANCH   1  23
ATOM     19  N   UNL     1       3.720   2.932  18.907  0.00  0.00    +0.000 N 
ATOM     20  C   UNL     1       4.488   2.207  19.782  0.00  0.00    +0.000 A 
ATOM     21  C   UNL     1       3.862   2.324  20.995  0.00  0.00    +0.000 A 
ATOM     22  N   UNL     1       2.757   3.123  20.890  0.00  0.00    +0.000 NA
ATOM     23  C   UNL     1       2.694   3.506  19.629  0.00  0.00    +0.000 A 
BRANCH  19  24
ATOM     24  C   UNL     1       3.995   3.031  17.480  0.00  0.00    +0.000 C 
BRANCH  24  25
ATOM     25  C   UNL     1       5.321   3.750  17.219  0.00  0.00    +0.000 C 
BRANCH  25  27
ATOM     26  C   UNL     1       6.018   5.835  16.265  0.00  0.00    +0.000 C 
ATOM     27  N   UNL     1       5.372   4.547  15.976  0.00  0.00    +0.000 NA
ATOM     28  C   UNL     1       6.109   3.868  14.907  0.00  0.00    +0.000 C 
ENDBRANCH  25  27
ENDBRANCH  24  25
ENDBRANCH  19  24
ENDBRANCH   1  23
TORSDOF 5
ENDMDL
MODEL 5
REMARK VINA RESULT:      -6.7      0.955      1.093
REMARK  Name = 
REMARK  7 active torsions:
REMARK  status: ('A' for Active; 'I' for Inactive)
REMARK    1  A    between atoms: C_1  and  N_2
REMARK    2  A    between atoms: N_2  and  C_3
REMARK    3  A    between atoms: N_2  and  C_4
REMARK    4  A    between atoms: C_4  and  C_5
REMARK    5  A    between atoms: C_5  and  N_6
REMARK    6  A    between atoms: C_10  and  C_11
REMARK    7  A    between atoms: C_15  and  C_17
REMARK                            x       y       z     vdW  Elec       q    Type
REMARK                         _______ _______ _______ _____ _____    ______ ____
ROOT
ATOM      1  C   UNL     1       0.336   9.935  18.499  0.00  0.00    +0.000 C 
ATOM      2  C   UNL     1      -0.015   9.406  19.915  0.00  0.00    +0.000 C 
ATOM      3  C   UNL     1       1.188   8.895  20.712  0.00  0.00    +0.000 C 
ATOM      4  N   UNL     1       2.012   8.018  19.896  0.00  0.00    +0.000 N 
ATOM      5  C   UNL     1       2.003   6.655  20.125  0.00  0.00    +0.000 C 
ATOM      6  O   UNL     1       1.269   6.099  20.959  0.00  0.00    +0.000 OA
ATOM      7  C   UNL     1       2.493   8.676  18.677  0.00  0.00    +0.000 C 
ATOM      8  C   UNL     1       1.302   8.987  17.789  0.00  0.00    +0.000 C 
ENDROOT
BRANCH   5   9
ATOM      9  C   UNL     1       2.972   5.853  19.362  0.00  0.00    +0.000 A 
ATOM     10  N   UNL     1       2.667   5.214  18.242  0.00  0.00    +0.000 NA
ATOM     11  C   UNL     1       3.814   4.702  17.736  0.00  0.00    +0.000 A 
ATOM     12  C   UNL     1       3.998   4.002  16.573  0.00  0.00    +0.000 A 
ATOM     13  C   UNL     1       5.245   4.177  16.006  0.00  0.00    +0.000 A 
ATOM     14  C   UNL     1       6.334   4.430  16.828  0.00  0.00    +0.000 A 
ATOM     15  C   UNL     1       6.186   4.720  18.198  0.00  0.00    +0.000 A 
ATOM     16  C   UNL     1       4.876   5.026  18.567  0.00  0.00    +0.000 A 
ATOM     17  N   UNL     1       4.305   5.664  19.638  0.00  0.00    +0.000 N 
ATOM     18  H   UNL     1       4.791   6.052  20.423  0.00  0.00    +0.000 HD
ENDBRANCH   5   9
BRANCH   1  23
ATOM     19  N   UNL     1       0.147  12.474  18.742  0.00  0.00    +0.000 N 
ATOM     20  C   UNL     1       1.002  13.545  18.712  0.00  0.00    +0.000 A 
ATOM     21  C   UNL     1       2.232  13.017  18.413  0.00  0.00    +0.000 A 
ATOM     22  N   UNL     1       2.154  11.657  18.294  0.00  0.00    +0.000 NA
ATOM     23  C   UNL     1       0.895  11.335  18.519  0.00  0.00    +0.000 A 
BRANCH  19  24
ATOM     24  C   UNL     1      -1.287  12.590  18.971  0.00  0.00    +0.000 C 
BRANCH  24  25
ATOM     25  C   UNL     1      -1.582  13.214  20.338  0.00  0.00    +0.000 C 
BRANCH  25  27
ATOM     26  C   UNL     1      -0.259  13.784  22.253  0.00  0.00    +0.000 C 
ATOM     27  N   UNL     1      -0.796  12.667  21.463  0.00  0.00    +0.000 NA
ATOM     28  C   UNL     1      -1.594  11.801  22.334  0.00  0.00    +0.000 C 
ENDBRANCH  25  27
ENDBRANCH  24  25
ENDBRANCH  19  24
ENDBRANCH   1  23
TORSDOF 5
ENDMDL
MODEL 6
REMARK VINA RESULT:      -6.6      1.251      1.440
REMARK  Name = 
REMARK  7 active torsions:
REMARK  status: ('A' for Active; 'I' for Inactive)
REMARK    1  A    between atoms: C_1  and  N_2
REMARK    2  A    between atoms: N_2  and  C_3
REMARK    3  A    between atoms: N_2  and  C_4
REMARK    4  A    between atoms: C_4  and  C_5
REMARK    5  A    between atoms: C_5  and  N_6
REMARK    6  A    between atoms: C_10  and  C_11
REMARK    7  A    between atoms: C_15  and  C_17
REMARK                            x       y       z     vdW  Elec       q    Type
REMARK                         _______ _______ _______ _____ _____    ______ ____
ROOT
ATOM      1  C   UNL     1       0.419   9.753  18.421  0.00  0.00    +0.000 C 
ATOM      2  C   UNL     1       0.077   9.167  19.817  0.00  0.00    +0.000 C 
ATOM      3  C   UNL     1       1.292   8.675  20.607  0.00  0.00    +0.000 C 
ATOM      4  N   UNL     1       2.154   7.854  19.771  0.00  0.00    +0.000 N 
ATOM      5  C   UNL     1       2.194   6.486  19.956  0.00  0.00    +0.000 C 
ATOM      6  O   UNL     1       1.474   5.877  20.766  0.00  0.00    +0.000 OA
ATOM      7  C   UNL     1       2.619   8.569  18.578  0.00  0.00    +0.000 C 
ATOM      8  C   UNL     1       1.425   8.865  17.690  0.00  0.00    +0.000 C 
ENDROOT
BRANCH   5   9
ATOM      9  C   UNL     1       3.197   5.744  19.176  0.00  0.00    +0.000 A 
ATOM     10  N   UNL     1       2.938   5.180  18.006  0.00  0.00    +0.000 NA
ATOM     11  C   UNL     1       4.108   4.712  17.508  0.00  0.00    +0.000 A 
ATOM     12  C   UNL     1       4.340   4.094  16.308  0.00  0.00    +0.000 A 
ATOM     13  C   UNL     1       5.604   4.316  15.799  0.00  0.00    +0.000 A 
ATOM     14  C   UNL     1       6.661   4.522  16.675  0.00  0.00    +0.000 A 
ATOM     15  C   UNL     1       6.462   4.719  18.055  0.00  0.00    +0.000 A 
ATOM     16  C   UNL     1       5.136   4.989  18.396  0.00  0.00    +0.000 A 
ATOM     17  N   UNL     1       4.522   5.549  19.486  0.00  0.00    +0.000 N 
ATOM     18  H   UNL     1       4.975   5.887  20.313  0.00  0.00    +0.000 HD
ENDBRANCH   5   9
BRANCH   1  23
ATOM     19  N   UNL     1       0.123  12.283  18.652  0.00  0.00    +0.000 N 
ATOM     20  C   UNL     1       0.940  13.383  18.697  0.00  0.00    +0.000 A 
ATOM     21  C   UNL     1       2.208  12.899  18.500  0.00  0.00    +0.000 A 
ATOM     22  N   UNL     1       2.187  11.538  18.372  0.00  0.00    +0.000 NA
ATOM     23  C   UNL     1       0.926  11.171  18.491  0.00  0.00    +0.000 A 
BRANCH  19  24
ATOM     24  C   UNL     1      -1.328  12.349  18.761  0.00  0.00    +0.000 C 
BRANCH  24  25
ATOM     25  C   UNL     1      -1.773  12.412  20.224  0.00  0.00    +0.000 C 
BRANCH  25  27
ATOM     26  C   UNL     1      -4.115  12.854  20.482  0.00  0.00    +0.000 C 
ATOM     27  N   UNL     1      -2.774  13.454  20.534  0.00  0.00    +0.000 NA
ATOM     28  C   UNL     1      -2.566  14.053  21.855  0.00  0.00    +0.000 C 
ENDBRANCH  25  27
ENDBRANCH  24  25
ENDBRANCH  19  24
ENDBRANCH   1  23
TORSDOF 5
ENDMDL
MODEL 7
REMARK VINA RESULT:      -6.5      4.439      7.099
REMARK  Name = 
REMARK  7 active torsions:
REMARK  status: ('A' for Active; 'I' for Inactive)
REMARK    1  A    between atoms: C_1  and  N_2
REMARK    2  A    between atoms: N_2  and  C_3
REMARK    3  A    between atoms: N_2  and  C_4
REMARK    4  A    between atoms: C_4  and  C_5
REMARK    5  A    between atoms: C_5  and  N_6
REMARK    6  A    between atoms: C_10  and  C_11
REMARK    7  A    between atoms: C_15  and  C_17
REMARK                            x       y       z     vdW  Elec       q    Type
REMARK                         _______ _______ _______ _____ _____    ______ ____
ROOT
ATOM      1  C   UNL     1       5.005   4.688  19.074  0.00  0.00    +0.000 C 
ATOM      2  C   UNL     1       6.113   5.768  18.951  0.00  0.00    +0.000 C 
ATOM      3  C   UNL     1       6.001   6.645  17.701  0.00  0.00    +0.000 C 
ATOM      4  N   UNL     1       5.778   5.830  16.517  0.00  0.00    +0.000 N 
ATOM      5  C   UNL     1       6.798   5.650  15.604  0.00  0.00    +0.000 C 
ATOM      6  O   UNL     1       7.950   6.091  15.757  0.00  0.00    +0.000 OA
ATOM      7  C   UNL     1       4.573   5.001  16.628  0.00  0.00    +0.000 C 
ATOM      8  C   UNL     1       4.780   3.985  17.735  0.00  0.00    +0.000 C 
ENDROOT
BRANCH   5   9
ATOM      9  C   UNL     1       6.453   4.940  14.362  0.00  0.00    +0.000 A 
ATOM     10  N   UNL     1       7.351   4.352  13.585  0.00  0.00    +0.000 NA
ATOM     11  C   UNL     1       6.681   3.681  12.618  0.00  0.00    +0.000 A 
ATOM     12  C   UNL     1       7.186   2.893  11.618  0.00  0.00    +0.000 A 
ATOM     13  C   UNL     1       6.341   1.874  11.227  0.00  0.00    +0.000 A 
ATOM     14  C   UNL     1       4.968   2.056  11.324  0.00  0.00    +0.000 A 
ATOM     15  C   UNL     1       4.405   3.159  11.994  0.00  0.00    +0.000 A 
ATOM     16  C   UNL     1       5.316   3.854  12.791  0.00  0.00    +0.000 A 
ATOM     17  N   UNL     1       5.200   4.734  13.835  0.00  0.00    +0.000 N 
ATOM     18  H   UNL     1       4.345   5.066  14.238  0.00  0.00    +0.000 HD
ENDBRANCH   5   9
BRANCH   1  23
ATOM     19  N   UNL     1       2.845   4.558  20.436  0.00  0.00    +0.000 N 
ATOM     20  C   UNL     1       1.793   5.390  20.719  0.00  0.00    +0.000 A 
ATOM     21  C   UNL     1       2.027   6.528  19.993  0.00  0.00    +0.000 A 
ATOM     22  N   UNL     1       3.205   6.425  19.307  0.00  0.00    +0.000 NA
ATOM     23  C   UNL     1       3.705   5.241  19.600  0.00  0.00    +0.000 A 
BRANCH  19  24
ATOM     24  C   UNL     1       2.969   3.204  20.959  0.00  0.00    +0.000 C 
BRANCH  24  25
ATOM     25  C   UNL     1       1.669   2.416  20.775  0.00  0.00    +0.000 C 
BRANCH  25  27
ATOM     26  C   UNL     1       0.622   2.574  18.625  0.00  0.00    +0.000 C 
ATOM     27  N   UNL     1       1.513   1.758  19.462  0.00  0.00    +0.000 NA
ATOM     28  C   UNL     1       2.792   1.579  18.770  0.00  0.00    +0.000 C 
ENDBRANCH  25  27
ENDBRANCH  24  25
ENDBRANCH  19  24
ENDBRANCH   1  23
TORSDOF 5
ENDMDL
MODEL 8
REMARK VINA RESULT:      -6.5      1.674      2.016
REMARK  Name = 
REMARK  7 active torsions:
REMARK  status: ('A' for Active; 'I' for Inactive)
REMARK    1  A    between atoms: C_1  and  N_2
REMARK    2  A    between atoms: N_2  and  C_3
REMARK    3  A    between atoms: N_2  and  C_4
REMARK    4  A    between atoms: C_4  and  C_5
REMARK    5  A    between atoms: C_5  and  N_6
REMARK    6  A    between atoms: C_10  and  C_11
REMARK    7  A    between atoms: C_15  and  C_17
REMARK                            x       y       z     vdW  Elec       q    Type
REMARK                         _______ _______ _______ _____ _____    ______ ____
ROOT
ATOM      1  C   UNL     1      -0.570  10.289  19.097  0.00  0.00    +0.000 C 
ATOM      2  C   UNL     1      -0.347   9.676  20.506  0.00  0.00    +0.000 C 
ATOM      3  C   UNL     1       1.111   9.326  20.816  0.00  0.00    +0.000 C 
ATOM      4  N   UNL     1       1.715   8.602  19.709  0.00  0.00    +0.000 N 
ATOM      5  C   UNL     1       1.962   7.248  19.825  0.00  0.00    +0.000 C 
ATOM      6  O   UNL     1       1.633   6.567  20.811  0.00  0.00    +0.000 OA
ATOM      7  C   UNL     1       1.663   9.357  18.453  0.00  0.00    +0.000 C 
ATOM      8  C   UNL     1       0.212   9.513  18.037  0.00  0.00    +0.000 C 
ENDROOT
BRANCH   5   9
ATOM      9  C   UNL     1       2.708   6.618  18.725  0.00  0.00    +0.000 A 
ATOM     10  N   UNL     1       3.593   7.264  17.981  0.00  0.00    +0.000 NA
ATOM     11  C   UNL     1       4.187   6.357  17.168  0.00  0.00    +0.000 A 
ATOM     12  C   UNL     1       5.193   6.553  16.259  0.00  0.00    +0.000 A 
ATOM     13  C   UNL     1       6.007   5.453  16.078  0.00  0.00    +0.000 A 
ATOM     14  C   UNL     1       5.474   4.181  16.242  0.00  0.00    +0.000 A 
ATOM     15  C   UNL     1       4.192   3.971  16.784  0.00  0.00    +0.000 A 
ATOM     16  C   UNL     1       3.656   5.099  17.408  0.00  0.00    +0.000 A 
ATOM     17  N   UNL     1       2.654   5.305  18.320  0.00  0.00    +0.000 N 
ATOM     18  H   UNL     1       2.072   4.600  18.729  0.00  0.00    +0.000 HD
ENDBRANCH   5   9
BRANCH   1  23
ATOM     19  N   UNL     1      -1.055  12.773  19.455  0.00  0.00    +0.000 N 
ATOM     20  C   UNL     1      -0.388  13.957  19.269  0.00  0.00    +0.000 A 
ATOM     21  C   UNL     1       0.804  13.612  18.687  0.00  0.00    +0.000 A 
ATOM     22  N   UNL     1       0.894  12.255  18.545  0.00  0.00    +0.000 NA
ATOM     23  C   UNL     1      -0.223  11.755  19.036  0.00  0.00    +0.000 A 
BRANCH  19  24
ATOM     24  C   UNL     1      -2.402  12.682  20.003  0.00  0.00    +0.000 C 
BRANCH  24  25
ATOM     25  C   UNL     1      -2.595  13.654  21.169  0.00  0.00    +0.000 C 
BRANCH  25  27
ATOM     26  C   UNL     1      -4.770  12.676  21.404  0.00  0.00    +0.000 C 
ATOM     27  N   UNL     1      -3.646  13.278  22.136  0.00  0.00    +0.000 NA
ATOM     28  C   UNL     1      -3.165  12.329  23.143  0.00  0.00    +0.000 C 
ENDBRANCH  25  27
ENDBRANCH  24  25
ENDBRANCH  19  24
ENDBRANCH   1  23
TORSDOF 5
ENDMDL
MODEL 9
REMARK VINA RESULT:      -6.4      3.588      6.260
REMARK  Name = 
REMARK  7 active torsions:
REMARK  status: ('A' for Active; 'I' for Inactive)
REMARK    1  A    between atoms: C_1  and  N_2
REMARK    2  A    between atoms: N_2  and  C_3
REMARK    3  A    between atoms: N_2  and  C_4
REMARK    4  A    between atoms: C_4  and  C_5
REMARK    5  A    between atoms: C_5  and  N_6
REMARK    6  A    between atoms: C_10  and  C_11
REMARK    7  A    between atoms: C_15  and  C_17
REMARK                            x       y       z     vdW  Elec       q    Type
REMARK                         _______ _______ _______ _____ _____    ______ ____
ROOT
ATOM      1  C   UNL     1       3.937   5.291  18.733  0.00  0.00    +0.000 C 
ATOM      2  C   UNL     1       5.441   5.540  19.022  0.00  0.00    +0.000 C 
ATOM      3  C   UNL     1       6.188   6.256  17.894  0.00  0.00    +0.000 C 
ATOM      4  N   UNL     1       5.884   5.650  16.607  0.00  0.00    +0.000 N 
ATOM      5  C   UNL     1       6.832   4.872  15.972  0.00  0.00    +0.000 C 
ATOM      6  O   UNL     1       7.937   4.587  16.465  0.00  0.00    +0.000 OA
ATOM      7  C   UNL     1       4.448   5.661  16.310  0.00  0.00    +0.000 C 
ATOM      8  C   UNL     1       3.736   4.769  17.310  0.00  0.00    +0.000 C 
ENDROOT
BRANCH   5   9
ATOM      9  C   UNL     1       6.507   4.418  14.611  0.00  0.00    +0.000 A 
ATOM     10  N   UNL     1       7.416   3.980  13.752  0.00  0.00    +0.000 NA
ATOM     11  C   UNL     1       6.761   3.515  12.662  0.00  0.00    +0.000 A 
ATOM     12  C   UNL     1       7.280   2.929  11.538  0.00  0.00    +0.000 A 
ATOM     13  C   UNL     1       6.435   2.013  10.943  0.00  0.00    +0.000 A 
ATOM     14  C   UNL     1       5.062   2.190  11.047  0.00  0.00    +0.000 A 
ATOM     15  C   UNL     1       4.494   3.149  11.907  0.00  0.00    +0.000 A 
ATOM     16  C   UNL     1       5.394   3.668  12.839  0.00  0.00    +0.000 A 
ATOM     17  N   UNL     1       5.264   4.332  14.031  0.00  0.00    +0.000 N 
ATOM     18  H   UNL     1       4.403   4.589  14.474  0.00  0.00    +0.000 HD
ENDBRANCH   5   9
BRANCH   1  23
ATOM     19  N   UNL     1       2.175   6.646  19.997  0.00  0.00    +0.000 N 
ATOM     20  C   UNL     1       1.618   7.896  19.899  0.00  0.00    +0.000 A 
ATOM     21  C   UNL     1       2.172   8.451  18.775  0.00  0.00    +0.000 A 
ATOM     22  N   UNL     1       3.071   7.590  18.208  0.00  0.00    +0.000 NA
ATOM     23  C   UNL     1       3.085   6.512  18.968  0.00  0.00    +0.000 A 
BRANCH  19  24
ATOM     24  C   UNL     1       1.821   5.682  21.029  0.00  0.00    +0.000 C 
BRANCH  24  25
ATOM     25  C   UNL     1       0.996   4.528  20.453  0.00  0.00    +0.000 C 
BRANCH  25  27
ATOM     26  C   UNL     1       1.555   2.499  21.599  0.00  0.00    +0.000 C 
ATOM     27  N   UNL     1       1.709   3.240  20.338  0.00  0.00    +0.000 NA
ATOM     28  C   UNL     1       1.206   2.419  19.234  0.00  0.00    +0.000 C 
ENDBRANCH  25  27
ENDBRANCH  24  25
ENDBRANCH  19  24
ENDBRANCH   1  23
TORSDOF 5
ENDMDL
