MODEL 1
REMARK VINA RESULT:      -7.9      0.000      0.000
REMARK  Name = 
REMARK  3 active torsions:
REMARK  status: ('A' for Active; 'I' for Inactive)
REMARK    1  A    between atoms: S_2  and  N_4
REMARK    2  A    between atoms: S_2  and  C_16
REMARK    3  A    between atoms: N_4  and  C_5
REMARK                            x       y       z     vdW  Elec       q    Type
REMARK                         _______ _______ _______ _____ _____    ______ ____
ROOT
ATOM      1  N   UNL     1       4.446   5.134  16.380  0.00  0.00    +0.000 N 
ATOM      2  H   UNL     1       4.145   4.710  15.495  0.00  0.00    +0.000 HD
ENDROOT
BRANCH   1   3
ATOM      3  C   UNL     1       3.964   4.331  17.484  0.00  0.00    +0.000 A 
ATOM      4  C   UNL     1       4.115   2.945  17.428  0.00  0.00    +0.000 A 
ATOM      5  C   UNL     1       3.574   2.169  18.439  0.00  0.00    +0.000 A 
ATOM      6  F   UNL     1       3.726   0.839  18.407  0.00  0.00    +0.000 F 
ATOM      7  C   UNL     1       2.862   2.748  19.482  0.00  0.00    +0.000 A 
ATOM      8  C   UNL     1       2.707   4.141  19.535  0.00  0.00    +0.000 A 
ATOM      9  C   UNL     1       1.973   4.760  20.555  0.00  0.00    +0.000 A 
ATOM     10  C   UNL     1       1.835   6.142  20.567  0.00  0.00    +0.000 A 
ATOM     11  C   UNL     1       2.450   6.865  19.564  0.00  0.00    +0.000 A 
ATOM     12  N   UNL     1       3.176   6.306  18.570  0.00  0.00    +0.000 NA
ATOM     13  C   UNL     1       3.284   4.959  18.540  0.00  0.00    +0.000 A 
ENDBRANCH   1   3
BRANCH   1  15
ATOM     14  O   UNL     1       6.385   6.770  16.364  0.00  0.00    +0.000 OA
ATOM     15  S   UNL     1       6.140   5.343  16.304  0.00  0.00    +0.000 S 
ATOM     16  O   UNL     1       6.783   4.437  17.235  0.00  0.00    +0.000 OA
BRANCH  15  17
ATOM     17  C   UNL     1       6.540   4.812  14.655  0.00  0.00    +0.000 A 
ATOM     18  C   UNL     1       7.586   5.436  13.965  0.00  0.00    +0.000 A 
ATOM     19  C   UNL     1       7.834   5.088  12.638  0.00  0.00    +0.000 A 
ATOM     20  C   UNL     1       7.048   4.121  12.010  0.00  0.00    +0.000 A 
ATOM     21  C   UNL     1       6.036   3.467  12.717  0.00  0.00    +0.000 A 
ATOM     22  C   UNL     1       5.793   3.796  14.051  0.00  0.00    +0.000 A 
ENDBRANCH  15  17
ENDBRANCH   1  15
TORSDOF 3
ENDMDL
MODEL 2
REMARK VINA RESULT:      -7.8      3.108      5.863
REMARK  Name = 
REMARK  3 active torsions:
REMARK  status: ('A' for Active; 'I' for Inactive)
REMARK    1  A    between atoms: S_2  and  N_4
REMARK    2  A    between atoms: S_2  and  C_16
REMARK    3  A    between atoms: N_4  and  C_5
REMARK                            x       y       z     vdW  Elec       q    Type
REMARK                         _______ _______ _______ _____ _____    ______ ____
ROOT
ATOM      1  N   UNL     1       4.359   2.877  18.323  0.00  0.00    +0.000 N 
ATOM      2  H   UNL     1       4.599   1.910  18.074  0.00  0.00    +0.000 HD
ENDROOT
BRANCH   1   3
ATOM      3  C   UNL     1       5.000   3.783  17.394  0.00  0.00    +0.000 A 
ATOM      4  C   UNL     1       4.727   3.659  16.031  0.00  0.00    +0.000 A 
ATOM      5  C   UNL     1       5.408   4.463  15.133  0.00  0.00    +0.000 A 
ATOM      6  F   UNL     1       5.144   4.367  13.824  0.00  0.00    +0.000 F 
ATOM      7  C   UNL     1       6.373   5.363  15.568  0.00  0.00    +0.000 A 
ATOM      8  C   UNL     1       6.650   5.485  16.938  0.00  0.00    +0.000 A 
ATOM      9  C   UNL     1       7.635   6.360  17.414  0.00  0.00    +0.000 A 
ATOM     10  C   UNL     1       7.885   6.443  18.777  0.00  0.00    +0.000 A 
ATOM     11  C   UNL     1       7.129   5.659  19.626  0.00  0.00    +0.000 A 
ATOM     12  N   UNL     1       6.163   4.812  19.207  0.00  0.00    +0.000 NA
ATOM     13  C   UNL     1       5.941   4.706  17.879  0.00  0.00    +0.000 A 
ENDBRANCH   1   3
BRANCH   1  15
ATOM     14  O   UNL     1       2.171   2.879  17.039  0.00  0.00    +0.000 OA
ATOM     15  S   UNL     1       2.655   2.984  18.401  0.00  0.00    +0.000 S 
ATOM     16  O   UNL     1       2.161   2.100  19.438  0.00  0.00    +0.000 OA
BRANCH  15  17
ATOM     17  C   UNL     1       2.377   4.660  18.928  0.00  0.00    +0.000 A 
ATOM     18  C   UNL     1       2.514   5.703  18.005  0.00  0.00    +0.000 A 
ATOM     19  C   UNL     1       2.395   7.021  18.441  0.00  0.00    +0.000 A 
ATOM     20  C   UNL     1       2.135   7.293  19.784  0.00  0.00    +0.000 A 
ATOM     21  C   UNL     1       1.953   6.247  20.692  0.00  0.00    +0.000 A 
ATOM     22  C   UNL     1       2.052   4.924  20.262  0.00  0.00    +0.000 A 
ENDBRANCH  15  17
ENDBRANCH   1  15
TORSDOF 3
ENDMDL
MODEL 3
REMARK VINA RESULT:      -7.8      3.086      5.913
REMARK  Name = 
REMARK  3 active torsions:
REMARK  status: ('A' for Active; 'I' for Inactive)
REMARK    1  A    between atoms: S_2  and  N_4
REMARK    2  A    between atoms: S_2  and  C_16
REMARK    3  A    between atoms: N_4  and  C_5
REMARK                            x       y       z     vdW  Elec       q    Type
REMARK                         _______ _______ _______ _____ _____    ______ ____
ROOT
ATOM      1  N   UNL     1       4.314   2.831  18.089  0.00  0.00    +0.000 N 
ATOM      2  H   UNL     1       4.477   1.869  17.771  0.00  0.00    +0.000 HD
ENDROOT
BRANCH   1   3
ATOM      3  C   UNL     1       5.004   3.750  17.208  0.00  0.00    +0.000 A 
ATOM      4  C   UNL     1       4.791   3.656  15.833  0.00  0.00    +0.000 A 
ATOM      5  C   UNL     1       5.518   4.472  14.983  0.00  0.00    +0.000 A 
ATOM      6  F   UNL     1       5.312   4.405  13.662  0.00  0.00    +0.000 F 
ATOM      7  C   UNL     1       6.471   5.353  15.479  0.00  0.00    +0.000 A 
ATOM      8  C   UNL     1       6.687   5.444  16.862  0.00  0.00    +0.000 A 
ATOM      9  C   UNL     1       7.658   6.299  17.400  0.00  0.00    +0.000 A 
ATOM     10  C   UNL     1       7.848   6.352  18.774  0.00  0.00    +0.000 A 
ATOM     11  C   UNL     1       7.048   5.558  19.572  0.00  0.00    +0.000 A 
ATOM     12  N   UNL     1       6.094   4.729  19.092  0.00  0.00    +0.000 NA
ATOM     13  C   UNL     1       5.930   4.653  17.754  0.00  0.00    +0.000 A 
ENDBRANCH   1   3
BRANCH   1  15
ATOM     14  O   UNL     1       2.113   3.100  16.856  0.00  0.00    +0.000 OA
ATOM     15  S   UNL     1       2.624   3.055  18.212  0.00  0.00    +0.000 S 
ATOM     16  O   UNL     1       2.081   2.126  19.183  0.00  0.00    +0.000 OA
BRANCH  15  17
ATOM     17  C   UNL     1       2.480   4.697  18.881  0.00  0.00    +0.000 A 
ATOM     18  C   UNL     1       2.170   4.863  20.235  0.00  0.00    +0.000 A 
ATOM     19  C   UNL     1       1.959   6.147  20.735  0.00  0.00    +0.000 A 
ATOM     20  C   UNL     1       2.064   7.253  19.891  0.00  0.00    +0.000 A 
ATOM     21  C   UNL     1       2.421   7.085  18.551  0.00  0.00    +0.000 A 
ATOM     22  C   UNL     1       2.651   5.806  18.046  0.00  0.00    +0.000 A 
ENDBRANCH  15  17
ENDBRANCH   1  15
TORSDOF 3
ENDMDL
MODEL 4
REMARK VINA RESULT:      -7.8      0.164      1.070
REMARK  Name = 
REMARK  3 active torsions:
REMARK  status: ('A' for Active; 'I' for Inactive)
REMARK    1  A    between atoms: S_2  and  N_4
REMARK    2  A    between atoms: S_2  and  C_16
REMARK    3  A    between atoms: N_4  and  C_5
REMARK                            x       y       z     vdW  Elec       q    Type
REMARK                         _______ _______ _______ _____ _____    ______ ____
ROOT
ATOM      1  N   UNL     1       4.532   5.360  16.495  0.00  0.00    +0.000 N 
ATOM      2  H   UNL     1       4.131   5.092  15.589  0.00  0.00    +0.000 HD
ENDROOT
BRANCH   1   3
ATOM      3  C   UNL     1       4.000   4.497  17.528  0.00  0.00    +0.000 A 
ATOM      4  C   UNL     1       4.148   3.115  17.397  0.00  0.00    +0.000 A 
ATOM      5  C   UNL     1       3.561   2.285  18.336  0.00  0.00    +0.000 A 
ATOM      6  F   UNL     1       3.709   0.958  18.232  0.00  0.00    +0.000 F 
ATOM      7  C   UNL     1       2.807   2.806  19.380  0.00  0.00    +0.000 A 
ATOM      8  C   UNL     1       2.655   4.195  19.509  0.00  0.00    +0.000 A 
ATOM      9  C   UNL     1       1.880   4.758  20.531  0.00  0.00    +0.000 A 
ATOM     10  C   UNL     1       1.747   6.137  20.618  0.00  0.00    +0.000 A 
ATOM     11  C   UNL     1       2.408   6.913  19.686  0.00  0.00    +0.000 A 
ATOM     12  N   UNL     1       3.174   6.409  18.693  0.00  0.00    +0.000 NA
ATOM     13  C   UNL     1       3.278   5.066  18.589  0.00  0.00    +0.000 A 
ENDBRANCH   1   3
BRANCH   1  15
ATOM     14  O   UNL     1       6.667   6.728  16.450  0.00  0.00    +0.000 OA
ATOM     15  S   UNL     1       6.233   5.351  16.330  0.00  0.00    +0.000 S 
ATOM     16  O   UNL     1       6.797   4.315  17.172  0.00  0.00    +0.000 OA
BRANCH  15  17
ATOM     17  C   UNL     1       6.473   4.872  14.634  0.00  0.00    +0.000 A 
ATOM     18  C   UNL     1       5.621   3.922  14.060  0.00  0.00    +0.000 A 
ATOM     19  C   UNL     1       5.870   3.474  12.764  0.00  0.00    +0.000 A 
ATOM     20  C   UNL     1       6.957   3.976  12.047  0.00  0.00    +0.000 A 
ATOM     21  C   UNL     1       7.777   4.959  12.607  0.00  0.00    +0.000 A 
ATOM     22  C   UNL     1       7.524   5.427  13.896  0.00  0.00    +0.000 A 
ENDBRANCH  15  17
ENDBRANCH   1  15
TORSDOF 3
ENDMDL
MODEL 5
REMARK VINA RESULT:      -7.5      2.039      2.669
REMARK  Name = 
REMARK  3 active torsions:
REMARK  status: ('A' for Active; 'I' for Inactive)
REMARK    1  A    between atoms: S_2  and  N_4
REMARK    2  A    between atoms: S_2  and  C_16
REMARK    3  A    between atoms: N_4  and  C_5
REMARK                            x       y       z     vdW  Elec       q    Type
REMARK                         _______ _______ _______ _____ _____    ______ ____
ROOT
ATOM      1  N   UNL     1       5.497   4.014  17.148  0.00  0.00    +0.000 N 
ATOM      2  H   UNL     1       5.795   3.304  17.826  0.00  0.00    +0.000 HD
ENDROOT
BRANCH   1   3
ATOM      3  C   UNL     1       4.449   4.824  17.732  0.00  0.00    +0.000 A 
ATOM      4  C   UNL     1       4.215   6.100  17.218  0.00  0.00    +0.000 A 
ATOM      5  C   UNL     1       3.276   6.910  17.833  0.00  0.00    +0.000 A 
ATOM      6  F   UNL     1       3.028   8.130  17.340  0.00  0.00    +0.000 F 
ATOM      7  C   UNL     1       2.595   6.483  18.966  0.00  0.00    +0.000 A 
ATOM      8  C   UNL     1       2.834   5.202  19.485  0.00  0.00    +0.000 A 
ATOM      9  C   UNL     1       2.189   4.745  20.642  0.00  0.00    +0.000 A 
ATOM     10  C   UNL     1       2.461   3.474  21.129  0.00  0.00    +0.000 A 
ATOM     11  C   UNL     1       3.362   2.691  20.434  0.00  0.00    +0.000 A 
ATOM     12  N   UNL     1       3.996   3.091  19.310  0.00  0.00    +0.000 NA
ATOM     13  C   UNL     1       3.756   4.339  18.853  0.00  0.00    +0.000 A 
ENDBRANCH   1   3
BRANCH   1  15
ATOM     14  O   UNL     1       6.616   6.271  16.849  0.00  0.00    +0.000 OA
ATOM     15  S   UNL     1       6.891   4.864  16.642  0.00  0.00    +0.000 S 
ATOM     16  O   UNL     1       8.071   4.242  17.212  0.00  0.00    +0.000 OA
BRANCH  15  17
ATOM     17  C   UNL     1       6.919   4.588  14.885  0.00  0.00    +0.000 A 
ATOM     18  C   UNL     1       7.832   5.292  14.092  0.00  0.00    +0.000 A 
ATOM     19  C   UNL     1       7.786   5.150  12.706  0.00  0.00    +0.000 A 
ATOM     20  C   UNL     1       6.840   4.307  12.120  0.00  0.00    +0.000 A 
ATOM     21  C   UNL     1       5.962   3.571  12.919  0.00  0.00    +0.000 A 
ATOM     22  C   UNL     1       6.013   3.692  14.307  0.00  0.00    +0.000 A 
ENDBRANCH  15  17
ENDBRANCH   1  15
TORSDOF 3
ENDMDL
MODEL 6
REMARK VINA RESULT:      -7.5      0.937      1.206
REMARK  Name = 
REMARK  3 active torsions:
REMARK  status: ('A' for Active; 'I' for Inactive)
REMARK    1  A    between atoms: S_2  and  N_4
REMARK    2  A    between atoms: S_2  and  C_16
REMARK    3  A    between atoms: N_4  and  C_5
REMARK                            x       y       z     vdW  Elec       q    Type
REMARK                         _______ _______ _______ _____ _____    ______ ____
ROOT
ATOM      1  N   UNL     1       4.643   4.695  16.369  0.00  0.00    +0.000 N 
ATOM      2  H   UNL     1       4.528   3.778  15.921  0.00  0.00    +0.000 HD
ENDROOT
BRANCH   1   3
ATOM      3  C   UNL     1       4.151   4.628  17.729  0.00  0.00    +0.000 A 
ATOM      4  C   UNL     1       4.279   3.432  18.436  0.00  0.00    +0.000 A 
ATOM      5  C   UNL     1       3.728   3.338  19.703  0.00  0.00    +0.000 A 
ATOM      6  F   UNL     1       3.858   2.202  20.399  0.00  0.00    +0.000 F 
ATOM      7  C   UNL     1       3.029   4.402  20.259  0.00  0.00    +0.000 A 
ATOM      8  C   UNL     1       2.898   5.603  19.546  0.00  0.00    +0.000 A 
ATOM      9  C   UNL     1       2.177   6.688  20.061  0.00  0.00    +0.000 A 
ATOM     10  C   UNL     1       2.062   7.856  19.319  0.00  0.00    +0.000 A 
ATOM     11  C   UNL     1       2.687   7.908  18.088  0.00  0.00    +0.000 A 
ATOM     12  N   UNL     1       3.400   6.887  17.563  0.00  0.00    +0.000 NA
ATOM     13  C   UNL     1       3.486   5.740  18.270  0.00  0.00    +0.000 A 
ENDBRANCH   1   3
BRANCH   1  15
ATOM     14  O   UNL     1       6.319   6.597  16.280  0.00  0.00    +0.000 OA
ATOM     15  S   UNL     1       6.282   5.151  16.199  0.00  0.00    +0.000 S 
ATOM     16  O   UNL     1       7.105   4.333  17.067  0.00  0.00    +0.000 OA
BRANCH  15  17
ATOM     17  C   UNL     1       6.651   4.711  14.515  0.00  0.00    +0.000 A 
ATOM     18  C   UNL     1       7.657   5.402  13.829  0.00  0.00    +0.000 A 
ATOM     19  C   UNL     1       7.878   5.125  12.481  0.00  0.00    +0.000 A 
ATOM     20  C   UNL     1       7.106   4.164  11.828  0.00  0.00    +0.000 A 
ATOM     21  C   UNL     1       6.135   3.444  12.530  0.00  0.00    +0.000 A 
ATOM     22  C   UNL     1       5.920   3.701  13.884  0.00  0.00    +0.000 A 
ENDBRANCH  15  17
ENDBRANCH   1  15
TORSDOF 3
ENDMDL
MODEL 7
REMARK VINA RESULT:      -7.5      3.306      4.320
REMARK  Name = 
REMARK  3 active torsions:
REMARK  status: ('A' for Active; 'I' for Inactive)
REMARK    1  A    between atoms: S_2  and  N_4
REMARK    2  A    between atoms: S_2  and  C_16
REMARK    3  A    between atoms: N_4  and  C_5
REMARK                            x       y       z     vdW  Elec       q    Type
REMARK                         _______ _______ _______ _____ _____    ______ ____
ROOT
ATOM      1  N   UNL     1       4.047   5.099  17.100  0.00  0.00    +0.000 N 
ATOM      2  H   UNL     1       3.619   4.448  16.432  0.00  0.00    +0.000 HD
ENDROOT
BRANCH   1   3
ATOM      3  C   UNL     1       3.135   5.324  18.201  0.00  0.00    +0.000 A 
ATOM      4  C   UNL     1       3.121   6.574  18.822  0.00  0.00    +0.000 A 
ATOM      5  C   UNL     1       2.316   6.764  19.932  0.00  0.00    +0.000 A 
ATOM      6  F   UNL     1       2.280   7.962  20.527  0.00  0.00    +0.000 F 
ATOM      7  C   UNL     1       1.553   5.724  20.448  0.00  0.00    +0.000 A 
ATOM      8  C   UNL     1       1.570   4.467  19.825  0.00  0.00    +0.000 A 
ATOM      9  C   UNL     1       0.836   3.386  20.331  0.00  0.00    +0.000 A 
ATOM     10  C   UNL     1       0.889   2.155  19.691  0.00  0.00    +0.000 A 
ATOM     11  C   UNL     1       1.663   2.047  18.552  0.00  0.00    +0.000 A 
ATOM     12  N   UNL     1       2.375   3.068  18.027  0.00  0.00    +0.000 NA
ATOM     13  C   UNL     1       2.351   4.258  18.667  0.00  0.00    +0.000 A 
ENDBRANCH   1   3
BRANCH   1  15
ATOM     14  O   UNL     1       5.407   3.794  18.798  0.00  0.00    +0.000 OA
ATOM     15  S   UNL     1       5.578   4.468  17.527  0.00  0.00    +0.000 S 
ATOM     16  O   UNL     1       6.153   3.780  16.388  0.00  0.00    +0.000 OA
BRANCH  15  17
ATOM     17  C   UNL     1       6.546   5.928  17.834  0.00  0.00    +0.000 A 
ATOM     18  C   UNL     1       6.328   7.074  17.060  0.00  0.00    +0.000 A 
ATOM     19  C   UNL     1       7.154   8.183  17.234  0.00  0.00    +0.000 A 
ATOM     20  C   UNL     1       8.183   8.149  18.176  0.00  0.00    +0.000 A 
ATOM     21  C   UNL     1       8.366   7.020  18.978  0.00  0.00    +0.000 A 
ATOM     22  C   UNL     1       7.533   5.912  18.825  0.00  0.00    +0.000 A 
ENDBRANCH  15  17
ENDBRANCH   1  15
TORSDOF 3
ENDMDL
MODEL 8
REMARK VINA RESULT:      -7.5      3.105      6.361
REMARK  Name = 
REMARK  3 active torsions:
REMARK  status: ('A' for Active; 'I' for Inactive)
REMARK    1  A    between atoms: S_2  and  N_4
REMARK    2  A    between atoms: S_2  and  C_16
REMARK    3  A    between atoms: N_4  and  C_5
REMARK                            x       y       z     vdW  Elec       q    Type
REMARK                         _______ _______ _______ _____ _____    ______ ____
ROOT
ATOM      1  N   UNL     1       4.493   2.828  17.452  0.00  0.00    +0.000 N 
ATOM      2  H   UNL     1       4.573   1.904  17.010  0.00  0.00    +0.000 HD
ENDROOT
BRANCH   1   3
ATOM      3  C   UNL     1       5.324   3.773  16.738  0.00  0.00    +0.000 A 
ATOM      4  C   UNL     1       5.386   3.703  15.346  0.00  0.00    +0.000 A 
ATOM      5  C   UNL     1       6.249   4.546  14.668  0.00  0.00    +0.000 A 
ATOM      6  F   UNL     1       6.307   4.501  13.331  0.00  0.00    +0.000 F 
ATOM      7  C   UNL     1       7.070   5.432  15.355  0.00  0.00    +0.000 A 
ATOM      8  C   UNL     1       7.010   5.500  16.755  0.00  0.00    +0.000 A 
ATOM      9  C   UNL     1       7.841   6.359  17.485  0.00  0.00    +0.000 A 
ATOM     10  C   UNL     1       7.758   6.389  18.871  0.00  0.00    +0.000 A 
ATOM     11  C   UNL     1       6.832   5.567  19.484  0.00  0.00    +0.000 A 
ATOM     12  N   UNL     1       6.006   4.733  18.814  0.00  0.00    +0.000 NA
ATOM     13  C   UNL     1       6.109   4.680  17.468  0.00  0.00    +0.000 A 
ENDBRANCH   1   3
BRANCH   1  15
ATOM     14  O   UNL     1       2.730   4.645  17.293  0.00  0.00    +0.000 OA
ATOM     15  S   UNL     1       2.831   3.219  17.533  0.00  0.00    +0.000 S 
ATOM     16  O   UNL     1       2.071   2.273  16.740  0.00  0.00    +0.000 OA
BRANCH  15  17
ATOM     17  C   UNL     1       2.433   2.947  19.245  0.00  0.00    +0.000 A 
ATOM     18  C   UNL     1       1.135   3.205  19.699  0.00  0.00    +0.000 A 
ATOM     19  C   UNL     1       0.850   3.087  21.059  0.00  0.00    +0.000 A 
ATOM     20  C   UNL     1       1.852   2.709  21.953  0.00  0.00    +0.000 A 
ATOM     21  C   UNL     1       3.134   2.407  21.488  0.00  0.00    +0.000 A 
ATOM     22  C   UNL     1       3.424   2.504  20.127  0.00  0.00    +0.000 A 
ENDBRANCH  15  17
ENDBRANCH   1  15
TORSDOF 3
ENDMDL
MODEL 9
REMARK VINA RESULT:      -7.5      3.276      4.320
REMARK  Name = 
REMARK  3 active torsions:
REMARK  status: ('A' for Active; 'I' for Inactive)
REMARK    1  A    between atoms: S_2  and  N_4
REMARK    2  A    between atoms: S_2  and  C_16
REMARK    3  A    between atoms: N_4  and  C_5
REMARK                            x       y       z     vdW  Elec       q    Type
REMARK                         _______ _______ _______ _____ _____    ______ ____
ROOT
ATOM      1  N   UNL     1       4.172   5.225  17.046  0.00  0.00    +0.000 N 
ATOM      2  H   UNL     1       3.757   4.632  16.317  0.00  0.00    +0.000 HD
ENDROOT
BRANCH   1   3
ATOM      3  C   UNL     1       3.223   5.391  18.126  0.00  0.00    +0.000 A 
ATOM      4  C   UNL     1       3.178   6.610  18.804  0.00  0.00    +0.000 A 
ATOM      5  C   UNL     1       2.336   6.741  19.895  0.00  0.00    +0.000 A 
ATOM      6  F   UNL     1       2.269   7.910  20.544  0.00  0.00    +0.000 F 
ATOM      7  C   UNL     1       1.566   5.672  20.337  0.00  0.00    +0.000 A 
ATOM      8  C   UNL     1       1.615   4.446  19.657  0.00  0.00    +0.000 A 
ATOM      9  C   UNL     1       0.876   3.337  20.088  0.00  0.00    +0.000 A 
ATOM     10  C   UNL     1       0.960   2.138  19.393  0.00  0.00    +0.000 A 
ATOM     11  C   UNL     1       1.771   2.089  18.276  0.00  0.00    +0.000 A 
ATOM     12  N   UNL     1       2.490   3.140  17.822  0.00  0.00    +0.000 NA
ATOM     13  C   UNL     1       2.434   4.298  18.516  0.00  0.00    +0.000 A 
ENDBRANCH   1   3
BRANCH   1  15
ATOM     14  O   UNL     1       5.477   3.897  18.769  0.00  0.00    +0.000 OA
ATOM     15  S   UNL     1       5.673   4.532  17.481  0.00  0.00    +0.000 S 
ATOM     16  O   UNL     1       6.209   3.790  16.357  0.00  0.00    +0.000 OA
BRANCH  15  17
ATOM     17  C   UNL     1       6.711   5.951  17.750  0.00  0.00    +0.000 A 
ATOM     18  C   UNL     1       7.701   5.902  18.738  0.00  0.00    +0.000 A 
ATOM     19  C   UNL     1       8.447   7.046  19.016  0.00  0.00    +0.000 A 
ATOM     20  C   UNL     1       8.209   8.225  18.308  0.00  0.00    +0.000 A 
ATOM     21  C   UNL     1       7.252   8.256  17.291  0.00  0.00    +0.000 A 
ATOM     22  C   UNL     1       6.514   7.110  16.993  0.00  0.00    +0.000 A 
ENDBRANCH  15  17
ENDBRANCH   1  15
TORSDOF 3
ENDMDL
