MODEL 1
REMARK VINA RESULT:      -8.1      0.000      0.000
REMARK  Name = 
REMARK  9 active torsions:
REMARK  status: ('A' for Active; 'I' for Inactive)
REMARK    1  A    between atoms: N_1  and  C_2
REMARK    2  A    between atoms: C_7  and  N_8
REMARK    3  A    between atoms: C_9  and  C_11
REMARK    4  A    between atoms: C_11  and  C_12
REMARK    5  A    between atoms: C_12  and  C_13
REMARK    6  A    between atoms: C_13  and  C_14
REMARK    7  A    between atoms: C_14  and  C_15
REMARK    8  A    between atoms: C_15  and  N_16
REMARK    9  A    between atoms: C_17  and  C_19
REMARK                            x       y       z     vdW  Elec       q    Type
REMARK                         _______ _______ _______ _____ _____    ______ ____
ROOT
ATOM      1  C   UNL     1       1.868   3.570  18.204  0.00  0.00    +0.000 C 
ENDROOT
BRANCH   1   2
ATOM      2  C   UNL     1       3.070   2.684  17.896  0.00  0.00    +0.000 C 
BRANCH   2   4
ATOM      3  N   UNL     1       4.657   4.505  17.698  0.00  0.00    +0.000 N 
ATOM      4  C   UNL     1       4.340   3.346  18.384  0.00  0.00    +0.000 C 
ATOM      5  O   UNL     1       4.942   2.862  19.336  0.00  0.00    +0.000 OA
ATOM      6  H   UNL     1       3.958   4.878  17.074  0.00  0.00    +0.000 HD
BRANCH   3  12
ATOM      7  C   UNL     1       6.113   6.324  16.960  0.00  0.00    +0.000 A 
ATOM      8  C   UNL     1       7.184   7.191  17.237  0.00  0.00    +0.000 A 
ATOM      9  C   UNL     1       7.994   7.016  18.359  0.00  0.00    +0.000 A 
ATOM     10  C   UNL     1       7.721   5.989  19.248  0.00  0.00    +0.000 A 
ATOM     11  C   UNL     1       6.628   5.148  19.022  0.00  0.00    +0.000 A 
ATOM     12  C   UNL     1       5.797   5.321  17.906  0.00  0.00    +0.000 A 
BRANCH   7  13
ATOM     13  N   UNL     1       5.263   6.645  15.880  0.00  0.00    +0.000 N 
ATOM     14  H   UNL     1       5.767   6.785  15.011  0.00  0.00    +0.000 HD
ATOM     15  H   UNL     1       4.485   6.016  15.743  0.00  0.00    +0.000 HD
ENDBRANCH   7  13
ENDBRANCH   3  12
ENDBRANCH   2   4
ENDBRANCH   1   2
BRANCH   1  16
ATOM     16  C   UNL     1       0.936   2.982  19.267  0.00  0.00    +0.000 C 
BRANCH  16  17
ATOM     17  C   UNL     1       1.137   3.533  20.683  0.00  0.00    +0.000 C 
BRANCH  17  18
ATOM     18  C   UNL     1       2.263   4.563  20.760  0.00  0.00    +0.000 C 
BRANCH  18  19
ATOM     19  N   UNL     1       1.747   5.903  20.916  0.00  0.00    +0.000 N 
ATOM     20  C   UNL     1       2.105   6.932  20.078  0.00  0.00    +0.000 C 
ATOM     21  O   UNL     1       2.919   6.804  19.170  0.00  0.00    +0.000 OA
ATOM     22  H   UNL     1       1.023   6.051  21.610  0.00  0.00    +0.000 HD
BRANCH  20  23
ATOM     23  C   UNL     1       1.502   8.269  20.342  0.00  0.00    +0.000 A 
ATOM     24  C   UNL     1       1.202   8.549  21.689  0.00  0.00    +0.000 A 
ATOM     25  C   UNL     1       0.646   9.775  22.059  0.00  0.00    +0.000 A 
ATOM     26  C   UNL     1       0.390  10.734  21.085  0.00  0.00    +0.000 A 
ATOM     27 CL   UNL     1      -0.276  12.254  21.536  0.00  0.00    +0.000 Cl
ATOM     28  C   UNL     1       0.678  10.476  19.747  0.00  0.00    +0.000 A 
ATOM     29  C   UNL     1       1.236   9.246  19.371  0.00  0.00    +0.000 A 
ATOM     30 CL   UNL     1       1.591   9.056  17.688  0.00  0.00    +0.000 Cl
ENDBRANCH  20  23
ENDBRANCH  18  19
ENDBRANCH  17  18
ENDBRANCH  16  17
ENDBRANCH   1  16
TORSDOF 9
ENDMDL
MODEL 2
REMARK VINA RESULT:      -7.8      1.511      1.968
REMARK  Name = 
REMARK  9 active torsions:
REMARK  status: ('A' for Active; 'I' for Inactive)
REMARK    1  A    between atoms: N_1  and  C_2
REMARK    2  A    between atoms: C_7  and  N_8
REMARK    3  A    between atoms: C_9  and  C_11
REMARK    4  A    between atoms: C_11  and  C_12
REMARK    5  A    between atoms: C_12  and  C_13
REMARK    6  A    between atoms: C_13  and  C_14
REMARK    7  A    between atoms: C_14  and  C_15
REMARK    8  A    between atoms: C_15  and  N_16
REMARK    9  A    between atoms: C_17  and  C_19
REMARK                            x       y       z     vdW  Elec       q    Type
REMARK                         _______ _______ _______ _____ _____    ______ ____
ROOT
ATOM      1  C   UNL     1       1.096   3.185  19.010  0.00  0.00    +0.000 C 
ENDROOT
BRANCH   1   2
ATOM      2  C   UNL     1       1.563   2.341  17.828  0.00  0.00    +0.000 C 
BRANCH   2   4
ATOM      3  N   UNL     1       3.444   3.698  17.126  0.00  0.00    +0.000 N 
ATOM      4  C   UNL     1       3.059   2.478  17.653  0.00  0.00    +0.000 C 
ATOM      5  O   UNL     1       3.793   1.565  18.017  0.00  0.00    +0.000 OA
ATOM      6  H   UNL     1       2.740   4.417  17.064  0.00  0.00    +0.000 HD
BRANCH   3  12
ATOM      7  C   UNL     1       5.699   4.277  17.871  0.00  0.00    +0.000 A 
ATOM      8  C   UNL     1       7.032   4.576  17.540  0.00  0.00    +0.000 A 
ATOM      9  C   UNL     1       7.424   4.803  16.221  0.00  0.00    +0.000 A 
ATOM     10  C   UNL     1       6.492   4.697  15.201  0.00  0.00    +0.000 A 
ATOM     11  C   UNL     1       5.173   4.349  15.501  0.00  0.00    +0.000 A 
ATOM     12  C   UNL     1       4.768   4.103  16.821  0.00  0.00    +0.000 A 
BRANCH   7  13
ATOM     13  N   UNL     1       5.410   3.931  19.208  0.00  0.00    +0.000 N 
ATOM     14  H   UNL     1       6.240   3.697  19.742  0.00  0.00    +0.000 HD
ATOM     15  H   UNL     1       4.839   4.596  19.710  0.00  0.00    +0.000 HD
ENDBRANCH   7  13
ENDBRANCH   3  12
ENDBRANCH   2   4
ENDBRANCH   1   2
BRANCH   1  16
ATOM     16  C   UNL     1       1.237   2.473  20.358  0.00  0.00    +0.000 C 
BRANCH  16  17
ATOM     17  C   UNL     1       1.629   3.375  21.532  0.00  0.00    +0.000 C 
BRANCH  17  18
ATOM     18  C   UNL     1       2.703   4.396  21.157  0.00  0.00    +0.000 C 
BRANCH  18  19
ATOM     19  N   UNL     1       2.165   5.736  21.100  0.00  0.00    +0.000 N 
ATOM     20  C   UNL     1       2.342   6.554  20.011  0.00  0.00    +0.000 C 
ATOM     21  O   UNL     1       3.004   6.231  19.031  0.00  0.00    +0.000 OA
ATOM     22  H   UNL     1       1.557   6.031  21.856  0.00  0.00    +0.000 HD
BRANCH  20  23
ATOM     23  C   UNL     1       1.736   7.914  20.073  0.00  0.00    +0.000 A 
ATOM     24  C   UNL     1       1.193   8.285  21.318  0.00  0.00    +0.000 A 
ATOM     25  C   UNL     1       0.610   9.540  21.501  0.00  0.00    +0.000 A 
ATOM     26  C   UNL     1       0.570  10.438  20.440  0.00  0.00    +0.000 A 
ATOM     27 CL   UNL     1      -0.128  11.994  20.662  0.00  0.00    +0.000 Cl
ATOM     28  C   UNL     1       1.100  10.090  19.200  0.00  0.00    +0.000 A 
ATOM     29  C   UNL     1       1.686   8.831  19.012  0.00  0.00    +0.000 A 
ATOM     30 CL   UNL     1       2.349   8.527  17.443  0.00  0.00    +0.000 Cl
ENDBRANCH  20  23
ENDBRANCH  18  19
ENDBRANCH  17  18
ENDBRANCH  16  17
ENDBRANCH   1  16
TORSDOF 9
ENDMDL
MODEL 3
REMARK VINA RESULT:      -7.6      5.152      7.940
REMARK  Name = 
REMARK  9 active torsions:
REMARK  status: ('A' for Active; 'I' for Inactive)
REMARK    1  A    between atoms: N_1  and  C_2
REMARK    2  A    between atoms: C_7  and  N_8
REMARK    3  A    between atoms: C_9  and  C_11
REMARK    4  A    between atoms: C_11  and  C_12
REMARK    5  A    between atoms: C_12  and  C_13
REMARK    6  A    between atoms: C_13  and  C_14
REMARK    7  A    between atoms: C_14  and  C_15
REMARK    8  A    between atoms: C_15  and  N_16
REMARK    9  A    between atoms: C_17  and  C_19
REMARK                            x       y       z     vdW  Elec       q    Type
REMARK                         _______ _______ _______ _____ _____    ______ ____
ROOT
ATOM      1  C   UNL     1       5.444   7.148  16.879  0.00  0.00    +0.000 C 
ENDROOT
BRANCH   1   2
ATOM      2  C   UNL     1       5.148   5.896  16.060  0.00  0.00    +0.000 C 
BRANCH   2   4
ATOM      3  N   UNL     1       3.308   5.270  17.507  0.00  0.00    +0.000 N 
ATOM      4  C   UNL     1       4.494   4.849  16.933  0.00  0.00    +0.000 C 
ATOM      5  O   UNL     1       5.007   3.738  17.028  0.00  0.00    +0.000 OA
ATOM      6  H   UNL     1       2.918   6.139  17.176  0.00  0.00    +0.000 HD
BRANCH   3  12
ATOM      7  C   UNL     1       2.491   4.846  19.771  0.00  0.00    +0.000 A 
ATOM      8  C   UNL     1       1.597   4.167  20.617  0.00  0.00    +0.000 A 
ATOM      9  C   UNL     1       0.795   3.128  20.148  0.00  0.00    +0.000 A 
ATOM     10  C   UNL     1       0.846   2.772  18.809  0.00  0.00    +0.000 A 
ATOM     11  C   UNL     1       1.689   3.469  17.939  0.00  0.00    +0.000 A 
ATOM     12  C   UNL     1       2.490   4.526  18.394  0.00  0.00    +0.000 A 
BRANCH   7  13
ATOM     13  N   UNL     1       3.170   5.970  20.290  0.00  0.00    +0.000 N 
ATOM     14  H   UNL     1       2.752   6.848  20.003  0.00  0.00    +0.000 HD
ATOM     15  H   UNL     1       3.322   5.957  21.289  0.00  0.00    +0.000 HD
ENDBRANCH   7  13
ENDBRANCH   3  12
ENDBRANCH   2   4
ENDBRANCH   1   2
BRANCH   1  16
ATOM     16  C   UNL     1       6.725   7.042  17.710  0.00  0.00    +0.000 C 
BRANCH  16  17
ATOM     17  C   UNL     1       7.825   8.042  17.340  0.00  0.00    +0.000 C 
BRANCH  17  18
ATOM     18  C   UNL     1       8.482   8.676  18.565  0.00  0.00    +0.000 C 
BRANCH  18  19
ATOM     19  N   UNL     1       8.917  10.027  18.295  0.00  0.00    +0.000 N 
ATOM     20  C   UNL     1       9.308  10.888  19.291  0.00  0.00    +0.000 C 
ATOM     21  O   UNL     1       9.274  10.594  20.482  0.00  0.00    +0.000 OA
ATOM     22  H   UNL     1       9.024  10.301  17.325  0.00  0.00    +0.000 HD
BRANCH  20  23
ATOM     23  C   UNL     1       9.737  12.256  18.883  0.00  0.00    +0.000 A 
ATOM     24  C   UNL     1       8.741  13.060  18.299  0.00  0.00    +0.000 A 
ATOM     25  C   UNL     1       9.022  14.364  17.888  0.00  0.00    +0.000 A 
ATOM     26  C   UNL     1      10.302  14.878  18.064  0.00  0.00    +0.000 A 
ATOM     27 CL   UNL     1      10.652  16.490  17.579  0.00  0.00    +0.000 Cl
ATOM     28  C   UNL     1      11.303  14.097  18.639  0.00  0.00    +0.000 A 
ATOM     29  C   UNL     1      11.025  12.787  19.052  0.00  0.00    +0.000 A 
ATOM     30 CL   UNL     1      12.333  11.930  19.791  0.00  0.00    +0.000 Cl
ENDBRANCH  20  23
ENDBRANCH  18  19
ENDBRANCH  17  18
ENDBRANCH  16  17
ENDBRANCH   1  16
TORSDOF 9
ENDMDL
MODEL 4
REMARK VINA RESULT:      -7.5      6.026      8.753
REMARK  Name = 
REMARK  9 active torsions:
REMARK  status: ('A' for Active; 'I' for Inactive)
REMARK    1  A    between atoms: N_1  and  C_2
REMARK    2  A    between atoms: C_7  and  N_8
REMARK    3  A    between atoms: C_9  and  C_11
REMARK    4  A    between atoms: C_11  and  C_12
REMARK    5  A    between atoms: C_12  and  C_13
REMARK    6  A    between atoms: C_13  and  C_14
REMARK    7  A    between atoms: C_14  and  C_15
REMARK    8  A    between atoms: C_15  and  N_16
REMARK    9  A    between atoms: C_17  and  C_19
REMARK                            x       y       z     vdW  Elec       q    Type
REMARK                         _______ _______ _______ _____ _____    ______ ____
ROOT
ATOM      1  C   UNL     1       9.247  10.213  19.184  0.00  0.00    +0.000 C 
ENDROOT
BRANCH   1   2
ATOM      2  C   UNL     1      10.125  11.316  18.605  0.00  0.00    +0.000 C 
BRANCH   2   4
ATOM      3  N   UNL     1       9.938  13.706  18.253  0.00  0.00    +0.000 N 
ATOM      4  C   UNL     1       9.673  12.663  19.123  0.00  0.00    +0.000 C 
ATOM      5  O   UNL     1       9.090  12.729  20.200  0.00  0.00    +0.000 OA
ATOM      6  H   UNL     1      10.244  13.465  17.323  0.00  0.00    +0.000 HD
BRANCH   3  12
ATOM      7  C   UNL     1       8.469  15.638  17.961  0.00  0.00    +0.000 A 
ATOM      8  C   UNL     1       8.162  16.971  18.281  0.00  0.00    +0.000 A 
ATOM      9  C   UNL     1       9.050  17.773  18.999  0.00  0.00    +0.000 A 
ATOM     10  C   UNL     1      10.249  17.239  19.443  0.00  0.00    +0.000 A 
ATOM     11  C   UNL     1      10.551  15.900  19.183  0.00  0.00    +0.000 A 
ATOM     12  C   UNL     1       9.662  15.078  18.476  0.00  0.00    +0.000 A 
BRANCH   7  13
ATOM     13  N   UNL     1       7.465  14.856  17.349  0.00  0.00    +0.000 N 
ATOM     14  H   UNL     1       7.648  14.678  16.368  0.00  0.00    +0.000 HD
ATOM     15  H   UNL     1       7.236  13.997  17.831  0.00  0.00    +0.000 HD
ENDBRANCH   7  13
ENDBRANCH   3  12
ENDBRANCH   2   4
ENDBRANCH   1   2
BRANCH   1  16
ATOM     16  C   UNL     1       8.338   9.550  18.145  0.00  0.00    +0.000 C 
BRANCH  16  17
ATOM     17  C   UNL     1       8.154   8.038  18.311  0.00  0.00    +0.000 C 
BRANCH  17  18
ATOM     18  C   UNL     1       7.479   7.391  17.103  0.00  0.00    +0.000 C 
BRANCH  18  19
ATOM     19  N   UNL     1       6.328   6.610  17.492  0.00  0.00    +0.000 N 
ATOM     20  C   UNL     1       5.344   6.254  16.602  0.00  0.00    +0.000 C 
ATOM     21  O   UNL     1       5.344   6.607  15.427  0.00  0.00    +0.000 OA
ATOM     22  H   UNL     1       6.309   6.239  18.435  0.00  0.00    +0.000 HD
BRANCH  20  23
ATOM     23  C   UNL     1       4.208   5.445  17.127  0.00  0.00    +0.000 A 
ATOM     24  C   UNL     1       4.310   4.054  16.941  0.00  0.00    +0.000 A 
ATOM     25  C   UNL     1       3.312   3.194  17.402  0.00  0.00    +0.000 A 
ATOM     26  C   UNL     1       2.205   3.718  18.060  0.00  0.00    +0.000 A 
ATOM     27 CL   UNL     1       0.981   2.664  18.649  0.00  0.00    +0.000 Cl
ATOM     28  C   UNL     1       2.084   5.093  18.253  0.00  0.00    +0.000 A 
ATOM     29  C   UNL     1       3.083   5.960  17.791  0.00  0.00    +0.000 A 
ATOM     30 CL   UNL     1       2.846   7.640  18.126  0.00  0.00    +0.000 Cl
ENDBRANCH  20  23
ENDBRANCH  18  19
ENDBRANCH  17  18
ENDBRANCH  16  17
ENDBRANCH   1  16
TORSDOF 9
ENDMDL
MODEL 5
REMARK VINA RESULT:      -7.5      1.868      4.152
REMARK  Name = 
REMARK  9 active torsions:
REMARK  status: ('A' for Active; 'I' for Inactive)
REMARK    1  A    between atoms: N_1  and  C_2
REMARK    2  A    between atoms: C_7  and  N_8
REMARK    3  A    between atoms: C_9  and  C_11
REMARK    4  A    between atoms: C_11  and  C_12
REMARK    5  A    between atoms: C_12  and  C_13
REMARK    6  A    between atoms: C_13  and  C_14
REMARK    7  A    between atoms: C_14  and  C_15
REMARK    8  A    between atoms: C_15  and  N_16
REMARK    9  A    between atoms: C_17  and  C_19
REMARK                            x       y       z     vdW  Elec       q    Type
REMARK                         _______ _______ _______ _____ _____    ______ ____
ROOT
ATOM      1  C   UNL     1       5.014   5.407  16.072  0.00  0.00    +0.000 C 
ENDROOT
BRANCH   1   2
ATOM      2  C   UNL     1       5.753   4.314  16.836  0.00  0.00    +0.000 C 
BRANCH   2   4
ATOM      3  N   UNL     1       3.924   3.451  18.169  0.00  0.00    +0.000 N 
ATOM      4  C   UNL     1       5.131   4.125  18.201  0.00  0.00    +0.000 C 
ATOM      5  O   UNL     1       5.733   4.517  19.196  0.00  0.00    +0.000 OA
ATOM      6  H   UNL     1       3.658   3.020  17.297  0.00  0.00    +0.000 HD
BRANCH   3  12
ATOM      7  C   UNL     1       3.614   2.384  20.346  0.00  0.00    +0.000 A 
ATOM      8  C   UNL     1       2.813   2.190  21.485  0.00  0.00    +0.000 A 
ATOM      9  C   UNL     1       1.497   2.650  21.538  0.00  0.00    +0.000 A 
ATOM     10  C   UNL     1       0.970   3.347  20.463  0.00  0.00    +0.000 A 
ATOM     11  C   UNL     1       1.766   3.598  19.342  0.00  0.00    +0.000 A 
ATOM     12  C   UNL     1       3.095   3.155  19.281  0.00  0.00    +0.000 A 
BRANCH   7  13
ATOM     13  N   UNL     1       4.972   2.007  20.421  0.00  0.00    +0.000 N 
ATOM     14  H   UNL     1       5.532   2.658  20.959  0.00  0.00    +0.000 HD
ATOM     15  H   UNL     1       5.139   1.057  20.725  0.00  0.00    +0.000 HD
ENDBRANCH   7  13
ENDBRANCH   3  12
ENDBRANCH   2   4
ENDBRANCH   1   2
BRANCH   1  16
ATOM     16  C   UNL     1       5.022   6.761  16.788  0.00  0.00    +0.000 C 
BRANCH  16  17
ATOM     17  C   UNL     1       3.638   7.340  17.099  0.00  0.00    +0.000 C 
BRANCH  17  18
ATOM     18  C   UNL     1       3.109   6.902  18.464  0.00  0.00    +0.000 C 
BRANCH  18  19
ATOM     19  N   UNL     1       2.305   7.933  19.079  0.00  0.00    +0.000 N 
ATOM     20  C   UNL     1       1.636   7.738  20.262  0.00  0.00    +0.000 C 
ATOM     21  O   UNL     1       1.630   6.667  20.860  0.00  0.00    +0.000 OA
ATOM     22  H   UNL     1       2.326   8.857  18.661  0.00  0.00    +0.000 HD
BRANCH  20  23
ATOM     23  C   UNL     1       0.842   8.881  20.795  0.00  0.00    +0.000 A 
ATOM     24  C   UNL     1       0.749   8.960  22.197  0.00  0.00    +0.000 A 
ATOM     25  C   UNL     1       0.042   9.995  22.811  0.00  0.00    +0.000 A 
ATOM     26  C   UNL     1      -0.574  10.965  22.027  0.00  0.00    +0.000 A 
ATOM     27 CL   UNL     1      -1.429  12.255  22.776  0.00  0.00    +0.000 Cl
ATOM     28  C   UNL     1      -0.494  10.904  20.638  0.00  0.00    +0.000 A 
ATOM     29  C   UNL     1       0.214   9.866  20.017  0.00  0.00    +0.000 A 
ATOM     30 CL   UNL     1       0.281   9.919  18.289  0.00  0.00    +0.000 Cl
ENDBRANCH  20  23
ENDBRANCH  18  19
ENDBRANCH  17  18
ENDBRANCH  16  17
ENDBRANCH   1  16
TORSDOF 9
ENDMDL
MODEL 6
REMARK VINA RESULT:      -7.5      1.741      2.271
REMARK  Name = 
REMARK  9 active torsions:
REMARK  status: ('A' for Active; 'I' for Inactive)
REMARK    1  A    between atoms: N_1  and  C_2
REMARK    2  A    between atoms: C_7  and  N_8
REMARK    3  A    between atoms: C_9  and  C_11
REMARK    4  A    between atoms: C_11  and  C_12
REMARK    5  A    between atoms: C_12  and  C_13
REMARK    6  A    between atoms: C_13  and  C_14
REMARK    7  A    between atoms: C_14  and  C_15
REMARK    8  A    between atoms: C_15  and  N_16
REMARK    9  A    between atoms: C_17  and  C_19
REMARK                            x       y       z     vdW  Elec       q    Type
REMARK                         _______ _______ _______ _____ _____    ______ ____
ROOT
ATOM      1  C   UNL     1       1.497   2.692  19.586  0.00  0.00    +0.000 C 
ENDROOT
BRANCH   1   2
ATOM      2  C   UNL     1       2.140   2.060  18.356  0.00  0.00    +0.000 C 
BRANCH   2   4
ATOM      3  N   UNL     1       4.233   2.970  17.543  0.00  0.00    +0.000 N 
ATOM      4  C   UNL     1       2.857   3.116  17.546  0.00  0.00    +0.000 C 
ATOM      5  O   UNL     1       2.202   3.957  16.938  0.00  0.00    +0.000 OA
ATOM      6  H   UNL     1       4.607   2.116  17.926  0.00  0.00    +0.000 HD
BRANCH   3  12
ATOM      7  C   UNL     1       6.052   4.597  17.690  0.00  0.00    +0.000 A 
ATOM      8  C   UNL     1       7.041   5.353  17.038  0.00  0.00    +0.000 A 
ATOM      9  C   UNL     1       7.101   5.433  15.647  0.00  0.00    +0.000 A 
ATOM     10  C   UNL     1       6.189   4.724  14.880  0.00  0.00    +0.000 A 
ATOM     11  C   UNL     1       5.231   3.923  15.506  0.00  0.00    +0.000 A 
ATOM     12  C   UNL     1       5.169   3.821  16.903  0.00  0.00    +0.000 A 
BRANCH   7  13
ATOM     13  N   UNL     1       6.139   4.460  19.093  0.00  0.00    +0.000 N 
ATOM     14  H   UNL     1       5.307   4.049  19.501  0.00  0.00    +0.000 HD
ATOM     15  H   UNL     1       6.970   3.992  19.428  0.00  0.00    +0.000 HD
ENDBRANCH   7  13
ENDBRANCH   3  12
ENDBRANCH   2   4
ENDBRANCH   1   2
BRANCH   1  16
ATOM     16  C   UNL     1       2.515   3.215  20.603  0.00  0.00    +0.000 C 
BRANCH  16  17
ATOM     17  C   UNL     1       2.125   4.523  21.299  0.00  0.00    +0.000 C 
BRANCH  17  18
ATOM     18  C   UNL     1       2.438   5.756  20.454  0.00  0.00    +0.000 C 
BRANCH  18  19
ATOM     19  N   UNL     1       1.767   6.932  20.960  0.00  0.00    +0.000 N 
ATOM     20  C   UNL     1       1.564   8.052  20.192  0.00  0.00    +0.000 C 
ATOM     21  O   UNL     1       1.973   8.158  19.041  0.00  0.00    +0.000 OA
ATOM     22  H   UNL     1       1.352   6.875  21.883  0.00  0.00    +0.000 HD
BRANCH  20  23
ATOM     23  C   UNL     1       0.857   9.198  20.830  0.00  0.00    +0.000 A 
ATOM     24  C   UNL     1       0.325   8.953  22.109  0.00  0.00    +0.000 A 
ATOM     25  C   UNL     1      -0.347   9.955  22.811  0.00  0.00    +0.000 A 
ATOM     26  C   UNL     1      -0.489  11.215  22.239  0.00  0.00    +0.000 A 
ATOM     27 CL   UNL     1      -1.298  12.461  23.104  0.00  0.00    +0.000 Cl
ATOM     28  C   UNL     1       0.029  11.478  20.973  0.00  0.00    +0.000 A 
ATOM     29  C   UNL     1       0.704  10.474  20.265  0.00  0.00    +0.000 A 
ATOM     30 CL   UNL     1       1.340  10.929  18.722  0.00  0.00    +0.000 Cl
ENDBRANCH  20  23
ENDBRANCH  18  19
ENDBRANCH  17  18
ENDBRANCH  16  17
ENDBRANCH   1  16
TORSDOF 9
ENDMDL
MODEL 7
REMARK VINA RESULT:      -7.4      5.117      8.165
REMARK  Name = 
REMARK  9 active torsions:
REMARK  status: ('A' for Active; 'I' for Inactive)
REMARK    1  A    between atoms: N_1  and  C_2
REMARK    2  A    between atoms: C_7  and  N_8
REMARK    3  A    between atoms: C_9  and  C_11
REMARK    4  A    between atoms: C_11  and  C_12
REMARK    5  A    between atoms: C_12  and  C_13
REMARK    6  A    between atoms: C_13  and  C_14
REMARK    7  A    between atoms: C_14  and  C_15
REMARK    8  A    between atoms: C_15  and  N_16
REMARK    9  A    between atoms: C_17  and  C_19
REMARK                            x       y       z     vdW  Elec       q    Type
REMARK                         _______ _______ _______ _____ _____    ______ ____
ROOT
ATOM      1  C   UNL     1       6.062   6.427  16.473  0.00  0.00    +0.000 C 
ENDROOT
BRANCH   1   2
ATOM      2  C   UNL     1       4.727   6.745  17.138  0.00  0.00    +0.000 C 
BRANCH   2   4
ATOM      3  N   UNL     1       3.177   5.757  18.717  0.00  0.00    +0.000 N 
ATOM      4  C   UNL     1       4.154   5.498  17.772  0.00  0.00    +0.000 C 
ATOM      5  O   UNL     1       4.539   4.397  17.390  0.00  0.00    +0.000 OA
ATOM      6  H   UNL     1       2.832   6.703  18.776  0.00  0.00    +0.000 HD
BRANCH   3  12
ATOM      7  C   UNL     1       1.479   4.008  18.893  0.00  0.00    +0.000 A 
ATOM      8  C   UNL     1       0.878   2.991  19.655  0.00  0.00    +0.000 A 
ATOM      9  C   UNL     1       1.176   2.818  21.006  0.00  0.00    +0.000 A 
ATOM     10  C   UNL     1       2.114   3.640  21.612  0.00  0.00    +0.000 A 
ATOM     11  C   UNL     1       2.764   4.622  20.860  0.00  0.00    +0.000 A 
ATOM     12  C   UNL     1       2.485   4.798  19.497  0.00  0.00    +0.000 A 
BRANCH   7  13
ATOM     13  N   UNL     1       1.224   4.033  17.504  0.00  0.00    +0.000 N 
ATOM     14  H   UNL     1       0.680   4.839  17.219  0.00  0.00    +0.000 HD
ATOM     15  H   UNL     1       2.039   3.927  16.916  0.00  0.00    +0.000 HD
ENDBRANCH   7  13
ENDBRANCH   3  12
ENDBRANCH   2   4
ENDBRANCH   1   2
BRANCH   1  16
ATOM     16  C   UNL     1       7.273   6.873  17.297  0.00  0.00    +0.000 C 
BRANCH  16  17
ATOM     17  C   UNL     1       7.403   8.387  17.495  0.00  0.00    +0.000 C 
BRANCH  17  18
ATOM     18  C   UNL     1       8.452   8.756  18.544  0.00  0.00    +0.000 C 
BRANCH  18  19
ATOM     19  N   UNL     1       9.093  10.013  18.236  0.00  0.00    +0.000 N 
ATOM     20  C   UNL     1       9.527  10.877  19.211  0.00  0.00    +0.000 C 
ATOM     21  O   UNL     1       9.364  10.671  20.409  0.00  0.00    +0.000 OA
ATOM     22  H   UNL     1       9.309  10.205  17.264  0.00  0.00    +0.000 HD
BRANCH  20  23
ATOM     23  C   UNL     1      10.175  12.143  18.764  0.00  0.00    +0.000 A 
ATOM     24  C   UNL     1      11.169  12.005  17.777  0.00  0.00    +0.000 A 
ATOM     25  C   UNL     1      11.836  13.122  17.271  0.00  0.00    +0.000 A 
ATOM     26  C   UNL     1      11.510  14.388  17.744  0.00  0.00    +0.000 A 
ATOM     27 CL   UNL     1      12.313  15.771  17.111  0.00  0.00    +0.000 Cl
ATOM     28  C   UNL     1      10.529  14.546  18.721  0.00  0.00    +0.000 A 
ATOM     29  C   UNL     1       9.858  13.428  19.232  0.00  0.00    +0.000 A 
ATOM     30 CL   UNL     1       8.631  13.749  20.409  0.00  0.00    +0.000 Cl
ENDBRANCH  20  23
ENDBRANCH  18  19
ENDBRANCH  17  18
ENDBRANCH  16  17
ENDBRANCH   1  16
TORSDOF 9
ENDMDL
MODEL 8
REMARK VINA RESULT:      -7.3      1.773      4.659
REMARK  Name = 
REMARK  9 active torsions:
REMARK  status: ('A' for Active; 'I' for Inactive)
REMARK    1  A    between atoms: N_1  and  C_2
REMARK    2  A    between atoms: C_7  and  N_8
REMARK    3  A    between atoms: C_9  and  C_11
REMARK    4  A    between atoms: C_11  and  C_12
REMARK    5  A    between atoms: C_12  and  C_13
REMARK    6  A    between atoms: C_13  and  C_14
REMARK    7  A    between atoms: C_14  and  C_15
REMARK    8  A    between atoms: C_15  and  N_16
REMARK    9  A    between atoms: C_17  and  C_19
REMARK                            x       y       z     vdW  Elec       q    Type
REMARK                         _______ _______ _______ _____ _____    ______ ____
ROOT
ATOM      1  C   UNL     1       7.635   5.883  18.413  0.00  0.00    +0.000 C 
ENDROOT
BRANCH   1   2
ATOM      2  C   UNL     1       6.976   4.509  18.354  0.00  0.00    +0.000 C 
BRANCH   2   4
ATOM      3  N   UNL     1       4.967   3.337  19.033  0.00  0.00    +0.000 N 
ATOM      4  C   UNL     1       5.653   4.537  19.086  0.00  0.00    +0.000 C 
ATOM      5  O   UNL     1       5.319   5.554  19.686  0.00  0.00    +0.000 OA
ATOM      6  H   UNL     1       5.463   2.538  18.670  0.00  0.00    +0.000 HD
BRANCH   3  12
ATOM      7  C   UNL     1       2.579   2.907  18.739  0.00  0.00    +0.000 A 
ATOM      8  C   UNL     1       1.347   2.539  19.306  0.00  0.00    +0.000 A 
ATOM      9  C   UNL     1       1.181   2.435  20.687  0.00  0.00    +0.000 A 
ATOM     10  C   UNL     1       2.261   2.662  21.526  0.00  0.00    +0.000 A 
ATOM     11  C   UNL     1       3.508   2.976  20.981  0.00  0.00    +0.000 A 
ATOM     12  C   UNL     1       3.693   3.070  19.595  0.00  0.00    +0.000 A 
BRANCH   7  13
ATOM     13  N   UNL     1       2.701   2.861  17.333  0.00  0.00    +0.000 N 
ATOM     14  H   UNL     1       2.484   3.747  16.890  0.00  0.00    +0.000 HD
ATOM     15  H   UNL     1       3.578   2.496  16.989  0.00  0.00    +0.000 HD
ENDBRANCH   7  13
ENDBRANCH   3  12
ENDBRANCH   2   4
ENDBRANCH   1   2
BRANCH   1  16
ATOM     16  C   UNL     1       6.855   6.964  17.660  0.00  0.00    +0.000 C 
BRANCH  16  17
ATOM     17  C   UNL     1       6.358   6.558  16.269  0.00  0.00    +0.000 C 
BRANCH  17  18
ATOM     18  C   UNL     1       4.859   6.260  16.243  0.00  0.00    +0.000 C 
BRANCH  18  19
ATOM     19  N   UNL     1       4.117   7.192  17.060  0.00  0.00    +0.000 N 
ATOM     20  C   UNL     1       2.959   6.842  17.709  0.00  0.00    +0.000 C 
ATOM     21  O   UNL     1       2.443   5.734  17.609  0.00  0.00    +0.000 OA
ATOM     22  H   UNL     1       4.531   8.102  17.228  0.00  0.00    +0.000 HD
BRANCH  20  23
ATOM     23  C   UNL     1       2.287   7.895  18.523  0.00  0.00    +0.000 A 
ATOM     24  C   UNL     1       2.105   9.136  17.887  0.00  0.00    +0.000 A 
ATOM     25  C   UNL     1       1.477  10.194  18.545  0.00  0.00    +0.000 A 
ATOM     26  C   UNL     1       1.019  10.017  19.847  0.00  0.00    +0.000 A 
ATOM     27 CL   UNL     1       0.226  11.310  20.658  0.00  0.00    +0.000 Cl
ATOM     28  C   UNL     1       1.191   8.796  20.495  0.00  0.00    +0.000 A 
ATOM     29  C   UNL     1       1.822   7.732  19.838  0.00  0.00    +0.000 A 
ATOM     30 CL   UNL     1       1.939   6.252  20.726  0.00  0.00    +0.000 Cl
ENDBRANCH  20  23
ENDBRANCH  18  19
ENDBRANCH  17  18
ENDBRANCH  16  17
ENDBRANCH   1  16
TORSDOF 9
ENDMDL
MODEL 9
REMARK VINA RESULT:      -7.3      1.622      2.345
REMARK  Name = 
REMARK  9 active torsions:
REMARK  status: ('A' for Active; 'I' for Inactive)
REMARK    1  A    between atoms: N_1  and  C_2
REMARK    2  A    between atoms: C_7  and  N_8
REMARK    3  A    between atoms: C_9  and  C_11
REMARK    4  A    between atoms: C_11  and  C_12
REMARK    5  A    between atoms: C_12  and  C_13
REMARK    6  A    between atoms: C_13  and  C_14
REMARK    7  A    between atoms: C_14  and  C_15
REMARK    8  A    between atoms: C_15  and  N_16
REMARK    9  A    between atoms: C_17  and  C_19
REMARK                            x       y       z     vdW  Elec       q    Type
REMARK                         _______ _______ _______ _____ _____    ______ ____
ROOT
ATOM      1  C   UNL     1       2.318   1.938  18.895  0.00  0.00    +0.000 C 
ENDROOT
BRANCH   1   2
ATOM      2  C   UNL     1       2.858   2.127  17.482  0.00  0.00    +0.000 C 
BRANCH   2   4
ATOM      3  N   UNL     1       4.875   3.462  17.326  0.00  0.00    +0.000 N 
ATOM      4  C   UNL     1       3.492   3.494  17.348  0.00  0.00    +0.000 C 
ATOM      5  O   UNL     1       2.773   4.481  17.225  0.00  0.00    +0.000 OA
ATOM      6  H   UNL     1       5.314   2.559  17.239  0.00  0.00    +0.000 HD
BRANCH   3  12
ATOM      7  C   UNL     1       6.284   5.127  18.430  0.00  0.00    +0.000 A 
ATOM      8  C   UNL     1       7.222   6.167  18.320  0.00  0.00    +0.000 A 
ATOM      9  C   UNL     1       7.544   6.733  17.087  0.00  0.00    +0.000 A 
ATOM     10  C   UNL     1       6.958   6.239  15.932  0.00  0.00    +0.000 A 
ATOM     11  C   UNL     1       6.063   5.169  16.012  0.00  0.00    +0.000 A 
ATOM     12  C   UNL     1       5.741   4.581  17.243  0.00  0.00    +0.000 A 
BRANCH   7  13
ATOM     13  N   UNL     1       6.112   4.521  19.693  0.00  0.00    +0.000 N 
ATOM     14  H   UNL     1       5.928   5.193  20.430  0.00  0.00    +0.000 HD
ATOM     15  H   UNL     1       5.438   3.769  19.721  0.00  0.00    +0.000 HD
ENDBRANCH   7  13
ENDBRANCH   3  12
ENDBRANCH   2   4
ENDBRANCH   1   2
BRANCH   1  16
ATOM     16  C   UNL     1       0.971   2.627  19.128  0.00  0.00    +0.000 C 
BRANCH  16  17
ATOM     17  C   UNL     1       0.795   3.260  20.512  0.00  0.00    +0.000 C 
BRANCH  17  18
ATOM     18  C   UNL     1       1.898   4.264  20.846  0.00  0.00    +0.000 C 
BRANCH  18  19
ATOM     19  N   UNL     1       1.514   5.611  20.494  0.00  0.00    +0.000 N 
ATOM     20  C   UNL     1       2.383   6.492  19.897  0.00  0.00    +0.000 C 
ATOM     21  O   UNL     1       3.555   6.220  19.660  0.00  0.00    +0.000 OA
ATOM     22  H   UNL     1       0.540   5.868  20.609  0.00  0.00    +0.000 HD
BRANCH  20  23
ATOM     23  C   UNL     1       1.865   7.854  19.582  0.00  0.00    +0.000 A 
ATOM     24  C   UNL     1       1.926   8.233  18.228  0.00  0.00    +0.000 A 
ATOM     25  C   UNL     1       1.459   9.480  17.811  0.00  0.00    +0.000 A 
ATOM     26  C   UNL     1       0.921  10.359  18.746  0.00  0.00    +0.000 A 
ATOM     27 CL   UNL     1       0.325  11.889  18.237  0.00  0.00    +0.000 Cl
ATOM     28  C   UNL     1       0.853  10.003  20.091  0.00  0.00    +0.000 A 
ATOM     29  C   UNL     1       1.322   8.752  20.514  0.00  0.00    +0.000 A 
ATOM     30 CL   UNL     1       1.146   8.404  22.199  0.00  0.00    +0.000 Cl
ENDBRANCH  20  23
ENDBRANCH  18  19
ENDBRANCH  17  18
ENDBRANCH  16  17
ENDBRANCH   1  16
TORSDOF 9
ENDMDL
