MODEL 1
REMARK VINA RESULT:      -7.4      0.000      0.000
REMARK  Name = 
REMARK  8 active torsions:
REMARK  status: ('A' for Active; 'I' for Inactive)
REMARK    1  A    between atoms: C_1  and  O_2
REMARK    2  A    between atoms: O_2  and  C_3
REMARK    3  A    between atoms: C_3  and  C_4
REMARK    4  A    between atoms: C_4  and  C_5
REMARK    5  A    between atoms: C_4  and  N_6
REMARK    6  A    between atoms: C_7  and  C_9
REMARK    7  A    between atoms: C_12  and  C_13
REMARK    8  A    between atoms: C_13  and  N_14
REMARK                            x       y       z     vdW  Elec       q    Type
REMARK                         _______ _______ _______ _____ _____    ______ ____
ROOT
ATOM      1  C   UNL     1       8.283   8.804  18.422  0.00  0.00    +0.000 A 
ATOM      2  C   UNL     1       7.371   8.758  17.361  0.00  0.00    +0.000 A 
ATOM      3  C   UNL     1       6.771   7.535  17.002  0.00  0.00    +0.000 A 
ATOM      4  C   UNL     1       7.090   6.341  17.681  0.00  0.00    +0.000 A 
ATOM      5  C   UNL     1       7.959   6.424  18.779  0.00  0.00    +0.000 A 
ATOM      6  C   UNL     1       8.561   7.635  19.136  0.00  0.00    +0.000 A 
ENDROOT
BRANCH   1   8
ATOM      7  N   UNL     1       8.813  11.166  18.020  0.00  0.00    +0.000 N 
ATOM      8  C   UNL     1       9.035  10.041  18.795  0.00  0.00    +0.000 C 
ATOM      9  O   UNL     1       9.806  10.019  19.740  0.00  0.00    +0.000 OA
ATOM     10  H   UNL     1       8.136  11.135  17.272  0.00  0.00    +0.000 HD
BRANCH   7  11
ATOM     11  C   UNL     1       9.558  12.411  18.237  0.00  0.00    +0.000 C 
ATOM     12  C   UNL     1       8.641  13.612  18.004  0.00  0.00    +0.000 C 
BRANCH  11  13
ATOM     13  C   UNL     1      10.807  12.481  17.334  0.00  0.00    +0.000 C 
BRANCH  13  15
ATOM     14  C   UNL     1      12.310  14.298  17.215  0.00  0.00    +0.000 C 
ATOM     15  O   UNL     1      11.864  13.189  17.986  0.00  0.00    +0.000 OA
ENDBRANCH  13  15
ENDBRANCH  11  13
ENDBRANCH   7  11
ENDBRANCH   1   8
BRANCH   4  16
ATOM     16  C   UNL     1       6.335   5.044  17.457  0.00  0.00    +0.000 C 
BRANCH  16  17
ATOM     17  N   UNL     1       4.880   5.045  17.207  0.00  0.00    +0.000 NA
ATOM     18  C   UNL     1       4.295   5.602  18.443  0.00  0.00    +0.000 C 
ATOM     19  C   UNL     1       2.848   5.871  18.130  0.00  0.00    +0.000 C 
ATOM     20  C   UNL     1       2.264   4.530  18.415  0.00  0.00    +0.000 A 
ATOM     21  C   UNL     1       1.395   4.365  19.491  0.00  0.00    +0.000 A 
ATOM     22  C   UNL     1       0.953   3.094  19.799  0.00  0.00    +0.000 A 
ATOM     23  C   UNL     1       1.286   2.030  18.957  0.00  0.00    +0.000 A 
ATOM     24  C   UNL     1       2.235   2.203  17.930  0.00  0.00    +0.000 A 
ATOM     25  C   UNL     1       2.829   3.451  17.700  0.00  0.00    +0.000 A 
ATOM     26  C   UNL     1       4.129   3.758  16.838  0.00  0.00    +0.000 C 
ENDBRANCH  16  17
ENDBRANCH   4  16
TORSDOF 6
ENDMDL
MODEL 2
REMARK VINA RESULT:      -7.3      3.174      9.958
REMARK  Name = 
REMARK  8 active torsions:
REMARK  status: ('A' for Active; 'I' for Inactive)
REMARK    1  A    between atoms: C_1  and  O_2
REMARK    2  A    between atoms: O_2  and  C_3
REMARK    3  A    between atoms: C_3  and  C_4
REMARK    4  A    between atoms: C_4  and  C_5
REMARK    5  A    between atoms: C_4  and  N_6
REMARK    6  A    between atoms: C_7  and  C_9
REMARK    7  A    between atoms: C_12  and  C_13
REMARK    8  A    between atoms: C_13  and  N_14
REMARK                            x       y       z     vdW  Elec       q    Type
REMARK                         _______ _______ _______ _____ _____    ______ ____
ROOT
ATOM      1  C   UNL     1       5.867   5.381  18.669  0.00  0.00    +0.000 A 
ATOM      2  C   UNL     1       7.136   5.553  19.235  0.00  0.00    +0.000 A 
ATOM      3  C   UNL     1       7.963   6.608  18.802  0.00  0.00    +0.000 A 
ATOM      4  C   UNL     1       7.544   7.489  17.785  0.00  0.00    +0.000 A 
ATOM      5  C   UNL     1       6.245   7.335  17.277  0.00  0.00    +0.000 A 
ATOM      6  C   UNL     1       5.423   6.286  17.701  0.00  0.00    +0.000 A 
ENDROOT
BRANCH   1   8
ATOM      7  N   UNL     1       3.662   4.309  18.578  0.00  0.00    +0.000 N 
ATOM      8  C   UNL     1       4.976   4.229  19.004  0.00  0.00    +0.000 C 
ATOM      9  O   UNL     1       5.420   3.282  19.633  0.00  0.00    +0.000 OA
ATOM     10  H   UNL     1       3.359   5.101  18.030  0.00  0.00    +0.000 HD
BRANCH   7  11
ATOM     11  C   UNL     1       2.675   3.280  18.923  0.00  0.00    +0.000 C 
ATOM     12  C   UNL     1       2.529   2.291  17.766  0.00  0.00    +0.000 C 
BRANCH  11  13
ATOM     13  C   UNL     1       1.315   3.910  19.292  0.00  0.00    +0.000 C 
BRANCH  13  15
ATOM     14  C   UNL     1       1.532   2.798  21.363  0.00  0.00    +0.000 C 
ATOM     15  O   UNL     1       1.171   4.009  20.710  0.00  0.00    +0.000 OA
ENDBRANCH  13  15
ENDBRANCH  11  13
ENDBRANCH   7  11
ENDBRANCH   1   8
BRANCH   4  16
ATOM     16  C   UNL     1       8.315   8.745  17.420  0.00  0.00    +0.000 C 
BRANCH  16  17
ATOM     17  N   UNL     1       8.359   9.902  18.335  0.00  0.00    +0.000 NA
ATOM     18  C   UNL     1       8.470  11.073  17.443  0.00  0.00    +0.000 C 
ATOM     19  C   UNL     1       8.247  12.279  18.315  0.00  0.00    +0.000 C 
ATOM     20  C   UNL     1       9.631  12.492  18.826  0.00  0.00    +0.000 A 
ATOM     21  C   UNL     1      10.345  13.626  18.445  0.00  0.00    +0.000 A 
ATOM     22  C   UNL     1      11.661  13.747  18.844  0.00  0.00    +0.000 A 
ATOM     23  C   UNL     1      12.203  12.799  19.715  0.00  0.00    +0.000 A 
ATOM     24  C   UNL     1      11.495  11.618  20.015  0.00  0.00    +0.000 A 
ATOM     25  C   UNL     1      10.217  11.391  19.487  0.00  0.00    +0.000 A 
ATOM     26  C   UNL     1       9.425  10.013  19.436  0.00  0.00    +0.000 C 
ENDBRANCH  16  17
ENDBRANCH   4  16
TORSDOF 6
ENDMDL
MODEL 3
REMARK VINA RESULT:      -7.2      5.127      7.784
REMARK  Name = 
REMARK  8 active torsions:
REMARK  status: ('A' for Active; 'I' for Inactive)
REMARK    1  A    between atoms: C_1  and  O_2
REMARK    2  A    between atoms: O_2  and  C_3
REMARK    3  A    between atoms: C_3  and  C_4
REMARK    4  A    between atoms: C_4  and  C_5
REMARK    5  A    between atoms: C_4  and  N_6
REMARK    6  A    between atoms: C_7  and  C_9
REMARK    7  A    between atoms: C_12  and  C_13
REMARK    8  A    between atoms: C_13  and  N_14
REMARK                            x       y       z     vdW  Elec       q    Type
REMARK                         _______ _______ _______ _____ _____    ______ ____
ROOT
ATOM      1  C   UNL     1       1.410   9.013  18.918  0.00  0.00    +0.000 A 
ATOM      2  C   UNL     1       1.977   8.201  17.928  0.00  0.00    +0.000 A 
ATOM      3  C   UNL     1       2.509   6.943  18.270  0.00  0.00    +0.000 A 
ATOM      4  C   UNL     1       2.505   6.489  19.604  0.00  0.00    +0.000 A 
ATOM      5  C   UNL     1       1.877   7.293  20.568  0.00  0.00    +0.000 A 
ATOM      6  C   UNL     1       1.351   8.545  20.234  0.00  0.00    +0.000 A 
ENDROOT
BRANCH   1   8
ATOM      7  N   UNL     1      -0.453  10.586  18.645  0.00  0.00    +0.000 N 
ATOM      8  C   UNL     1       0.918  10.399  18.651  0.00  0.00    +0.000 C 
ATOM      9  O   UNL     1       1.718  11.297  18.444  0.00  0.00    +0.000 OA
ATOM     10  H   UNL     1      -1.067   9.813  18.859  0.00  0.00    +0.000 HD
BRANCH   7  11
ATOM     11  C   UNL     1      -1.054  11.881  18.309  0.00  0.00    +0.000 C 
ATOM     12  C   UNL     1      -1.145  12.753  19.562  0.00  0.00    +0.000 C 
BRANCH  11  13
ATOM     13  C   UNL     1      -2.439  11.703  17.652  0.00  0.00    +0.000 C 
BRANCH  13  15
ATOM     14  C   UNL     1      -2.822  10.781  15.513  0.00  0.00    +0.000 C 
ATOM     15  O   UNL     1      -2.477  10.511  16.866  0.00  0.00    +0.000 OA
ENDBRANCH  13  15
ENDBRANCH  11  13
ENDBRANCH   7  11
ENDBRANCH   1   8
BRANCH   4  16
ATOM     16  C   UNL     1       2.892   5.073  19.989  0.00  0.00    +0.000 C 
BRANCH  16  17
ATOM     17  N   UNL     1       4.102   4.438  19.431  0.00  0.00    +0.000 NA
ATOM     18  C   UNL     1       5.071   5.544  19.298  0.00  0.00    +0.000 C 
ATOM     19  C   UNL     1       6.394   4.898  18.990  0.00  0.00    +0.000 C 
ATOM     20  C   UNL     1       6.285   4.768  17.509  0.00  0.00    +0.000 A 
ATOM     21  C   UNL     1       7.120   5.516  16.683  0.00  0.00    +0.000 A 
ATOM     22  C   UNL     1       6.926   5.459  15.317  0.00  0.00    +0.000 A 
ATOM     23  C   UNL     1       5.988   4.566  14.795  0.00  0.00    +0.000 A 
ATOM     24  C   UNL     1       5.096   3.887  15.649  0.00  0.00    +0.000 A 
ATOM     25  C   UNL     1       5.161   4.055  17.038  0.00  0.00    +0.000 A 
ATOM     26  C   UNL     1       4.059   3.653  18.112  0.00  0.00    +0.000 C 
ENDBRANCH  16  17
ENDBRANCH   4  16
TORSDOF 6
ENDMDL
MODEL 4
REMARK VINA RESULT:      -7.2      1.043      1.765
REMARK  Name = 
REMARK  8 active torsions:
REMARK  status: ('A' for Active; 'I' for Inactive)
REMARK    1  A    between atoms: C_1  and  O_2
REMARK    2  A    between atoms: O_2  and  C_3
REMARK    3  A    between atoms: C_3  and  C_4
REMARK    4  A    between atoms: C_4  and  C_5
REMARK    5  A    between atoms: C_4  and  N_6
REMARK    6  A    between atoms: C_7  and  C_9
REMARK    7  A    between atoms: C_12  and  C_13
REMARK    8  A    between atoms: C_13  and  N_14
REMARK                            x       y       z     vdW  Elec       q    Type
REMARK                         _______ _______ _______ _____ _____    ______ ____
ROOT
ATOM      1  C   UNL     1       8.435   8.708  18.482  0.00  0.00    +0.000 A 
ATOM      2  C   UNL     1       8.618   7.501  19.167  0.00  0.00    +0.000 A 
ATOM      3  C   UNL     1       7.851   6.372  18.819  0.00  0.00    +0.000 A 
ATOM      4  C   UNL     1       6.879   6.438  17.802  0.00  0.00    +0.000 A 
ATOM      5  C   UNL     1       6.757   7.641  17.089  0.00  0.00    +0.000 A 
ATOM      6  C   UNL     1       7.512   8.766  17.434  0.00  0.00    +0.000 A 
ENDROOT
BRANCH   1   8
ATOM      7  N   UNL     1       9.638  10.743  17.826  0.00  0.00    +0.000 N 
ATOM      8  C   UNL     1       9.137   9.972  18.860  0.00  0.00    +0.000 C 
ATOM      9  O   UNL     1       9.251  10.274  20.037  0.00  0.00    +0.000 OA
ATOM     10  H   UNL     1       9.483  10.462  16.868  0.00  0.00    +0.000 HD
BRANCH   7  11
ATOM     11  C   UNL     1      10.421  11.958  18.078  0.00  0.00    +0.000 C 
ATOM     12  C   UNL     1      11.625  11.627  18.960  0.00  0.00    +0.000 C 
BRANCH  11  13
ATOM     13  C   UNL     1       9.552  13.063  18.714  0.00  0.00    +0.000 C 
BRANCH  13  15
ATOM     14  C   UNL     1       7.751  14.525  18.275  0.00  0.00    +0.000 C 
ATOM     15  O   UNL     1       8.375  13.292  17.937  0.00  0.00    +0.000 OA
ENDBRANCH  13  15
ENDBRANCH  11  13
ENDBRANCH   7  11
ENDBRANCH   1   8
BRANCH   4  16
ATOM     16  C   UNL     1       6.166   5.209  17.267  0.00  0.00    +0.000 C 
BRANCH  16  17
ATOM     17  N   UNL     1       4.698   5.186  17.121  0.00  0.00    +0.000 NA
ATOM     18  C   UNL     1       4.192   5.725  18.399  0.00  0.00    +0.000 C 
ATOM     19  C   UNL     1       2.722   5.969  18.191  0.00  0.00    +0.000 C 
ATOM     20  C   UNL     1       2.183   4.616  18.506  0.00  0.00    +0.000 A 
ATOM     21  C   UNL     1       1.395   4.429  19.640  0.00  0.00    +0.000 A 
ATOM     22  C   UNL     1       0.998   3.147  19.968  0.00  0.00    +0.000 A 
ATOM     23  C   UNL     1       1.290   2.095  19.097  0.00  0.00    +0.000 A 
ATOM     24  C   UNL     1       2.161   2.292  18.007  0.00  0.00    +0.000 A 
ATOM     25  C   UNL     1       2.714   3.552  17.745  0.00  0.00    +0.000 A 
ATOM     26  C   UNL     1       3.945   3.887  16.796  0.00  0.00    +0.000 C 
ENDBRANCH  16  17
ENDBRANCH   4  16
TORSDOF 6
ENDMDL
MODEL 5
REMARK VINA RESULT:      -7.1      0.853      1.150
REMARK  Name = 
REMARK  8 active torsions:
REMARK  status: ('A' for Active; 'I' for Inactive)
REMARK    1  A    between atoms: C_1  and  O_2
REMARK    2  A    between atoms: O_2  and  C_3
REMARK    3  A    between atoms: C_3  and  C_4
REMARK    4  A    between atoms: C_4  and  C_5
REMARK    5  A    between atoms: C_4  and  N_6
REMARK    6  A    between atoms: C_7  and  C_9
REMARK    7  A    between atoms: C_12  and  C_13
REMARK    8  A    between atoms: C_13  and  N_14
REMARK                            x       y       z     vdW  Elec       q    Type
REMARK                         _______ _______ _______ _____ _____    ______ ____
ROOT
ATOM      1  C   UNL     1       8.354   8.780  18.459  0.00  0.00    +0.000 A 
ATOM      2  C   UNL     1       7.472   8.768  17.372  0.00  0.00    +0.000 A 
ATOM      3  C   UNL     1       6.847   7.566  16.985  0.00  0.00    +0.000 A 
ATOM      4  C   UNL     1       7.112   6.359  17.662  0.00  0.00    +0.000 A 
ATOM      5  C   UNL     1       7.952   6.407  18.785  0.00  0.00    +0.000 A 
ATOM      6  C   UNL     1       8.578   7.597  19.169  0.00  0.00    +0.000 A 
ENDROOT
BRANCH   1   8
ATOM      7  N   UNL     1       9.407  10.917  17.874  0.00  0.00    +0.000 N 
ATOM      8  C   UNL     1       9.130   9.991  18.864  0.00  0.00    +0.000 C 
ATOM      9  O   UNL     1       9.493  10.118  20.022  0.00  0.00    +0.000 OA
ATOM     10  H   UNL     1       9.050  10.777  16.940  0.00  0.00    +0.000 HD
BRANCH   7  11
ATOM     11  C   UNL     1      10.235  12.100  18.134  0.00  0.00    +0.000 C 
ATOM     12  C   UNL     1      11.689  11.680  18.350  0.00  0.00    +0.000 C 
BRANCH  11  13
ATOM     13  C   UNL     1       9.703  12.903  19.340  0.00  0.00    +0.000 C 
BRANCH  13  15
ATOM     14  C   UNL     1       9.788  14.726  17.842  0.00  0.00    +0.000 C 
ATOM     15  O   UNL     1       9.983  14.295  19.184  0.00  0.00    +0.000 OA
ENDBRANCH  13  15
ENDBRANCH  11  13
ENDBRANCH   7  11
ENDBRANCH   1   8
BRANCH   4  16
ATOM     16  C   UNL     1       6.326   5.086  17.405  0.00  0.00    +0.000 C 
BRANCH  16  17
ATOM     17  N   UNL     1       4.862   5.121  17.218  0.00  0.00    +0.000 NA
ATOM     18  C   UNL     1       4.340   5.643  18.497  0.00  0.00    +0.000 C 
ATOM     19  C   UNL     1       2.887   5.948  18.255  0.00  0.00    +0.000 C 
ATOM     20  C   UNL     1       2.290   4.607  18.517  0.00  0.00    +0.000 A 
ATOM     21  C   UNL     1       1.464   4.418  19.622  0.00  0.00    +0.000 A 
ATOM     22  C   UNL     1       1.012   3.144  19.903  0.00  0.00    +0.000 A 
ATOM     23  C   UNL     1       1.290   2.106  19.010  0.00  0.00    +0.000 A 
ATOM     24  C   UNL     1       2.198   2.300  17.950  0.00  0.00    +0.000 A 
ATOM     25  C   UNL     1       2.804   3.546  17.740  0.00  0.00    +0.000 A 
ATOM     26  C   UNL     1       4.072   3.862  16.835  0.00  0.00    +0.000 C 
ENDBRANCH  16  17
ENDBRANCH   4  16
TORSDOF 6
ENDMDL
MODEL 6
REMARK VINA RESULT:      -7.1      5.916      8.387
REMARK  Name = 
REMARK  8 active torsions:
REMARK  status: ('A' for Active; 'I' for Inactive)
REMARK    1  A    between atoms: C_1  and  O_2
REMARK    2  A    between atoms: O_2  and  C_3
REMARK    3  A    between atoms: C_3  and  C_4
REMARK    4  A    between atoms: C_4  and  C_5
REMARK    5  A    between atoms: C_4  and  N_6
REMARK    6  A    between atoms: C_7  and  C_9
REMARK    7  A    between atoms: C_12  and  C_13
REMARK    8  A    between atoms: C_13  and  N_14
REMARK                            x       y       z     vdW  Elec       q    Type
REMARK                         _______ _______ _______ _____ _____    ______ ____
ROOT
ATOM      1  C   UNL     1       3.361   6.511  18.435  0.00  0.00    +0.000 A 
ATOM      2  C   UNL     1       3.148   7.666  17.673  0.00  0.00    +0.000 A 
ATOM      3  C   UNL     1       2.277   8.668  18.144  0.00  0.00    +0.000 A 
ATOM      4  C   UNL     1       1.592   8.521  19.366  0.00  0.00    +0.000 A 
ATOM      5  C   UNL     1       1.868   7.384  20.140  0.00  0.00    +0.000 A 
ATOM      6  C   UNL     1       2.728   6.384  19.675  0.00  0.00    +0.000 A 
ENDROOT
BRANCH   1   8
ATOM      7  N   UNL     1       5.392   5.670  17.345  0.00  0.00    +0.000 N 
ATOM      8  C   UNL     1       4.189   5.362  17.957  0.00  0.00    +0.000 C 
ATOM      9  O   UNL     1       3.787   4.220  18.108  0.00  0.00    +0.000 OA
ATOM     10  H   UNL     1       5.691   6.632  17.279  0.00  0.00    +0.000 HD
BRANCH   7  11
ATOM     11  C   UNL     1       6.247   4.632  16.758  0.00  0.00    +0.000 C 
ATOM     12  C   UNL     1       7.597   4.604  17.475  0.00  0.00    +0.000 C 
BRANCH  11  13
ATOM     13  C   UNL     1       6.427   4.845  15.241  0.00  0.00    +0.000 C 
BRANCH  13  15
ATOM     14  C   UNL     1       6.362   3.784  13.132  0.00  0.00    +0.000 C 
ATOM     15  O   UNL     1       6.058   3.669  14.517  0.00  0.00    +0.000 OA
ENDBRANCH  13  15
ENDBRANCH  11  13
ENDBRANCH   7  11
ENDBRANCH   1   8
BRANCH   4  16
ATOM     16  C   UNL     1       0.796   9.647  20.000  0.00  0.00    +0.000 C 
BRANCH  16  17
ATOM     17  N   UNL     1       0.035  10.601  19.170  0.00  0.00    +0.000 NA
ATOM     18  C   UNL     1      -0.751  11.389  20.141  0.00  0.00    +0.000 C 
ATOM     19  C   UNL     1      -1.328  12.542  19.365  0.00  0.00    +0.000 C 
ATOM     20  C   UNL     1      -2.564  11.903  18.827  0.00  0.00    +0.000 A 
ATOM     21  C   UNL     1      -3.814  12.332  19.267  0.00  0.00    +0.000 A 
ATOM     22  C   UNL     1      -4.937  11.654  18.836  0.00  0.00    +0.000 A 
ATOM     23  C   UNL     1      -4.803  10.642  17.883  0.00  0.00    +0.000 A 
ATOM     24  C   UNL     1      -3.527  10.167  17.521  0.00  0.00    +0.000 A 
ATOM     25  C   UNL     1      -2.367  10.728  18.071  0.00  0.00    +0.000 A 
ATOM     26  C   UNL     1      -0.897  10.122  18.047  0.00  0.00    +0.000 C 
ENDBRANCH  16  17
ENDBRANCH   4  16
TORSDOF 6
ENDMDL
MODEL 7
REMARK VINA RESULT:      -7.1      1.970      2.920
REMARK  Name = 
REMARK  8 active torsions:
REMARK  status: ('A' for Active; 'I' for Inactive)
REMARK    1  A    between atoms: C_1  and  O_2
REMARK    2  A    between atoms: O_2  and  C_3
REMARK    3  A    between atoms: C_3  and  C_4
REMARK    4  A    between atoms: C_4  and  C_5
REMARK    5  A    between atoms: C_4  and  N_6
REMARK    6  A    between atoms: C_7  and  C_9
REMARK    7  A    between atoms: C_12  and  C_13
REMARK    8  A    between atoms: C_13  and  N_14
REMARK                            x       y       z     vdW  Elec       q    Type
REMARK                         _______ _______ _______ _____ _____    ______ ____
ROOT
ATOM      1  C   UNL     1       7.881   8.304  18.025  0.00  0.00    +0.000 A 
ATOM      2  C   UNL     1       8.337   7.167  18.702  0.00  0.00    +0.000 A 
ATOM      3  C   UNL     1       7.716   5.922  18.482  0.00  0.00    +0.000 A 
ATOM      4  C   UNL     1       6.622   5.799  17.603  0.00  0.00    +0.000 A 
ATOM      5  C   UNL     1       6.223   6.940  16.890  0.00  0.00    +0.000 A 
ATOM      6  C   UNL     1       6.832   8.179  17.109  0.00  0.00    +0.000 A 
ENDROOT
BRANCH   1   8
ATOM      7  N   UNL     1       9.181   9.844  19.424  0.00  0.00    +0.000 N 
ATOM      8  C   UNL     1       8.421   9.674  18.280  0.00  0.00    +0.000 C 
ATOM      9  O   UNL     1       8.174  10.579  17.499  0.00  0.00    +0.000 OA
ATOM     10  H   UNL     1       9.383   9.051  20.016  0.00  0.00    +0.000 HD
BRANCH   7  11
ATOM     11  C   UNL     1       9.690  11.161  19.825  0.00  0.00    +0.000 C 
ATOM     12  C   UNL     1      11.163  11.289  19.435  0.00  0.00    +0.000 C 
BRANCH  11  13
ATOM     13  C   UNL     1       9.490  11.403  21.335  0.00  0.00    +0.000 C 
BRANCH  13  15
ATOM     14  C   UNL     1       8.082  12.878  22.526  0.00  0.00    +0.000 C 
ATOM     15  O   UNL     1       9.146  12.766  21.588  0.00  0.00    +0.000 OA
ENDBRANCH  13  15
ENDBRANCH  11  13
ENDBRANCH   7  11
ENDBRANCH   1   8
BRANCH   4  16
ATOM     16  C   UNL     1       6.046   4.457  17.193  0.00  0.00    +0.000 C 
BRANCH  16  17
ATOM     17  N   UNL     1       5.348   3.598  18.170  0.00  0.00    +0.000 NA
ATOM     18  C   UNL     1       4.228   3.008  17.409  0.00  0.00    +0.000 C 
ATOM     19  C   UNL     1       3.658   1.927  18.286  0.00  0.00    +0.000 C 
ATOM     20  C   UNL     1       2.716   2.732  19.115  0.00  0.00    +0.000 A 
ATOM     21  C   UNL     1       1.342   2.544  18.987  0.00  0.00    +0.000 A 
ATOM     22  C   UNL     1       0.490   3.375  19.686  0.00  0.00    +0.000 A 
ATOM     23  C   UNL     1       1.021   4.296  20.592  0.00  0.00    +0.000 A 
ATOM     24  C   UNL     1       2.410   4.531  20.639  0.00  0.00    +0.000 A 
ATOM     25  C   UNL     1       3.290   3.815  19.817  0.00  0.00    +0.000 A 
ATOM     26  C   UNL     1       4.806   4.164  19.491  0.00  0.00    +0.000 C 
ENDBRANCH  16  17
ENDBRANCH   4  16
TORSDOF 6
ENDMDL
MODEL 8
REMARK VINA RESULT:      -7.1      1.692      2.327
REMARK  Name = 
REMARK  8 active torsions:
REMARK  status: ('A' for Active; 'I' for Inactive)
REMARK    1  A    between atoms: C_1  and  O_2
REMARK    2  A    between atoms: O_2  and  C_3
REMARK    3  A    between atoms: C_3  and  C_4
REMARK    4  A    between atoms: C_4  and  C_5
REMARK    5  A    between atoms: C_4  and  N_6
REMARK    6  A    between atoms: C_7  and  C_9
REMARK    7  A    between atoms: C_12  and  C_13
REMARK    8  A    between atoms: C_13  and  N_14
REMARK                            x       y       z     vdW  Elec       q    Type
REMARK                         _______ _______ _______ _____ _____    ______ ____
ROOT
ATOM      1  C   UNL     1       8.309   8.574  18.308  0.00  0.00    +0.000 A 
ATOM      2  C   UNL     1       8.577   7.463  19.116  0.00  0.00    +0.000 A 
ATOM      3  C   UNL     1       7.880   6.257  18.907  0.00  0.00    +0.000 A 
ATOM      4  C   UNL     1       6.893   6.151  17.906  0.00  0.00    +0.000 A 
ATOM      5  C   UNL     1       6.686   7.259  17.070  0.00  0.00    +0.000 A 
ATOM      6  C   UNL     1       7.372   8.459  17.277  0.00  0.00    +0.000 A 
ENDROOT
BRANCH   1   8
ATOM      7  N   UNL     1       9.039  10.341  19.846  0.00  0.00    +0.000 N 
ATOM      8  C   UNL     1       8.933   9.913  18.534  0.00  0.00    +0.000 C 
ATOM      9  O   UNL     1       9.311  10.575  17.581  0.00  0.00    +0.000 OA
ATOM     10  H   UNL     1       8.741   9.736  20.598  0.00  0.00    +0.000 HD
BRANCH   7  11
ATOM     11  C   UNL     1       9.553  11.673  20.184  0.00  0.00    +0.000 C 
ATOM     12  C   UNL     1      11.075  11.623  20.325  0.00  0.00    +0.000 C 
BRANCH  11  13
ATOM     13  C   UNL     1       8.893  12.219  21.468  0.00  0.00    +0.000 C 
BRANCH  13  15
ATOM     14  C   UNL     1       9.234  14.430  22.222  0.00  0.00    +0.000 C 
ATOM     15  O   UNL     1       9.774  13.116  22.147  0.00  0.00    +0.000 OA
ENDBRANCH  13  15
ENDBRANCH  11  13
ENDBRANCH   7  11
ENDBRANCH   1   8
BRANCH   4  16
ATOM     16  C   UNL     1       6.255   4.829  17.521  0.00  0.00    +0.000 C 
BRANCH  16  17
ATOM     17  N   UNL     1       4.791   4.706  17.373  0.00  0.00    +0.000 NA
ATOM     18  C   UNL     1       4.240   5.588  18.422  0.00  0.00    +0.000 C 
ATOM     19  C   UNL     1       2.768   5.702  18.133  0.00  0.00    +0.000 C 
ATOM     20  C   UNL     1       2.268   4.489  18.841  0.00  0.00    +0.000 A 
ATOM     21  C   UNL     1       1.463   4.625  19.969  0.00  0.00    +0.000 A 
ATOM     22  C   UNL     1       1.102   3.490  20.668  0.00  0.00    +0.000 A 
ATOM     23  C   UNL     1       1.446   2.235  20.162  0.00  0.00    +0.000 A 
ATOM     24  C   UNL     1       2.333   2.124  19.073  0.00  0.00    +0.000 A 
ATOM     25  C   UNL     1       2.850   3.265  18.445  0.00  0.00    +0.000 A 
ATOM     26  C   UNL     1       4.089   3.343  17.451  0.00  0.00    +0.000 C 
ENDBRANCH  16  17
ENDBRANCH   4  16
TORSDOF 6
ENDMDL
MODEL 9
REMARK VINA RESULT:      -7.0      6.550      9.934
REMARK  Name = 
REMARK  8 active torsions:
REMARK  status: ('A' for Active; 'I' for Inactive)
REMARK    1  A    between atoms: C_1  and  O_2
REMARK    2  A    between atoms: O_2  and  C_3
REMARK    3  A    between atoms: C_3  and  C_4
REMARK    4  A    between atoms: C_4  and  C_5
REMARK    5  A    between atoms: C_4  and  N_6
REMARK    6  A    between atoms: C_7  and  C_9
REMARK    7  A    between atoms: C_12  and  C_13
REMARK    8  A    between atoms: C_13  and  N_14
REMARK                            x       y       z     vdW  Elec       q    Type
REMARK                         _______ _______ _______ _____ _____    ______ ____
ROOT
ATOM      1  C   UNL     1       2.819   7.005  18.675  0.00  0.00    +0.000 A 
ATOM      2  C   UNL     1       2.726   7.989  17.683  0.00  0.00    +0.000 A 
ATOM      3  C   UNL     1       1.991   9.165  17.925  0.00  0.00    +0.000 A 
ATOM      4  C   UNL     1       1.322   9.366  19.149  0.00  0.00    +0.000 A 
ATOM      5  C   UNL     1       1.481   8.395  20.150  0.00  0.00    +0.000 A 
ATOM      6  C   UNL     1       2.205   7.223  19.912  0.00  0.00    +0.000 A 
ENDROOT
BRANCH   1   8
ATOM      7  N   UNL     1       2.739   4.553  18.684  0.00  0.00    +0.000 N 
ATOM      8  C   UNL     1       3.494   5.690  18.456  0.00  0.00    +0.000 C 
ATOM      9  O   UNL     1       4.661   5.659  18.102  0.00  0.00    +0.000 OA
ATOM     10  H   UNL     1       1.766   4.639  18.942  0.00  0.00    +0.000 HD
BRANCH   7  11
ATOM     11  C   UNL     1       3.319   3.209  18.587  0.00  0.00    +0.000 C 
ATOM     12  C   UNL     1       2.510   2.364  17.601  0.00  0.00    +0.000 C 
BRANCH  11  13
ATOM     13  C   UNL     1       3.395   2.530  19.970  0.00  0.00    +0.000 C 
BRANCH  13  15
ATOM     14  C   UNL     1       1.734   2.634  21.645  0.00  0.00    +0.000 C 
ATOM     15  O   UNL     1       2.766   3.339  20.966  0.00  0.00    +0.000 OA
ENDBRANCH  13  15
ENDBRANCH  11  13
ENDBRANCH   7  11
ENDBRANCH   1   8
BRANCH   4  16
ATOM     16  C   UNL     1       0.680  10.688  19.526  0.00  0.00    +0.000 C 
BRANCH  16  17
ATOM     17  N   UNL     1       0.514  11.077  20.940  0.00  0.00    +0.000 NA
ATOM     18  C   UNL     1      -0.746  10.428  21.355  0.00  0.00    +0.000 C 
ATOM     19  C   UNL     1      -0.811  10.573  22.851  0.00  0.00    +0.000 C 
ATOM     20  C   UNL     1      -1.432  11.925  22.956  0.00  0.00    +0.000 A 
ATOM     21  C   UNL     1      -2.719  12.060  23.472  0.00  0.00    +0.000 A 
ATOM     22  C   UNL     1      -3.311  13.307  23.458  0.00  0.00    +0.000 A 
ATOM     23  C   UNL     1      -2.567  14.415  23.046  0.00  0.00    +0.000 A 
ATOM     24  C   UNL     1      -1.304  14.243  22.447  0.00  0.00    +0.000 A 
ATOM     25  C   UNL     1      -0.746  12.967  22.295  0.00  0.00    +0.000 A 
ATOM     26  C   UNL     1       0.477  12.552  21.367  0.00  0.00    +0.000 C 
ENDBRANCH  16  17
ENDBRANCH   4  16
TORSDOF 6
ENDMDL
