MODEL 1
REMARK VINA RESULT:      -8.3      0.000      0.000
REMARK  Name = 
REMARK  6 active torsions:
REMARK  status: ('A' for Active; 'I' for Inactive)
REMARK    1  A    between atoms: C_2  and  C_3
REMARK    2  A    between atoms: C_4  and  C_5
REMARK    3  A    between atoms: C_6  and  C_7
REMARK    4  A    between atoms: C_8  and  C_9
REMARK    5  A    between atoms: C_12  and  O_13
REMARK    6  A    between atoms: C_14  and  O_15
REMARK                            x       y       z     vdW  Elec       q    Type
REMARK                         _______ _______ _______ _____ _____    ______ ____
ROOT
ATOM      1  C   UNL     1       7.297   6.579  18.182  0.00  0.00    +0.000 C 
ATOM      2  C   UNL     1       7.432   7.812  17.670  0.00  0.00    +0.000 C 
ENDROOT
BRANCH   1   4
ATOM      3  C   UNL     1       4.978   5.869  17.868  0.00  0.00    +0.000 C 
ATOM      4  C   UNL     1       6.290   5.643  17.733  0.00  0.00    +0.000 C 
BRANCH   3   6
ATOM      5  O   UNL     1       4.270   4.072  16.537  0.00  0.00    +0.000 OA
ATOM      6  C   UNL     1       4.022   4.803  17.491  0.00  0.00    +0.000 C 
ATOM      7  N   UNL     1       2.878   4.723  18.273  0.00  0.00    +0.000 N 
ATOM      8  C   UNL     1       2.567   5.599  19.403  0.00  0.00    +0.000 C 
ATOM      9  C   UNL     1       2.023   4.814  20.596  0.00  0.00    +0.000 C 
ATOM     10  C   UNL     1       0.887   3.875  20.200  0.00  0.00    +0.000 C 
ATOM     11  C   UNL     1       1.276   3.002  19.009  0.00  0.00    +0.000 C 
ATOM     12  C   UNL     1       1.794   3.844  17.847  0.00  0.00    +0.000 C 
ENDBRANCH   3   6
ENDBRANCH   1   4
BRANCH   2  13
ATOM     13  C   UNL     1       8.461   8.731  18.112  0.00  0.00    +0.000 C 
ATOM     14  C   UNL     1       8.332  10.070  18.055  0.00  0.00    +0.000 C 
BRANCH  14  15
ATOM     15  C   UNL     1       9.359  11.023  18.516  0.00  0.00    +0.000 A 
ATOM     16  C   UNL     1       9.978  10.916  19.775  0.00  0.00    +0.000 A 
ATOM     17  C   UNL     1      10.951  11.834  20.188  0.00  0.00    +0.000 A 
ATOM     18  C   UNL     1      11.320  12.859  19.329  0.00  0.00    +0.000 A 
ATOM     19  C   UNL     1      10.735  12.960  18.070  0.00  0.00    +0.000 A 
ATOM     20  C   UNL     1       9.766  12.053  17.656  0.00  0.00    +0.000 A 
BRANCH  18  21
ATOM     21  O   UNL     1      12.259  13.790  19.674  0.00  0.00    +0.000 OA
ATOM     22  H   UNL     1      12.989  13.331  20.123  0.00  0.00    +0.000 HD
ENDBRANCH  18  21
BRANCH  19  23
ATOM     23  O   UNL     1      11.114  13.968  17.228  0.00  0.00    +0.000 OA
ATOM     24  H   UNL     1      10.717  13.730  16.366  0.00  0.00    +0.000 HD
ENDBRANCH  19  23
ENDBRANCH  14  15
ENDBRANCH   2  13
TORSDOF 6
ENDMDL
MODEL 2
REMARK VINA RESULT:      -8.2      1.420      1.574
REMARK  Name = 
REMARK  6 active torsions:
REMARK  status: ('A' for Active; 'I' for Inactive)
REMARK    1  A    between atoms: C_2  and  C_3
REMARK    2  A    between atoms: C_4  and  C_5
REMARK    3  A    between atoms: C_6  and  C_7
REMARK    4  A    between atoms: C_8  and  C_9
REMARK    5  A    between atoms: C_12  and  O_13
REMARK    6  A    between atoms: C_14  and  O_15
REMARK                            x       y       z     vdW  Elec       q    Type
REMARK                         _______ _______ _______ _____ _____    ______ ____
ROOT
ATOM      1  C   UNL     1       7.875   6.911  18.453  0.00  0.00    +0.000 C 
ATOM      2  C   UNL     1       7.665   8.002  17.699  0.00  0.00    +0.000 C 
ENDROOT
BRANCH   1   4
ATOM      3  C   UNL     1       5.958   5.550  19.124  0.00  0.00    +0.000 C 
ATOM      4  C   UNL     1       7.051   5.725  18.373  0.00  0.00    +0.000 C 
BRANCH   3   6
ATOM      5  O   UNL     1       5.719   3.270  19.620  0.00  0.00    +0.000 OA
ATOM      6  C   UNL     1       5.243   4.254  19.064  0.00  0.00    +0.000 C 
ATOM      7  N   UNL     1       4.054   4.262  18.349  0.00  0.00    +0.000 N 
ATOM      8  C   UNL     1       3.485   5.427  17.670  0.00  0.00    +0.000 C 
ATOM      9  C   UNL     1       1.981   5.546  17.911  0.00  0.00    +0.000 C 
ATOM     10  C   UNL     1       1.246   4.238  17.631  0.00  0.00    +0.000 C 
ATOM     11  C   UNL     1       1.900   3.066  18.359  0.00  0.00    +0.000 C 
ATOM     12  C   UNL     1       3.394   2.991  18.065  0.00  0.00    +0.000 C 
ENDBRANCH   3   6
ENDBRANCH   1   4
BRANCH   2  13
ATOM     13  C   UNL     1       8.513   9.174  17.771  0.00  0.00    +0.000 C 
ATOM     14  C   UNL     1       8.912   9.730  18.930  0.00  0.00    +0.000 C 
BRANCH  14  15
ATOM     15  C   UNL     1       9.790  10.911  19.026  0.00  0.00    +0.000 A 
ATOM     16  C   UNL     1       9.882  11.690  20.194  0.00  0.00    +0.000 A 
ATOM     17  C   UNL     1      10.724  12.807  20.258  0.00  0.00    +0.000 A 
ATOM     18  C   UNL     1      11.493  13.139  19.152  0.00  0.00    +0.000 A 
ATOM     19  C   UNL     1      11.431  12.360  18.000  0.00  0.00    +0.000 A 
ATOM     20  C   UNL     1      10.595  11.252  17.928  0.00  0.00    +0.000 A 
BRANCH  18  21
ATOM     21  O   UNL     1      12.330  14.219  19.150  0.00  0.00    +0.000 OA
ATOM     22  H   UNL     1      12.750  14.274  18.274  0.00  0.00    +0.000 HD
ENDBRANCH  18  21
BRANCH  19  23
ATOM     23  O   UNL     1      12.201  12.690  16.920  0.00  0.00    +0.000 OA
ATOM     24  H   UNL     1      11.955  13.614  16.715  0.00  0.00    +0.000 HD
ENDBRANCH  19  23
ENDBRANCH  14  15
ENDBRANCH   2  13
TORSDOF 6
ENDMDL
MODEL 3
REMARK VINA RESULT:      -8.2      0.953      1.557
REMARK  Name = 
REMARK  6 active torsions:
REMARK  status: ('A' for Active; 'I' for Inactive)
REMARK    1  A    between atoms: C_2  and  C_3
REMARK    2  A    between atoms: C_4  and  C_5
REMARK    3  A    between atoms: C_6  and  C_7
REMARK    4  A    between atoms: C_8  and  C_9
REMARK    5  A    between atoms: C_12  and  O_13
REMARK    6  A    between atoms: C_14  and  O_15
REMARK                            x       y       z     vdW  Elec       q    Type
REMARK                         _______ _______ _______ _____ _____    ______ ____
ROOT
ATOM      1  C   UNL     1       7.352   6.076  18.532  0.00  0.00    +0.000 C 
ATOM      2  C   UNL     1       7.485   7.281  17.955  0.00  0.00    +0.000 C 
ENDROOT
BRANCH   1   4
ATOM      3  C   UNL     1       5.087   5.236  18.153  0.00  0.00    +0.000 C 
ATOM      4  C   UNL     1       6.413   5.078  18.069  0.00  0.00    +0.000 C 
BRANCH   3   6
ATOM      5  O   UNL     1       4.552   3.340  16.879  0.00  0.00    +0.000 OA
ATOM      6  C   UNL     1       4.203   4.112  17.766  0.00  0.00    +0.000 C 
ATOM      7  N   UNL     1       3.005   4.028  18.462  0.00  0.00    +0.000 N 
ATOM      8  C   UNL     1       2.574   4.952  19.513  0.00  0.00    +0.000 C 
ATOM      9  C   UNL     1       1.967   4.213  20.704  0.00  0.00    +0.000 C 
ATOM     10  C   UNL     1       0.901   3.207  20.278  0.00  0.00    +0.000 C 
ATOM     11  C   UNL     1       1.415   2.286  19.174  0.00  0.00    +0.000 C 
ATOM     12  C   UNL     1       1.991   3.083  18.007  0.00  0.00    +0.000 C 
ENDBRANCH   3   6
ENDBRANCH   1   4
BRANCH   2  13
ATOM     13  C   UNL     1       8.447   8.263  18.412  0.00  0.00    +0.000 C 
ATOM     14  C   UNL     1       8.400   9.562  18.067  0.00  0.00    +0.000 C 
BRANCH  14  15
ATOM     15  C   UNL     1       9.357  10.581  18.535  0.00  0.00    +0.000 A 
ATOM     16  C   UNL     1      10.208  11.278  17.658  0.00  0.00    +0.000 A 
ATOM     17  C   UNL     1      11.108  12.242  18.130  0.00  0.00    +0.000 A 
ATOM     18  C   UNL     1      11.146  12.524  19.487  0.00  0.00    +0.000 A 
ATOM     19  C   UNL     1      10.290  11.862  20.362  0.00  0.00    +0.000 A 
ATOM     20  C   UNL     1       9.396  10.901  19.901  0.00  0.00    +0.000 A 
BRANCH  18  21
ATOM     21  O   UNL     1      12.005  13.449  20.011  0.00  0.00    +0.000 OA
ATOM     22  H   UNL     1      11.584  13.841  20.796  0.00  0.00    +0.000 HD
ENDBRANCH  18  21
BRANCH  19  23
ATOM     23  O   UNL     1      10.328  12.155  21.697  0.00  0.00    +0.000 OA
ATOM     24  H   UNL     1       9.523  12.687  21.854  0.00  0.00    +0.000 HD
ENDBRANCH  19  23
ENDBRANCH  14  15
ENDBRANCH   2  13
TORSDOF 6
ENDMDL
MODEL 4
REMARK VINA RESULT:      -8.1      1.678      2.004
REMARK  Name = 
REMARK  6 active torsions:
REMARK  status: ('A' for Active; 'I' for Inactive)
REMARK    1  A    between atoms: C_2  and  C_3
REMARK    2  A    between atoms: C_4  and  C_5
REMARK    3  A    between atoms: C_6  and  C_7
REMARK    4  A    between atoms: C_8  and  C_9
REMARK    5  A    between atoms: C_12  and  O_13
REMARK    6  A    between atoms: C_14  and  O_15
REMARK                            x       y       z     vdW  Elec       q    Type
REMARK                         _______ _______ _______ _____ _____    ______ ____
ROOT
ATOM      1  C   UNL     1       6.805   6.844  17.452  0.00  0.00    +0.000 C 
ATOM      2  C   UNL     1       7.779   7.499  18.104  0.00  0.00    +0.000 C 
ENDROOT
BRANCH   1   4
ATOM      3  C   UNL     1       5.189   5.364  18.538  0.00  0.00    +0.000 C 
ATOM      4  C   UNL     1       6.325   5.540  17.853  0.00  0.00    +0.000 C 
BRANCH   3   6
ATOM      5  O   UNL     1       5.615   3.392  19.734  0.00  0.00    +0.000 OA
ATOM      6  C   UNL     1       4.837   4.006  19.011  0.00  0.00    +0.000 C 
ATOM      7  N   UNL     1       3.613   3.521  18.573  0.00  0.00    +0.000 N 
ATOM      8  C   UNL     1       2.684   4.240  17.700  0.00  0.00    +0.000 C 
ATOM      9  C   UNL     1       1.240   4.116  18.182  0.00  0.00    +0.000 C 
ATOM     10  C   UNL     1       0.846   2.668  18.457  0.00  0.00    +0.000 C 
ATOM     11  C   UNL     1       1.863   1.976  19.362  0.00  0.00    +0.000 C 
ATOM     12  C   UNL     1       3.280   2.121  18.819  0.00  0.00    +0.000 C 
ENDBRANCH   3   6
ENDBRANCH   1   4
BRANCH   2  13
ATOM     13  C   UNL     1       8.234   8.816  17.708  0.00  0.00    +0.000 C 
ATOM     14  C   UNL     1       8.854   9.668  18.544  0.00  0.00    +0.000 C 
BRANCH  14  15
ATOM     15  C   UNL     1       9.341  11.005  18.157  0.00  0.00    +0.000 A 
ATOM     16  C   UNL     1      10.710  11.295  18.007  0.00  0.00    +0.000 A 
ATOM     17  C   UNL     1      11.146  12.573  17.637  0.00  0.00    +0.000 A 
ATOM     18  C   UNL     1      10.206  13.566  17.400  0.00  0.00    +0.000 A 
ATOM     19  C   UNL     1       8.848  13.284  17.519  0.00  0.00    +0.000 A 
ATOM     20  C   UNL     1       8.409  12.018  17.888  0.00  0.00    +0.000 A 
BRANCH  18  21
ATOM     21  O   UNL     1      10.567  14.834  17.042  0.00  0.00    +0.000 OA
ATOM     22  H   UNL     1      11.538  14.893  17.077  0.00  0.00    +0.000 HD
ENDBRANCH  18  21
BRANCH  19  23
ATOM     23  O   UNL     1       7.931  14.267  17.272  0.00  0.00    +0.000 OA
ATOM     24  H   UNL     1       7.428  13.944  16.498  0.00  0.00    +0.000 HD
ENDBRANCH  19  23
ENDBRANCH  14  15
ENDBRANCH   2  13
TORSDOF 6
ENDMDL
MODEL 5
REMARK VINA RESULT:      -8.1      1.452      2.073
REMARK  Name = 
REMARK  6 active torsions:
REMARK  status: ('A' for Active; 'I' for Inactive)
REMARK    1  A    between atoms: C_2  and  C_3
REMARK    2  A    between atoms: C_4  and  C_5
REMARK    3  A    between atoms: C_6  and  C_7
REMARK    4  A    between atoms: C_8  and  C_9
REMARK    5  A    between atoms: C_12  and  O_13
REMARK    6  A    between atoms: C_14  and  O_15
REMARK                            x       y       z     vdW  Elec       q    Type
REMARK                         _______ _______ _______ _____ _____    ______ ____
ROOT
ATOM      1  C   UNL     1       7.893   8.228  17.695  0.00  0.00    +0.000 C 
ATOM      2  C   UNL     1       8.640   8.922  18.568  0.00  0.00    +0.000 C 
ENDROOT
BRANCH   1   4
ATOM      3  C   UNL     1       6.239   6.428  17.767  0.00  0.00    +0.000 C 
ATOM      4  C   UNL     1       7.500   6.853  17.910  0.00  0.00    +0.000 C 
BRANCH   3   6
ATOM      5  O   UNL     1       6.792   4.270  18.501  0.00  0.00    +0.000 OA
ATOM      6  C   UNL     1       5.906   5.030  18.125  0.00  0.00    +0.000 C 
ATOM      7  N   UNL     1       4.569   4.683  17.992  0.00  0.00    +0.000 N 
ATOM      8  C   UNL     1       3.506   5.578  17.532  0.00  0.00    +0.000 C 
ATOM      9  C   UNL     1       2.246   5.449  18.385  0.00  0.00    +0.000 C 
ATOM     10  C   UNL     1       1.810   3.996  18.555  0.00  0.00    +0.000 C 
ATOM     11  C   UNL     1       2.968   3.119  19.024  0.00  0.00    +0.000 C 
ATOM     12  C   UNL     1       4.189   3.280  18.123  0.00  0.00    +0.000 C 
ENDBRANCH   3   6
ENDBRANCH   1   4
BRANCH   2  13
ATOM     13  C   UNL     1       9.006  10.307  18.353  0.00  0.00    +0.000 C 
ATOM     14  C   UNL     1       9.974  10.934  19.046  0.00  0.00    +0.000 C 
BRANCH  14  15
ATOM     15  C   UNL     1      10.375  12.336  18.831  0.00  0.00    +0.000 A 
ATOM     16  C   UNL     1      10.614  13.225  19.895  0.00  0.00    +0.000 A 
ATOM     17  C   UNL     1      10.994  14.552  19.662  0.00  0.00    +0.000 A 
ATOM     18  C   UNL     1      11.153  14.991  18.356  0.00  0.00    +0.000 A 
ATOM     19  C   UNL     1      10.947  14.114  17.295  0.00  0.00    +0.000 A 
ATOM     20  C   UNL     1      10.566  12.795  17.519  0.00  0.00    +0.000 A 
BRANCH  18  21
ATOM     21  O   UNL     1      11.518  16.275  18.063  0.00  0.00    +0.000 OA
ATOM     22  H   UNL     1      11.675  16.332  17.105  0.00  0.00    +0.000 HD
ENDBRANCH  18  21
BRANCH  19  23
ATOM     23  O   UNL     1      11.117  14.553  16.012  0.00  0.00    +0.000 OA
ATOM     24  H   UNL     1      10.376  15.173  15.864  0.00  0.00    +0.000 HD
ENDBRANCH  19  23
ENDBRANCH  14  15
ENDBRANCH   2  13
TORSDOF 6
ENDMDL
MODEL 6
REMARK VINA RESULT:      -8.0      0.834      1.466
REMARK  Name = 
REMARK  6 active torsions:
REMARK  status: ('A' for Active; 'I' for Inactive)
REMARK    1  A    between atoms: C_2  and  C_3
REMARK    2  A    between atoms: C_4  and  C_5
REMARK    3  A    between atoms: C_6  and  C_7
REMARK    4  A    between atoms: C_8  and  C_9
REMARK    5  A    between atoms: C_12  and  O_13
REMARK    6  A    between atoms: C_14  and  O_15
REMARK                            x       y       z     vdW  Elec       q    Type
REMARK                         _______ _______ _______ _____ _____    ______ ____
ROOT
ATOM      1  C   UNL     1       6.423   7.437  17.360  0.00  0.00    +0.000 C 
ATOM      2  C   UNL     1       7.631   7.302  17.930  0.00  0.00    +0.000 C 
ENDROOT
BRANCH   1   4
ATOM      3  C   UNL     1       4.905   5.651  18.058  0.00  0.00    +0.000 C 
ATOM      4  C   UNL     1       5.547   6.318  17.091  0.00  0.00    +0.000 C 
BRANCH   3   6
ATOM      5  O   UNL     1       4.570   3.652  16.877  0.00  0.00    +0.000 OA
ATOM      6  C   UNL     1       4.125   4.443  17.703  0.00  0.00    +0.000 C 
ATOM      7  N   UNL     1       2.907   4.308  18.353  0.00  0.00    +0.000 N 
ATOM      8  C   UNL     1       2.362   5.252  19.329  0.00  0.00    +0.000 C 
ATOM      9  C   UNL     1       1.759   4.536  20.536  0.00  0.00    +0.000 C 
ATOM     10  C   UNL     1       0.790   3.430  20.127  0.00  0.00    +0.000 C 
ATOM     11  C   UNL     1       1.419   2.491  19.101  0.00  0.00    +0.000 C 
ATOM     12  C   UNL     1       1.986   3.263  17.914  0.00  0.00    +0.000 C 
ENDBRANCH   3   6
ENDBRANCH   1   4
BRANCH   2  13
ATOM     13  C   UNL     1       8.488   8.434  18.217  0.00  0.00    +0.000 C 
ATOM     14  C   UNL     1       8.137   9.710  17.972  0.00  0.00    +0.000 C 
BRANCH  14  15
ATOM     15  C   UNL     1       8.986  10.877  18.273  0.00  0.00    +0.000 A 
ATOM     16  C   UNL     1       8.761  12.142  17.699  0.00  0.00    +0.000 A 
ATOM     17  C   UNL     1       9.582  13.235  18.002  0.00  0.00    +0.000 A 
ATOM     18  C   UNL     1      10.627  13.067  18.899  0.00  0.00    +0.000 A 
ATOM     19  C   UNL     1      10.844  11.828  19.494  0.00  0.00    +0.000 A 
ATOM     20  C   UNL     1      10.034  10.738  19.195  0.00  0.00    +0.000 A 
BRANCH  18  21
ATOM     21  O   UNL     1      11.467  14.092  19.232  0.00  0.00    +0.000 OA
ATOM     22  H   UNL     1      11.432  14.755  18.522  0.00  0.00    +0.000 HD
ENDBRANCH  18  21
BRANCH  19  23
ATOM     23  O   UNL     1      11.870  11.676  20.384  0.00  0.00    +0.000 OA
ATOM     24  H   UNL     1      11.429  11.576  21.252  0.00  0.00    +0.000 HD
ENDBRANCH  19  23
ENDBRANCH  14  15
ENDBRANCH   2  13
TORSDOF 6
ENDMDL
MODEL 7
REMARK VINA RESULT:      -7.9      1.846      2.762
REMARK  Name = 
REMARK  6 active torsions:
REMARK  status: ('A' for Active; 'I' for Inactive)
REMARK    1  A    between atoms: C_2  and  C_3
REMARK    2  A    between atoms: C_4  and  C_5
REMARK    3  A    between atoms: C_6  and  C_7
REMARK    4  A    between atoms: C_8  and  C_9
REMARK    5  A    between atoms: C_12  and  O_13
REMARK    6  A    between atoms: C_14  and  O_15
REMARK                            x       y       z     vdW  Elec       q    Type
REMARK                         _______ _______ _______ _____ _____    ______ ____
ROOT
ATOM      1  C   UNL     1       8.215   8.639  17.734  0.00  0.00    +0.000 C 
ATOM      2  C   UNL     1       8.713   9.477  18.656  0.00  0.00    +0.000 C 
ENDROOT
BRANCH   1   4
ATOM      3  C   UNL     1       6.921   6.606  17.314  0.00  0.00    +0.000 C 
ATOM      4  C   UNL     1       7.832   7.276  18.031  0.00  0.00    +0.000 C 
BRANCH   3   6
ATOM      5  O   UNL     1       7.350   4.444  18.116  0.00  0.00    +0.000 OA
ATOM      6  C   UNL     1       6.504   5.258  17.762  0.00  0.00    +0.000 C 
ATOM      7  N   UNL     1       5.137   5.018  17.737  0.00  0.00    +0.000 N 
ATOM      8  C   UNL     1       4.120   5.977  17.304  0.00  0.00    +0.000 C 
ATOM      9  C   UNL     1       2.917   5.991  18.245  0.00  0.00    +0.000 C 
ATOM     10  C   UNL     1       2.379   4.589  18.516  0.00  0.00    +0.000 C 
ATOM     11  C   UNL     1       3.494   3.640  18.950  0.00  0.00    +0.000 C 
ATOM     12  C   UNL     1       4.656   3.658  17.963  0.00  0.00    +0.000 C 
ENDBRANCH   3   6
ENDBRANCH   1   4
BRANCH   2  13
ATOM     13  C   UNL     1       9.069  10.848  18.352  0.00  0.00    +0.000 C 
ATOM     14  C   UNL     1      10.334  11.256  18.144  0.00  0.00    +0.000 C 
BRANCH  14  15
ATOM     15  C   UNL     1      10.717  12.641  17.815  0.00  0.00    +0.000 A 
ATOM     16  C   UNL     1      11.989  12.975  17.314  0.00  0.00    +0.000 A 
ATOM     17  C   UNL     1      12.326  14.299  17.009  0.00  0.00    +0.000 A 
ATOM     18  C   UNL     1      11.380  15.297  17.190  0.00  0.00    +0.000 A 
ATOM     19  C   UNL     1      10.109  14.977  17.659  0.00  0.00    +0.000 A 
ATOM     20  C   UNL     1       9.769  13.664  17.967  0.00  0.00    +0.000 A 
BRANCH  18  21
ATOM     21  O   UNL     1      11.649  16.608  16.916  0.00  0.00    +0.000 OA
ATOM     22  H   UNL     1      11.033  16.904  16.224  0.00  0.00    +0.000 HD
ENDBRANCH  18  21
BRANCH  19  23
ATOM     23  O   UNL     1       9.181  15.966  17.824  0.00  0.00    +0.000 OA
ATOM     24  H   UNL     1       8.489  15.563  18.385  0.00  0.00    +0.000 HD
ENDBRANCH  19  23
ENDBRANCH  14  15
ENDBRANCH   2  13
TORSDOF 6
ENDMDL
MODEL 8
REMARK VINA RESULT:      -7.8      1.906      3.052
REMARK  Name = 
REMARK  6 active torsions:
REMARK  status: ('A' for Active; 'I' for Inactive)
REMARK    1  A    between atoms: C_2  and  C_3
REMARK    2  A    between atoms: C_4  and  C_5
REMARK    3  A    between atoms: C_6  and  C_7
REMARK    4  A    between atoms: C_8  and  C_9
REMARK    5  A    between atoms: C_12  and  O_13
REMARK    6  A    between atoms: C_14  and  O_15
REMARK                            x       y       z     vdW  Elec       q    Type
REMARK                         _______ _______ _______ _____ _____    ______ ____
ROOT
ATOM      1  C   UNL     1       8.439   9.155  17.869  0.00  0.00    +0.000 C 
ATOM      2  C   UNL     1       9.075   9.964  18.731  0.00  0.00    +0.000 C 
ENDROOT
BRANCH   1   4
ATOM      3  C   UNL     1       7.399   7.002  17.352  0.00  0.00    +0.000 C 
ATOM      4  C   UNL     1       7.917   7.858  18.242  0.00  0.00    +0.000 C 
BRANCH   3   6
ATOM      5  O   UNL     1       7.485   4.867  18.319  0.00  0.00    +0.000 OA
ATOM      6  C   UNL     1       6.780   5.748  17.838  0.00  0.00    +0.000 C 
ATOM      7  N   UNL     1       5.402   5.670  17.697  0.00  0.00    +0.000 N 
ATOM      8  C   UNL     1       4.553   6.710  17.113  0.00  0.00    +0.000 C 
ATOM      9  C   UNL     1       3.284   6.933  17.932  0.00  0.00    +0.000 C 
ATOM     10  C   UNL     1       2.554   5.627  18.233  0.00  0.00    +0.000 C 
ATOM     11  C   UNL     1       3.499   4.586  18.828  0.00  0.00    +0.000 C 
ATOM     12  C   UNL     1       4.737   4.396  17.956  0.00  0.00    +0.000 C 
ENDBRANCH   3   6
ENDBRANCH   1   4
BRANCH   2  13
ATOM     13  C   UNL     1       9.570  11.272  18.352  0.00  0.00    +0.000 C 
ATOM     14  C   UNL     1      10.362  12.021  19.141  0.00  0.00    +0.000 C 
BRANCH  14  15
ATOM     15  C   UNL     1      10.892  13.345  18.767  0.00  0.00    +0.000 A 
ATOM     16  C   UNL     1      11.698  14.107  19.633  0.00  0.00    +0.000 A 
ATOM     17  C   UNL     1      12.189  15.362  19.253  0.00  0.00    +0.000 A 
ATOM     18  C   UNL     1      11.887  15.853  17.992  0.00  0.00    +0.000 A 
ATOM     19  C   UNL     1      11.114  15.097  17.115  0.00  0.00    +0.000 A 
ATOM     20  C   UNL     1      10.620  13.851  17.488  0.00  0.00    +0.000 A 
BRANCH  18  21
ATOM     21  O   UNL     1      12.331  17.072  17.563  0.00  0.00    +0.000 OA
ATOM     22  H   UNL     1      13.229  17.206  17.912  0.00  0.00    +0.000 HD
ENDBRANCH  18  21
BRANCH  19  23
ATOM     23  O   UNL     1      10.831  15.585  15.870  0.00  0.00    +0.000 OA
ATOM     24  H   UNL     1      11.336  16.420  15.813  0.00  0.00    +0.000 HD
ENDBRANCH  19  23
ENDBRANCH  14  15
ENDBRANCH   2  13
TORSDOF 6
ENDMDL
MODEL 9
REMARK VINA RESULT:      -7.8      1.712      2.337
REMARK  Name = 
REMARK  6 active torsions:
REMARK  status: ('A' for Active; 'I' for Inactive)
REMARK    1  A    between atoms: C_2  and  C_3
REMARK    2  A    between atoms: C_4  and  C_5
REMARK    3  A    between atoms: C_6  and  C_7
REMARK    4  A    between atoms: C_8  and  C_9
REMARK    5  A    between atoms: C_12  and  O_13
REMARK    6  A    between atoms: C_14  and  O_15
REMARK                            x       y       z     vdW  Elec       q    Type
REMARK                         _______ _______ _______ _____ _____    ______ ____
ROOT
ATOM      1  C   UNL     1       8.494   8.213  18.419  0.00  0.00    +0.000 C 
ATOM      2  C   UNL     1       7.902   9.355  18.035  0.00  0.00    +0.000 C 
ENDROOT
BRANCH   1   4
ATOM      3  C   UNL     1       7.310   6.536  17.090  0.00  0.00    +0.000 C 
ATOM      4  C   UNL     1       7.892   6.911  18.235  0.00  0.00    +0.000 C 
BRANCH   3   6
ATOM      5  O   UNL     1       7.266   4.195  16.957  0.00  0.00    +0.000 OA
ATOM      6  C   UNL     1       6.613   5.231  17.030  0.00  0.00    +0.000 C 
ATOM      7  N   UNL     1       5.228   5.293  17.057  0.00  0.00    +0.000 N 
ATOM      8  C   UNL     1       4.439   6.524  17.132  0.00  0.00    +0.000 C 
ATOM      9  C   UNL     1       3.287   6.401  18.126  0.00  0.00    +0.000 C 
ATOM     10  C   UNL     1       2.458   5.140  17.896  0.00  0.00    +0.000 C 
ATOM     11  C   UNL     1       3.343   3.899  17.817  0.00  0.00    +0.000 C 
ATOM     12  C   UNL     1       4.462   4.077  16.797  0.00  0.00    +0.000 C 
ENDBRANCH   3   6
ENDBRANCH   1   4
BRANCH   2  13
ATOM     13  C   UNL     1       8.527  10.651  18.202  0.00  0.00    +0.000 C 
ATOM     14  C   UNL     1       9.857  10.846  18.136  0.00  0.00    +0.000 C 
BRANCH  14  15
ATOM     15  C   UNL     1      10.512  12.159  18.285  0.00  0.00    +0.000 A 
ATOM     16  C   UNL     1      11.192  12.535  19.458  0.00  0.00    +0.000 A 
ATOM     17  C   UNL     1      11.807  13.788  19.572  0.00  0.00    +0.000 A 
ATOM     18  C   UNL     1      11.756  14.666  18.500  0.00  0.00    +0.000 A 
ATOM     19  C   UNL     1      11.110  14.296  17.324  0.00  0.00    +0.000 A 
ATOM     20  C   UNL     1      10.495  13.054  17.205  0.00  0.00    +0.000 A 
BRANCH  18  21
ATOM     21  O   UNL     1      12.331  15.905  18.551  0.00  0.00    +0.000 OA
ATOM     22  H   UNL     1      12.726  16.019  19.432  0.00  0.00    +0.000 HD
ENDBRANCH  18  21
BRANCH  19  23
ATOM     23  O   UNL     1      11.075  15.165  16.270  0.00  0.00    +0.000 OA
ATOM     24  H   UNL     1      11.731  14.810  15.637  0.00  0.00    +0.000 HD
ENDBRANCH  19  23
ENDBRANCH  14  15
ENDBRANCH   2  13
TORSDOF 6
ENDMDL
