MODEL 1
REMARK VINA RESULT:      -6.2      0.000      0.000
REMARK  Name = 
REMARK  4 active torsions:
REMARK  status: ('A' for Active; 'I' for Inactive)
REMARK    1  A    between atoms: C_1  and  N_2
REMARK    2  A    between atoms: C_5  and  C_6
REMARK    3  A    between atoms: C_19  and  C_21
REMARK    4  A    between atoms: C_21  and  N_22
REMARK                            x       y       z     vdW  Elec       q    Type
REMARK                         _______ _______ _______ _____ _____    ______ ____
ROOT
ATOM      1  C   UNL     1       8.869  14.604  19.108  0.00  0.00    +0.000 A 
ATOM      2  C   UNL     1       9.708  14.373  17.993  0.00  0.00    +0.000 A 
ATOM      3  C   UNL     1      10.745  13.415  18.040  0.00  0.00    +0.000 A 
ATOM      4 CL   UNL     1      11.787  13.228  16.633  0.00  0.00    +0.000 Cl
ATOM      5  C   UNL     1      10.939  12.629  19.192  0.00  0.00    +0.000 A 
ATOM      6 CL   UNL     1      12.212  11.414  19.274  0.00  0.00    +0.000 Cl
ATOM      7  C   UNL     1      10.081  12.835  20.275  0.00  0.00    +0.000 A 
ATOM      8  N   UNL     1      10.068  12.151  21.439  0.00  0.00    +0.000 N 
ATOM      9  C   UNL     1       9.066  12.683  22.169  0.00  0.00    +0.000 A 
ATOM     10  C   UNL     1       8.443  13.703  21.482  0.00  0.00    +0.000 A 
ATOM     11  C   UNL     1       9.092  13.802  20.250  0.00  0.00    +0.000 A 
ATOM     12  C   UNL     1       7.266  14.449  22.031  0.00  0.00    +0.000 C 
ATOM     13  N   UNL     1       6.823  13.907  23.312  0.00  0.00    +0.000 N 
ATOM     14  C   UNL     1       5.507  14.015  23.701  0.00  0.00    +0.000 C 
ATOM     15  O   UNL     1       5.160  13.614  24.803  0.00  0.00    +0.000 OA
ATOM     16  C   UNL     1       7.854  13.380  24.208  0.00  0.00    +0.000 C 
ATOM     17  C   UNL     1       8.625  12.236  23.529  0.00  0.00    +0.000 C 
ATOM     18  H   UNL     1      10.691  11.362  21.721  0.00  0.00    +0.000 HD
ENDROOT
BRANCH   1  23
ATOM     19  C   UNL     1       4.422  16.553  18.388  0.00  0.00    +0.000 C 
ATOM     20  N   UNL     1       5.837  16.489  18.715  0.00  0.00    +0.000 N 
ATOM     21  C   UNL     1       6.650  17.510  19.050  0.00  0.00    +0.000 A 
ATOM     22  C   UNL     1       7.918  16.998  19.266  0.00  0.00    +0.000 A 
ATOM     23  C   UNL     1       7.802  15.637  19.033  0.00  0.00    +0.000 A 
ATOM     24  N   UNL     1       6.529  15.369  18.712  0.00  0.00    +0.000 NA
ENDBRANCH   1  23
BRANCH  14  25
ATOM     25  C   UNL     1       4.463  14.663  22.801  0.00  0.00    +0.000 C 
BRANCH  25  26
ATOM     26  N   UNL     1       3.802  13.692  21.935  0.00  0.00    +0.000 NA
ATOM     27  H   UNL     1       3.479  12.886  22.515  0.00  0.00    +0.000 HD
ATOM     28  H   UNL     1       4.510  13.328  21.256  0.00  0.00    +0.000 HD
ENDBRANCH  25  26
ENDBRANCH  14  25
TORSDOF 3
ENDMDL
MODEL 2
REMARK VINA RESULT:      -6.1      9.642     12.042
REMARK  Name = 
REMARK  4 active torsions:
REMARK  status: ('A' for Active; 'I' for Inactive)
REMARK    1  A    between atoms: C_1  and  N_2
REMARK    2  A    between atoms: C_5  and  C_6
REMARK    3  A    between atoms: C_19  and  C_21
REMARK    4  A    between atoms: C_21  and  N_22
REMARK                            x       y       z     vdW  Elec       q    Type
REMARK                         _______ _______ _______ _____ _____    ______ ____
ROOT
ATOM      1  C   UNL     1      -1.426  11.860  18.555  0.00  0.00    +0.000 A 
ATOM      2  C   UNL     1      -0.023  12.034  18.542  0.00  0.00    +0.000 A 
ATOM      3  C   UNL     1       0.620  12.887  19.466  0.00  0.00    +0.000 A 
ATOM      4 CL   UNL     1       2.363  13.101  19.347  0.00  0.00    +0.000 Cl
ATOM      5  C   UNL     1      -0.124  13.554  20.459  0.00  0.00    +0.000 A 
ATOM      6 CL   UNL     1       0.652  14.610  21.637  0.00  0.00    +0.000 Cl
ATOM      7  C   UNL     1      -1.505  13.345  20.491  0.00  0.00    +0.000 A 
ATOM      8  N   UNL     1      -2.378  13.844  21.392  0.00  0.00    +0.000 N 
ATOM      9  C   UNL     1      -3.588  13.365  21.038  0.00  0.00    +0.000 A 
ATOM     10  C   UNL     1      -3.494  12.568  19.917  0.00  0.00    +0.000 A 
ATOM     11  C   UNL     1      -2.145  12.545  19.562  0.00  0.00    +0.000 A 
ATOM     12  C   UNL     1      -4.675  11.864  19.321  0.00  0.00    +0.000 C 
ATOM     13  N   UNL     1      -5.884  12.055  20.115  0.00  0.00    +0.000 N 
ATOM     14  C   UNL     1      -6.880  11.104  20.117  0.00  0.00    +0.000 C 
ATOM     15  O   UNL     1      -7.916  11.304  20.735  0.00  0.00    +0.000 OA
ATOM     16  C   UNL     1      -6.047  13.347  20.785  0.00  0.00    +0.000 C 
ATOM     17  C   UNL     1      -4.882  13.603  21.754  0.00  0.00    +0.000 C 
ATOM     18  H   UNL     1      -2.169  14.463  22.206  0.00  0.00    +0.000 HD
ENDROOT
BRANCH   1  23
ATOM     19  C   UNL     1      -3.355  10.423  14.275  0.00  0.00    +0.000 C 
ATOM     20  N   UNL     1      -2.921  10.346  15.661  0.00  0.00    +0.000 N 
ATOM     21  C   UNL     1      -3.049   9.303  16.505  0.00  0.00    +0.000 A 
ATOM     22  C   UNL     1      -2.511   9.670  17.727  0.00  0.00    +0.000 A 
ATOM     23  C   UNL     1      -2.074  10.973  17.552  0.00  0.00    +0.000 A 
ATOM     24  N   UNL     1      -2.331  11.341  16.290  0.00  0.00    +0.000 NA
ENDBRANCH   1  23
BRANCH  14  25
ATOM     25  C   UNL     1      -6.742   9.809  19.328  0.00  0.00    +0.000 C 
BRANCH  25  26
ATOM     26  N   UNL     1      -7.684   8.789  19.774  0.00  0.00    +0.000 NA
ATOM     27  H   UNL     1      -7.148   7.977  20.156  0.00  0.00    +0.000 HD
ATOM     28  H   UNL     1      -8.216   8.450  18.939  0.00  0.00    +0.000 HD
ENDBRANCH  25  26
ENDBRANCH  14  25
TORSDOF 3
ENDMDL
MODEL 3
REMARK VINA RESULT:      -6.1      3.509      5.507
REMARK  Name = 
REMARK  4 active torsions:
REMARK  status: ('A' for Active; 'I' for Inactive)
REMARK    1  A    between atoms: C_1  and  N_2
REMARK    2  A    between atoms: C_5  and  C_6
REMARK    3  A    between atoms: C_19  and  C_21
REMARK    4  A    between atoms: C_21  and  N_22
REMARK                            x       y       z     vdW  Elec       q    Type
REMARK                         _______ _______ _______ _____ _____    ______ ____
ROOT
ATOM      1  C   UNL     1       6.744  14.497  21.748  0.00  0.00    +0.000 A 
ATOM      2  C   UNL     1       6.060  14.582  22.983  0.00  0.00    +0.000 A 
ATOM      3  C   UNL     1       6.450  13.801  24.093  0.00  0.00    +0.000 A 
ATOM      4 CL   UNL     1       5.512  13.915  25.578  0.00  0.00    +0.000 Cl
ATOM      5  C   UNL     1       7.567  12.946  24.008  0.00  0.00    +0.000 A 
ATOM      6 CL   UNL     1       8.088  11.973  25.382  0.00  0.00    +0.000 Cl
ATOM      7  C   UNL     1       8.262  12.898  22.797  0.00  0.00    +0.000 A 
ATOM      8  N   UNL     1       9.381  12.191  22.534  0.00  0.00    +0.000 N 
ATOM      9  C   UNL     1       9.698  12.465  21.252  0.00  0.00    +0.000 A 
ATOM     10  C   UNL     1       8.787  13.338  20.695  0.00  0.00    +0.000 A 
ATOM     11  C   UNL     1       7.858  13.628  21.694  0.00  0.00    +0.000 A 
ATOM     12  C   UNL     1       8.911  13.853  19.293  0.00  0.00    +0.000 C 
ATOM     13  N   UNL     1      10.137  13.393  18.647  0.00  0.00    +0.000 N 
ATOM     14  C   UNL     1      10.735  14.145  17.661  0.00  0.00    +0.000 C 
ATOM     15  O   UNL     1      11.725  13.720  17.083  0.00  0.00    +0.000 OA
ATOM     16  C   UNL     1      10.613  12.052  18.992  0.00  0.00    +0.000 C 
ATOM     17  C   UNL     1      10.887  11.949  20.502  0.00  0.00    +0.000 C 
ATOM     18  H   UNL     1       9.908  11.568  23.185  0.00  0.00    +0.000 HD
ENDROOT
BRANCH   1  23
ATOM     19  C   UNL     1       4.227  15.748  17.723  0.00  0.00    +0.000 C 
ATOM     20  N   UNL     1       5.177  15.861  18.819  0.00  0.00    +0.000 N 
ATOM     21  C   UNL     1       6.026  16.878  19.066  0.00  0.00    +0.000 A 
ATOM     22  C   UNL     1       6.754  16.563  20.200  0.00  0.00    +0.000 A 
ATOM     23  C   UNL     1       6.292  15.316  20.592  0.00  0.00    +0.000 A 
ATOM     24  N   UNL     1       5.335  14.932  19.737  0.00  0.00    +0.000 NA
ENDBRANCH   1  23
BRANCH  14  25
ATOM     25  C   UNL     1      10.167  15.493  17.237  0.00  0.00    +0.000 C 
BRANCH  25  26
ATOM     26  N   UNL     1      10.767  15.980  16.000  0.00  0.00    +0.000 NA
ATOM     27  H   UNL     1      11.528  15.325  15.712  0.00  0.00    +0.000 HD
ATOM     28  H   UNL     1      11.208  16.909  16.195  0.00  0.00    +0.000 HD
ENDBRANCH  25  26
ENDBRANCH  14  25
TORSDOF 3
ENDMDL
MODEL 4
REMARK VINA RESULT:      -6.0      9.066     11.930
REMARK  Name = 
REMARK  4 active torsions:
REMARK  status: ('A' for Active; 'I' for Inactive)
REMARK    1  A    between atoms: C_1  and  N_2
REMARK    2  A    between atoms: C_5  and  C_6
REMARK    3  A    between atoms: C_19  and  C_21
REMARK    4  A    between atoms: C_21  and  N_22
REMARK                            x       y       z     vdW  Elec       q    Type
REMARK                         _______ _______ _______ _____ _____    ______ ____
ROOT
ATOM      1  C   UNL     1      -2.438  11.889  19.307  0.00  0.00    +0.000 A 
ATOM      2  C   UNL     1      -2.631  11.515  17.957  0.00  0.00    +0.000 A 
ATOM      3  C   UNL     1      -3.916  11.513  17.372  0.00  0.00    +0.000 A 
ATOM      4 CL   UNL     1      -4.084  10.975  15.704  0.00  0.00    +0.000 Cl
ATOM      5  C   UNL     1      -5.039  11.931  18.113  0.00  0.00    +0.000 A 
ATOM      6 CL   UNL     1      -6.652  11.956  17.404  0.00  0.00    +0.000 Cl
ATOM      7  C   UNL     1      -4.835  12.337  19.434  0.00  0.00    +0.000 A 
ATOM      8  N   UNL     1      -5.765  12.821  20.284  0.00  0.00    +0.000 N 
ATOM      9  C   UNL     1      -5.110  13.094  21.431  0.00  0.00    +0.000 A 
ATOM     10  C   UNL     1      -3.772  12.784  21.320  0.00  0.00    +0.000 A 
ATOM     11  C   UNL     1      -3.585  12.300  20.025  0.00  0.00    +0.000 A 
ATOM     12  C   UNL     1      -2.790  13.023  22.427  0.00  0.00    +0.000 C 
ATOM     13  N   UNL     1      -3.404  13.692  23.569  0.00  0.00    +0.000 N 
ATOM     14  C   UNL     1      -2.655  14.498  24.396  0.00  0.00    +0.000 C 
ATOM     15  O   UNL     1      -3.166  15.002  25.387  0.00  0.00    +0.000 OA
ATOM     16  C   UNL     1      -4.798  13.358  23.869  0.00  0.00    +0.000 C 
ATOM     17  C   UNL     1      -5.703  13.689  22.671  0.00  0.00    +0.000 C 
ATOM     18  H   UNL     1      -6.782  12.970  20.098  0.00  0.00    +0.000 HD
ENDROOT
BRANCH   1  23
ATOM     19  C   UNL     1       2.052  13.432  20.555  0.00  0.00    +0.000 C 
ATOM     20  N   UNL     1       0.903  12.546  20.448  0.00  0.00    +0.000 N 
ATOM     21  C   UNL     1       0.796  11.282  20.902  0.00  0.00    +0.000 A 
ATOM     22  C   UNL     1      -0.462  10.811  20.571  0.00  0.00    +0.000 A 
ATOM     23  C   UNL     1      -1.075  11.858  19.899  0.00  0.00    +0.000 A 
ATOM     24  N   UNL     1      -0.220  12.889  19.854  0.00  0.00    +0.000 NA
ENDBRANCH   1  23
BRANCH  14  25
ATOM     25  C   UNL     1      -1.178  14.752  24.131  0.00  0.00    +0.000 C 
BRANCH  25  26
ATOM     26  N   UNL     1      -0.563  15.570  25.171  0.00  0.00    +0.000 NA
ATOM     27  H   UNL     1      -1.019  15.353  26.086  0.00  0.00    +0.000 HD
ATOM     28  H   UNL     1      -0.758  16.575  24.952  0.00  0.00    +0.000 HD
ENDBRANCH  25  26
ENDBRANCH  14  25
TORSDOF 3
ENDMDL
MODEL 5
REMARK VINA RESULT:      -5.9      8.460     11.249
REMARK  Name = 
REMARK  4 active torsions:
REMARK  status: ('A' for Active; 'I' for Inactive)
REMARK    1  A    between atoms: C_1  and  N_2
REMARK    2  A    between atoms: C_5  and  C_6
REMARK    3  A    between atoms: C_19  and  C_21
REMARK    4  A    between atoms: C_21  and  N_22
REMARK                            x       y       z     vdW  Elec       q    Type
REMARK                         _______ _______ _______ _____ _____    ______ ____
ROOT
ATOM      1  C   UNL     1      -0.926  13.226  21.100  0.00  0.00    +0.000 A 
ATOM      2  C   UNL     1       0.407  13.573  21.416  0.00  0.00    +0.000 A 
ATOM      3  C   UNL     1       1.473  13.269  20.540  0.00  0.00    +0.000 A 
ATOM      4 CL   UNL     1       3.113  13.677  21.031  0.00  0.00    +0.000 Cl
ATOM      5  C   UNL     1       1.223  12.648  19.301  0.00  0.00    +0.000 A 
ATOM      6 CL   UNL     1       2.529  12.273  18.179  0.00  0.00    +0.000 Cl
ATOM      7  C   UNL     1      -0.102  12.345  18.978  0.00  0.00    +0.000 A 
ATOM      8  N   UNL     1      -0.551  11.805  17.825  0.00  0.00    +0.000 N 
ATOM      9  C   UNL     1      -1.890  11.710  17.957  0.00  0.00    +0.000 A 
ATOM     10  C   UNL     1      -2.297  12.182  19.187  0.00  0.00    +0.000 A 
ATOM     11  C   UNL     1      -1.144  12.601  19.851  0.00  0.00    +0.000 A 
ATOM     12  C   UNL     1      -3.737  12.238  19.596  0.00  0.00    +0.000 C 
ATOM     13  N   UNL     1      -4.630  11.827  18.517  0.00  0.00    +0.000 N 
ATOM     14  C   UNL     1      -5.912  12.322  18.440  0.00  0.00    +0.000 C 
ATOM     15  O   UNL     1      -6.672  11.922  17.569  0.00  0.00    +0.000 OA
ATOM     16  C   UNL     1      -4.152  10.774  17.619  0.00  0.00    +0.000 C 
ATOM     17  C   UNL     1      -2.850  11.207  16.925  0.00  0.00    +0.000 C 
ATOM     18  H   UNL     1       0.013  11.527  16.990  0.00  0.00    +0.000 HD
ENDROOT
BRANCH   1  23
ATOM     19  C   UNL     1      -4.270  12.530  24.626  0.00  0.00    +0.000 C 
ATOM     20  N   UNL     1      -3.492  13.225  23.613  0.00  0.00    +0.000 N 
ATOM     21  C   UNL     1      -3.620  14.507  23.216  0.00  0.00    +0.000 A 
ATOM     22  C   UNL     1      -2.687  14.744  22.221  0.00  0.00    +0.000 A 
ATOM     23  C   UNL     1      -2.022  13.540  22.056  0.00  0.00    +0.000 A 
ATOM     24  N   UNL     1      -2.531  12.652  22.921  0.00  0.00    +0.000 NA
ENDBRANCH   1  23
BRANCH  14  25
ATOM     25  C   UNL     1      -6.432  13.340  19.447  0.00  0.00    +0.000 C 
BRANCH  25  26
ATOM     26  N   UNL     1      -6.188  14.713  19.019  0.00  0.00    +0.000 NA
ATOM     27  H   UNL     1      -5.825  15.261  19.831  0.00  0.00    +0.000 HD
ATOM     28  H   UNL     1      -7.104  15.134  18.739  0.00  0.00    +0.000 HD
ENDBRANCH  25  26
ENDBRANCH  14  25
TORSDOF 3
ENDMDL
MODEL 6
REMARK VINA RESULT:      -5.9      9.853     12.385
REMARK  Name = 
REMARK  4 active torsions:
REMARK  status: ('A' for Active; 'I' for Inactive)
REMARK    1  A    between atoms: C_1  and  N_2
REMARK    2  A    between atoms: C_5  and  C_6
REMARK    3  A    between atoms: C_19  and  C_21
REMARK    4  A    between atoms: C_21  and  N_22
REMARK                            x       y       z     vdW  Elec       q    Type
REMARK                         _______ _______ _______ _____ _____    ______ ____
ROOT
ATOM      1  C   UNL     1      -3.994  13.298  20.754  0.00  0.00    +0.000 A 
ATOM      2  C   UNL     1      -5.294  13.853  20.764  0.00  0.00    +0.000 A 
ATOM      3  C   UNL     1      -6.217  13.581  19.730  0.00  0.00    +0.000 A 
ATOM      4 CL   UNL     1      -7.795  14.359  19.780  0.00  0.00    +0.000 Cl
ATOM      5  C   UNL     1      -5.875  12.706  18.680  0.00  0.00    +0.000 A 
ATOM      6 CL   UNL     1      -7.011  12.333  17.386  0.00  0.00    +0.000 Cl
ATOM      7  C   UNL     1      -4.603  12.129  18.699  0.00  0.00    +0.000 A 
ATOM      8  N   UNL     1      -4.109  11.230  17.821  0.00  0.00    +0.000 N 
ATOM      9  C   UNL     1      -2.860  10.949  18.244  0.00  0.00    +0.000 A 
ATOM     10  C   UNL     1      -2.552  11.665  19.382  0.00  0.00    +0.000 A 
ATOM     11  C   UNL     1      -3.680  12.427  19.686  0.00  0.00    +0.000 A 
ATOM     12  C   UNL     1      -1.245  11.522  20.100  0.00  0.00    +0.000 C 
ATOM     13  N   UNL     1      -0.403  10.488  19.506  0.00  0.00    +0.000 N 
ATOM     14  C   UNL     1       0.511   9.802  20.272  0.00  0.00    +0.000 C 
ATOM     15  O   UNL     1       1.255   8.983  19.750  0.00  0.00    +0.000 OA
ATOM     16  C   UNL     1      -0.477  10.319  18.053  0.00  0.00    +0.000 C 
ATOM     17  C   UNL     1      -1.911   9.971  17.623  0.00  0.00    +0.000 C 
ATOM     18  H   UNL     1      -4.592  10.820  16.991  0.00  0.00    +0.000 HD
ENDROOT
BRANCH   1  23
ATOM     19  C   UNL     1      -0.410  15.635  23.161  0.00  0.00    +0.000 C 
ATOM     20  N   UNL     1      -1.459  14.661  22.902  0.00  0.00    +0.000 N 
ATOM     21  C   UNL     1      -1.854  13.649  23.699  0.00  0.00    +0.000 A 
ATOM     22  C   UNL     1      -2.871  12.966  23.054  0.00  0.00    +0.000 A 
ATOM     23  C   UNL     1      -3.039  13.624  21.847  0.00  0.00    +0.000 A 
ATOM     24  N   UNL     1      -2.174  14.647  21.798  0.00  0.00    +0.000 NA
ENDBRANCH   1  23
BRANCH  14  25
ATOM     25  C   UNL     1       0.651  10.064  21.765  0.00  0.00    +0.000 C 
BRANCH  25  26
ATOM     26  N   UNL     1       1.688   9.239  22.376  0.00  0.00    +0.000 NA
ATOM     27  H   UNL     1       1.240   8.406  22.820  0.00  0.00    +0.000 HD
ATOM     28  H   UNL     1       2.140   9.796  23.137  0.00  0.00    +0.000 HD
ENDBRANCH  25  26
ENDBRANCH  14  25
TORSDOF 3
ENDMDL
MODEL 7
REMARK VINA RESULT:      -5.8      9.731     12.129
REMARK  Name = 
REMARK  4 active torsions:
REMARK  status: ('A' for Active; 'I' for Inactive)
REMARK    1  A    between atoms: C_1  and  N_2
REMARK    2  A    between atoms: C_5  and  C_6
REMARK    3  A    between atoms: C_19  and  C_21
REMARK    4  A    between atoms: C_21  and  N_22
REMARK                            x       y       z     vdW  Elec       q    Type
REMARK                         _______ _______ _______ _____ _____    ______ ____
ROOT
ATOM      1  C   UNL     1      -4.220  11.839  18.800  0.00  0.00    +0.000 A 
ATOM      2  C   UNL     1      -4.100  11.044  17.637  0.00  0.00    +0.000 A 
ATOM      3  C   UNL     1      -2.862  10.479  17.258  0.00  0.00    +0.000 A 
ATOM      4 CL   UNL     1      -2.778   9.553  15.764  0.00  0.00    +0.000 Cl
ATOM      5  C   UNL     1      -1.720  10.659  18.062  0.00  0.00    +0.000 A 
ATOM      6 CL   UNL     1      -0.166   9.952  17.625  0.00  0.00    +0.000 Cl
ATOM      7  C   UNL     1      -1.855  11.412  19.231  0.00  0.00    +0.000 A 
ATOM      8  N   UNL     1      -0.901  11.651  20.155  0.00  0.00    +0.000 N 
ATOM      9  C   UNL     1      -1.489  12.404  21.108  0.00  0.00    +0.000 A 
ATOM     10  C   UNL     1      -2.809  12.650  20.796  0.00  0.00    +0.000 A 
ATOM     11  C   UNL     1      -3.055  12.004  19.584  0.00  0.00    +0.000 A 
ATOM     12  C   UNL     1      -3.723  13.425  21.695  0.00  0.00    +0.000 C 
ATOM     13  N   UNL     1      -3.074  13.795  22.949  0.00  0.00    +0.000 N 
ATOM     14  C   UNL     1      -3.814  13.969  24.096  0.00  0.00    +0.000 C 
ATOM     15  O   UNL     1      -3.268  14.341  25.126  0.00  0.00    +0.000 OA
ATOM     16  C   UNL     1      -1.644  14.103  22.896  0.00  0.00    +0.000 C 
ATOM     17  C   UNL     1      -0.851  12.896  22.370  0.00  0.00    +0.000 C 
ATOM     18  H   UNL     1       0.088  11.316  20.150  0.00  0.00    +0.000 HD
ENDROOT
BRANCH   1  23
ATOM     19  C   UNL     1      -7.823  15.165  19.053  0.00  0.00    +0.000 C 
ATOM     20  N   UNL     1      -7.118  13.910  19.262  0.00  0.00    +0.000 N 
ATOM     21  C   UNL     1      -7.540  12.839  19.964  0.00  0.00    +0.000 A 
ATOM     22  C   UNL     1      -6.549  11.874  19.913  0.00  0.00    +0.000 A 
ATOM     23  C   UNL     1      -5.534  12.439  19.157  0.00  0.00    +0.000 A 
ATOM     24  N   UNL     1      -5.920  13.664  18.777  0.00  0.00    +0.000 NA
ENDBRANCH   1  23
BRANCH  14  25
ATOM     25  C   UNL     1      -5.320  13.747  24.111  0.00  0.00    +0.000 C 
BRANCH  25  26
ATOM     26  N   UNL     1      -5.676  12.410  24.573  0.00  0.00    +0.000 NA
ATOM     27  H   UNL     1      -4.957  12.086  25.259  0.00  0.00    +0.000 HD
ATOM     28  H   UNL     1      -5.643  11.763  23.752  0.00  0.00    +0.000 HD
ENDBRANCH  25  26
ENDBRANCH  14  25
TORSDOF 3
ENDMDL
MODEL 8
REMARK VINA RESULT:      -5.8      8.626     11.416
REMARK  Name = 
REMARK  4 active torsions:
REMARK  status: ('A' for Active; 'I' for Inactive)
REMARK    1  A    between atoms: C_1  and  N_2
REMARK    2  A    between atoms: C_5  and  C_6
REMARK    3  A    between atoms: C_19  and  C_21
REMARK    4  A    between atoms: C_21  and  N_22
REMARK                            x       y       z     vdW  Elec       q    Type
REMARK                         _______ _______ _______ _____ _____    ______ ____
ROOT
ATOM      1  C   UNL     1      -1.045  13.013  21.197  0.00  0.00    +0.000 A 
ATOM      2  C   UNL     1       0.279  13.399  21.508  0.00  0.00    +0.000 A 
ATOM      3  C   UNL     1       1.327  13.251  20.573  0.00  0.00    +0.000 A 
ATOM      4 CL   UNL     1       2.960  13.697  21.055  0.00  0.00    +0.000 Cl
ATOM      5  C   UNL     1       1.066  12.753  19.281  0.00  0.00    +0.000 A 
ATOM      6 CL   UNL     1       2.348  12.574  18.087  0.00  0.00    +0.000 Cl
ATOM      7  C   UNL     1      -0.252  12.411  18.968  0.00  0.00    +0.000 A 
ATOM      8  N   UNL     1      -0.713  11.972  17.777  0.00  0.00    +0.000 N 
ATOM      9  C   UNL     1      -2.039  11.788  17.939  0.00  0.00    +0.000 A 
ATOM     10  C   UNL     1      -2.427  12.102  19.225  0.00  0.00    +0.000 A 
ATOM     11  C   UNL     1      -1.274  12.513  19.894  0.00  0.00    +0.000 A 
ATOM     12  C   UNL     1      -3.852  12.033  19.681  0.00  0.00    +0.000 C 
ATOM     13  N   UNL     1      -4.760  11.690  18.591  0.00  0.00    +0.000 N 
ATOM     14  C   UNL     1      -6.069  12.116  18.607  0.00  0.00    +0.000 C 
ATOM     15  O   UNL     1      -6.837  11.769  17.721  0.00  0.00    +0.000 OA
ATOM     16  C   UNL     1      -4.260  10.767  17.570  0.00  0.00    +0.000 C 
ATOM     17  C   UNL     1      -3.009  11.344  16.888  0.00  0.00    +0.000 C 
ATOM     18  H   UNL     1      -0.166  11.817  16.901  0.00  0.00    +0.000 HD
ENDROOT
BRANCH   1  23
ATOM     19  C   UNL     1      -4.636  15.123  23.795  0.00  0.00    +0.000 C 
ATOM     20  N   UNL     1      -3.704  14.097  23.353  0.00  0.00    +0.000 N 
ATOM     21  C   UNL     1      -3.548  12.858  23.859  0.00  0.00    +0.000 A 
ATOM     22  C   UNL     1      -2.542  12.227  23.147  0.00  0.00    +0.000 A 
ATOM     23  C   UNL     1      -2.120  13.161  22.214  0.00  0.00    +0.000 A 
ATOM     24  N   UNL     1      -2.852  14.272  22.366  0.00  0.00    +0.000 NA
ENDBRANCH   1  23
BRANCH  14  25
ATOM     25  C   UNL     1      -6.605  12.990  19.733  0.00  0.00    +0.000 C 
BRANCH  25  26
ATOM     26  N   UNL     1      -7.438  12.239  20.665  0.00  0.00    +0.000 NA
ATOM     27  H   UNL     1      -7.267  12.593  21.633  0.00  0.00    +0.000 HD
ATOM     28  H   UNL     1      -7.136  11.237  20.638  0.00  0.00    +0.000 HD
ENDBRANCH  25  26
ENDBRANCH  14  25
TORSDOF 3
ENDMDL
MODEL 9
REMARK VINA RESULT:      -5.8      9.161     12.086
REMARK  Name = 
REMARK  4 active torsions:
REMARK  status: ('A' for Active; 'I' for Inactive)
REMARK    1  A    between atoms: C_1  and  N_2
REMARK    2  A    between atoms: C_5  and  C_6
REMARK    3  A    between atoms: C_19  and  C_21
REMARK    4  A    between atoms: C_21  and  N_22
REMARK                            x       y       z     vdW  Elec       q    Type
REMARK                         _______ _______ _______ _____ _____    ______ ____
ROOT
ATOM      1  C   UNL     1      -2.506  11.776  19.322  0.00  0.00    +0.000 A 
ATOM      2  C   UNL     1      -2.669  11.386  17.973  0.00  0.00    +0.000 A 
ATOM      3  C   UNL     1      -3.922  11.481  17.328  0.00  0.00    +0.000 A 
ATOM      4 CL   UNL     1      -4.061  10.917  15.666  0.00  0.00    +0.000 Cl
ATOM      5  C   UNL     1      -5.035  12.015  18.005  0.00  0.00    +0.000 A 
ATOM      6 CL   UNL     1      -6.606  12.163  17.221  0.00  0.00    +0.000 Cl
ATOM      7  C   UNL     1      -4.856  12.436  19.325  0.00  0.00    +0.000 A 
ATOM      8  N   UNL     1      -5.778  13.021  20.120  0.00  0.00    +0.000 N 
ATOM      9  C   UNL     1      -5.154  13.265  21.291  0.00  0.00    +0.000 A 
ATOM     10  C   UNL     1      -3.844  12.836  21.250  0.00  0.00    +0.000 A 
ATOM     11  C   UNL     1      -3.643  12.305  19.976  0.00  0.00    +0.000 A 
ATOM     12  C   UNL     1      -2.896  13.017  22.396  0.00  0.00    +0.000 C 
ATOM     13  N   UNL     1      -3.500  13.766  23.493  0.00  0.00    +0.000 N 
ATOM     14  C   UNL     1      -2.721  14.524  24.338  0.00  0.00    +0.000 C 
ATOM     15  O   UNL     1      -3.230  15.097  25.291  0.00  0.00    +0.000 OA
ATOM     16  C   UNL     1      -4.930  13.564  23.734  0.00  0.00    +0.000 C 
ATOM     17  C   UNL     1      -5.746  13.942  22.488  0.00  0.00    +0.000 C 
ATOM     18  H   UNL     1      -6.768  13.253  19.882  0.00  0.00    +0.000 HD
ENDROOT
BRANCH   1  23
ATOM     19  C   UNL     1       1.151   9.739  21.888  0.00  0.00    +0.000 C 
ATOM     20  N   UNL     1       0.430  10.735  21.109  0.00  0.00    +0.000 N 
ATOM     21  C   UNL     1       0.846  11.972  20.774  0.00  0.00    +0.000 A 
ATOM     22  C   UNL     1      -0.161  12.579  20.043  0.00  0.00    +0.000 A 
ATOM     23  C   UNL     1      -1.178  11.641  19.979  0.00  0.00    +0.000 A 
ATOM     24  N   UNL     1      -0.778  10.538  20.627  0.00  0.00    +0.000 NA
ENDBRANCH   1  23
BRANCH  14  25
ATOM     25  C   UNL     1      -1.216  14.641  24.138  0.00  0.00    +0.000 C 
BRANCH  25  26
ATOM     26  N   UNL     1      -0.586  15.472  25.158  0.00  0.00    +0.000 NA
ATOM     27  H   UNL     1       0.448  15.467  25.008  0.00  0.00    +0.000 HD
ATOM     28  H   UNL     1      -0.771  15.035  26.092  0.00  0.00    +0.000 HD
ENDBRANCH  25  26
ENDBRANCH  14  25
TORSDOF 3
ENDMDL
