MODEL 1
REMARK VINA RESULT:      -7.1      0.000      0.000
REMARK  Name = 
REMARK  6 active torsions:
REMARK  status: ('A' for Active; 'I' for Inactive)
REMARK    1  A    between atoms: C_1  and  C_2
REMARK    2  A    between atoms: C_2  and  C_3
REMARK    3  A    between atoms: N_5  and  C_6
REMARK    4  A    between atoms: C_9  and  C_10
REMARK    5  A    between atoms: C_9  and  C_11
REMARK    6  A    between atoms: C_14  and  C_15
REMARK                            x       y       z     vdW  Elec       q    Type
REMARK                         _______ _______ _______ _____ _____    ______ ____
ROOT
ATOM      1  C   UNL     1       4.943   3.900  16.552  0.00  0.00    +0.000 C 
ATOM      2  C   UNL     1       3.922   4.709  17.332  0.00  0.00    +0.000 C 
ATOM      3  C   UNL     1       3.995   6.067  17.341  0.00  0.00    +0.000 C 
ATOM      4  C   UNL     1       4.994   6.860  16.525  0.00  0.00    +0.000 C 
ENDROOT
BRANCH   3   5
ATOM      5  C   UNL     1       3.119   6.971  18.113  0.00  0.00    +0.000 A 
ATOM      6  C   UNL     1       2.563   8.095  17.480  0.00  0.00    +0.000 A 
ATOM      7  C   UNL     1       1.728   8.962  18.189  0.00  0.00    +0.000 A 
ATOM      8  C   UNL     1       1.426   8.712  19.531  0.00  0.00    +0.000 A 
ATOM      9  C   UNL     1       0.482   9.602  20.286  0.00  0.00    +0.000 C 
ATOM     10  C   UNL     1       1.980   7.587  20.156  0.00  0.00    +0.000 A 
ATOM     11  C   UNL     1       2.826   6.723  19.453  0.00  0.00    +0.000 A 
ENDBRANCH   3   5
BRANCH   2  12
ATOM     12  C   UNL     1       2.877   3.819  17.980  0.00  0.00    +0.000 C 
ATOM     13  O   UNL     1       1.889   3.463  17.336  0.00  0.00    +0.000 OA
ATOM     14  N   UNL     1       3.087   3.405  19.269  0.00  0.00    +0.000 N 
ATOM     15  H   UNL     1       3.913   3.699  19.764  0.00  0.00    +0.000 HD
BRANCH  14  16
ATOM     16  C   UNL     1       2.149   2.609  19.996  0.00  0.00    +0.000 C 
ATOM     17  C   UNL     1       2.090   2.711  21.497  0.00  0.00    +0.000 C 
ATOM     18  C   UNL     1       0.961   3.244  20.664  0.00  0.00    +0.000 C 
ENDBRANCH  14  16
ENDBRANCH   2  12
TORSDOF 3
ENDMDL
MODEL 2
REMARK VINA RESULT:      -7.1      0.190      1.186
REMARK  Name = 
REMARK  6 active torsions:
REMARK  status: ('A' for Active; 'I' for Inactive)
REMARK    1  A    between atoms: C_1  and  C_2
REMARK    2  A    between atoms: C_2  and  C_3
REMARK    3  A    between atoms: N_5  and  C_6
REMARK    4  A    between atoms: C_9  and  C_10
REMARK    5  A    between atoms: C_9  and  C_11
REMARK    6  A    between atoms: C_14  and  C_15
REMARK                            x       y       z     vdW  Elec       q    Type
REMARK                         _______ _______ _______ _____ _____    ______ ____
ROOT
ATOM      1  C   UNL     1       4.866   3.945  16.706  0.00  0.00    +0.000 C 
ATOM      2  C   UNL     1       3.824   4.777  17.431  0.00  0.00    +0.000 C 
ATOM      3  C   UNL     1       3.935   6.133  17.453  0.00  0.00    +0.000 C 
ATOM      4  C   UNL     1       5.001   6.902  16.701  0.00  0.00    +0.000 C 
ENDROOT
BRANCH   3   5
ATOM      5  C   UNL     1       3.041   7.058  18.179  0.00  0.00    +0.000 A 
ATOM      6  C   UNL     1       2.688   6.771  19.508  0.00  0.00    +0.000 A 
ATOM      7  C   UNL     1       1.848   7.633  20.217  0.00  0.00    +0.000 A 
ATOM      8  C   UNL     1       1.362   8.797  19.614  0.00  0.00    +0.000 A 
ATOM      9  C   UNL     1       0.507   9.762  20.384  0.00  0.00    +0.000 C 
ATOM     10  C   UNL     1       1.720   9.080  18.289  0.00  0.00    +0.000 A 
ATOM     11  C   UNL     1       2.551   8.213  17.574  0.00  0.00    +0.000 A 
ENDBRANCH   3   5
BRANCH   2  12
ATOM     12  C   UNL     1       2.719   3.914  18.012  0.00  0.00    +0.000 C 
ATOM     13  O   UNL     1       1.688   3.721  17.368  0.00  0.00    +0.000 OA
ATOM     14  N   UNL     1       2.923   3.340  19.240  0.00  0.00    +0.000 N 
ATOM     15  H   UNL     1       3.784   3.504  19.735  0.00  0.00    +0.000 HD
BRANCH  14  16
ATOM     16  C   UNL     1       1.935   2.552  19.906  0.00  0.00    +0.000 C 
ATOM     17  C   UNL     1       1.914   2.498  21.411  0.00  0.00    +0.000 C 
ATOM     18  C   UNL     1       0.818   3.208  20.671  0.00  0.00    +0.000 C 
ENDBRANCH  14  16
ENDBRANCH   2  12
TORSDOF 3
ENDMDL
MODEL 3
REMARK VINA RESULT:      -6.8      1.929      4.046
REMARK  Name = 
REMARK  6 active torsions:
REMARK  status: ('A' for Active; 'I' for Inactive)
REMARK    1  A    between atoms: C_1  and  C_2
REMARK    2  A    between atoms: C_2  and  C_3
REMARK    3  A    between atoms: N_5  and  C_6
REMARK    4  A    between atoms: C_9  and  C_10
REMARK    5  A    between atoms: C_9  and  C_11
REMARK    6  A    between atoms: C_14  and  C_15
REMARK                            x       y       z     vdW  Elec       q    Type
REMARK                         _______ _______ _______ _____ _____    ______ ____
ROOT
ATOM      1  C   UNL     1       4.154   2.076  19.648  0.00  0.00    +0.000 C 
ATOM      2  C   UNL     1       4.011   3.538  19.266  0.00  0.00    +0.000 C 
ATOM      3  C   UNL     1       2.931   4.247  19.688  0.00  0.00    +0.000 C 
ATOM      4  C   UNL     1       1.876   3.695  20.624  0.00  0.00    +0.000 C 
ENDROOT
BRANCH   3   5
ATOM      5  C   UNL     1       2.627   5.648  19.332  0.00  0.00    +0.000 A 
ATOM      6  C   UNL     1       2.782   6.067  18.000  0.00  0.00    +0.000 A 
ATOM      7  C   UNL     1       2.498   7.386  17.638  0.00  0.00    +0.000 A 
ATOM      8  C   UNL     1       2.041   8.298  18.595  0.00  0.00    +0.000 A 
ATOM      9  C   UNL     1       1.674   9.701  18.206  0.00  0.00    +0.000 C 
ATOM     10  C   UNL     1       1.884   7.873  19.921  0.00  0.00    +0.000 A 
ATOM     11  C   UNL     1       2.180   6.557  20.289  0.00  0.00    +0.000 A 
ENDBRANCH   3   5
BRANCH   2  12
ATOM     12  C   UNL     1       5.202   4.028  18.461  0.00  0.00    +0.000 C 
ATOM     13  O   UNL     1       6.138   4.587  19.031  0.00  0.00    +0.000 OA
ATOM     14  N   UNL     1       5.211   3.795  17.111  0.00  0.00    +0.000 N 
ATOM     15  H   UNL     1       4.437   3.321  16.676  0.00  0.00    +0.000 HD
BRANCH  14  16
ATOM     16  C   UNL     1       6.253   4.255  16.248  0.00  0.00    +0.000 C 
ATOM     17  C   UNL     1       6.202   3.931  14.778  0.00  0.00    +0.000 C 
ATOM     18  C   UNL     1       5.992   5.342  15.242  0.00  0.00    +0.000 C 
ENDBRANCH  14  16
ENDBRANCH   2  12
TORSDOF 3
ENDMDL
MODEL 4
REMARK VINA RESULT:      -6.8      1.871      4.111
REMARK  Name = 
REMARK  6 active torsions:
REMARK  status: ('A' for Active; 'I' for Inactive)
REMARK    1  A    between atoms: C_1  and  C_2
REMARK    2  A    between atoms: C_2  and  C_3
REMARK    3  A    between atoms: N_5  and  C_6
REMARK    4  A    between atoms: C_9  and  C_10
REMARK    5  A    between atoms: C_9  and  C_11
REMARK    6  A    between atoms: C_14  and  C_15
REMARK                            x       y       z     vdW  Elec       q    Type
REMARK                         _______ _______ _______ _____ _____    ______ ____
ROOT
ATOM      1  C   UNL     1       4.041   2.110  19.674  0.00  0.00    +0.000 C 
ATOM      2  C   UNL     1       3.900   3.570  19.281  0.00  0.00    +0.000 C 
ATOM      3  C   UNL     1       2.825   4.286  19.707  0.00  0.00    +0.000 C 
ATOM      4  C   UNL     1       1.776   3.745  20.656  0.00  0.00    +0.000 C 
ENDROOT
BRANCH   3   5
ATOM      5  C   UNL     1       2.524   5.685  19.342  0.00  0.00    +0.000 A 
ATOM      6  C   UNL     1       2.125   6.586  20.342  0.00  0.00    +0.000 A 
ATOM      7  C   UNL     1       1.838   7.915  20.022  0.00  0.00    +0.000 A 
ATOM      8  C   UNL     1       1.960   8.365  18.703  0.00  0.00    +0.000 A 
ATOM      9  C   UNL     1       1.713   9.804  18.356  0.00  0.00    +0.000 C 
ATOM     10  C   UNL     1       2.362   7.462  17.709  0.00  0.00    +0.000 A 
ATOM     11  C   UNL     1       2.638   6.128  18.025  0.00  0.00    +0.000 A 
ENDBRANCH   3   5
BRANCH   2  12
ATOM     12  C   UNL     1       5.086   4.049  18.463  0.00  0.00    +0.000 C 
ATOM     13  O   UNL     1       6.005   4.654  19.013  0.00  0.00    +0.000 OA
ATOM     14  N   UNL     1       5.111   3.755  17.125  0.00  0.00    +0.000 N 
ATOM     15  H   UNL     1       4.351   3.244  16.707  0.00  0.00    +0.000 HD
BRANCH  14  16
ATOM     16  C   UNL     1       6.148   4.198  16.249  0.00  0.00    +0.000 C 
ATOM     17  C   UNL     1       5.994   4.024  14.761  0.00  0.00    +0.000 C 
ATOM     18  C   UNL     1       5.946   5.398  15.364  0.00  0.00    +0.000 C 
ENDBRANCH  14  16
ENDBRANCH   2  12
TORSDOF 3
ENDMDL
MODEL 5
REMARK VINA RESULT:      -6.6      1.966      3.759
REMARK  Name = 
REMARK  6 active torsions:
REMARK  status: ('A' for Active; 'I' for Inactive)
REMARK    1  A    between atoms: C_1  and  C_2
REMARK    2  A    between atoms: C_2  and  C_3
REMARK    3  A    between atoms: N_5  and  C_6
REMARK    4  A    between atoms: C_9  and  C_10
REMARK    5  A    between atoms: C_9  and  C_11
REMARK    6  A    between atoms: C_14  and  C_15
REMARK                            x       y       z     vdW  Elec       q    Type
REMARK                         _______ _______ _______ _____ _____    ______ ____
ROOT
ATOM      1  C   UNL     1       3.534   1.598  18.385  0.00  0.00    +0.000 C 
ATOM      2  C   UNL     1       3.505   3.114  18.442  0.00  0.00    +0.000 C 
ATOM      3  C   UNL     1       2.485   3.750  19.078  0.00  0.00    +0.000 C 
ATOM      4  C   UNL     1       1.392   3.032  19.842  0.00  0.00    +0.000 C 
ENDROOT
BRANCH   3   5
ATOM      5  C   UNL     1       2.291   5.213  19.145  0.00  0.00    +0.000 A 
ATOM      6  C   UNL     1       2.421   5.978  17.975  0.00  0.00    +0.000 A 
ATOM      7  C   UNL     1       2.238   7.363  18.013  0.00  0.00    +0.000 A 
ATOM      8  C   UNL     1       1.910   7.998  19.215  0.00  0.00    +0.000 A 
ATOM      9  C   UNL     1       1.652   9.476  19.258  0.00  0.00    +0.000 C 
ATOM     10  C   UNL     1       1.778   7.229  20.379  0.00  0.00    +0.000 A 
ATOM     11  C   UNL     1       1.972   5.845  20.346  0.00  0.00    +0.000 A 
ENDBRANCH   3   5
BRANCH   2  12
ATOM     12  C   UNL     1       4.728   3.725  17.782  0.00  0.00    +0.000 C 
ATOM     13  O   UNL     1       4.782   3.816  16.556  0.00  0.00    +0.000 OA
ATOM     14  N   UNL     1       5.733   4.194  18.587  0.00  0.00    +0.000 N 
ATOM     15  H   UNL     1       5.653   4.119  19.587  0.00  0.00    +0.000 HD
BRANCH  14  16
ATOM     16  C   UNL     1       6.950   4.740  18.077  0.00  0.00    +0.000 C 
ATOM     17  C   UNL     1       7.060   6.222  17.835  0.00  0.00    +0.000 C 
ATOM     18  C   UNL     1       7.837   5.585  18.949  0.00  0.00    +0.000 C 
ENDBRANCH  14  16
ENDBRANCH   2  12
TORSDOF 3
ENDMDL
MODEL 6
REMARK VINA RESULT:      -6.4      1.981      3.933
REMARK  Name = 
REMARK  6 active torsions:
REMARK  status: ('A' for Active; 'I' for Inactive)
REMARK    1  A    between atoms: C_1  and  C_2
REMARK    2  A    between atoms: C_2  and  C_3
REMARK    3  A    between atoms: N_5  and  C_6
REMARK    4  A    between atoms: C_9  and  C_10
REMARK    5  A    between atoms: C_9  and  C_11
REMARK    6  A    between atoms: C_14  and  C_15
REMARK                            x       y       z     vdW  Elec       q    Type
REMARK                         _______ _______ _______ _____ _____    ______ ____
ROOT
ATOM      1  C   UNL     1       3.630   1.621  18.699  0.00  0.00    +0.000 C 
ATOM      2  C   UNL     1       3.583   3.135  18.605  0.00  0.00    +0.000 C 
ATOM      3  C   UNL     1       2.547   3.818  19.162  0.00  0.00    +0.000 C 
ATOM      4  C   UNL     1       1.452   3.165  19.979  0.00  0.00    +0.000 C 
ENDROOT
BRANCH   3   5
ATOM      5  C   UNL     1       2.336   5.278  19.083  0.00  0.00    +0.000 A 
ATOM      6  C   UNL     1       2.063   5.998  20.257  0.00  0.00    +0.000 A 
ATOM      7  C   UNL     1       1.864   7.380  20.208  0.00  0.00    +0.000 A 
ATOM      8  C   UNL     1       1.950   8.062  18.990  0.00  0.00    +0.000 A 
ATOM      9  C   UNL     1       1.798   9.554  18.933  0.00  0.00    +0.000 C 
ATOM     10  C   UNL     1       2.226   7.339  17.822  0.00  0.00    +0.000 A 
ATOM     11  C   UNL     1       2.414   5.954  17.866  0.00  0.00    +0.000 A 
ENDBRANCH   3   5
BRANCH   2  12
ATOM     12  C   UNL     1       4.809   3.693  17.904  0.00  0.00    +0.000 C 
ATOM     13  O   UNL     1       4.885   3.652  16.677  0.00  0.00    +0.000 OA
ATOM     14  N   UNL     1       5.790   4.265  18.671  0.00  0.00    +0.000 N 
ATOM     15  H   UNL     1       5.691   4.299  19.672  0.00  0.00    +0.000 HD
BRANCH  14  16
ATOM     16  C   UNL     1       7.008   4.776  18.126  0.00  0.00    +0.000 C 
ATOM     17  C   UNL     1       7.129   6.244  17.813  0.00  0.00    +0.000 C 
ATOM     18  C   UNL     1       7.910   5.653  18.950  0.00  0.00    +0.000 C 
ENDBRANCH  14  16
ENDBRANCH   2  12
TORSDOF 3
ENDMDL
MODEL 7
REMARK VINA RESULT:      -6.4      2.044      5.372
REMARK  Name = 
REMARK  6 active torsions:
REMARK  status: ('A' for Active; 'I' for Inactive)
REMARK    1  A    between atoms: C_1  and  C_2
REMARK    2  A    between atoms: C_2  and  C_3
REMARK    3  A    between atoms: N_5  and  C_6
REMARK    4  A    between atoms: C_9  and  C_10
REMARK    5  A    between atoms: C_9  and  C_11
REMARK    6  A    between atoms: C_14  and  C_15
REMARK                            x       y       z     vdW  Elec       q    Type
REMARK                         _______ _______ _______ _____ _____    ______ ____
ROOT
ATOM      1  C   UNL     1       1.298   3.874  20.892  0.00  0.00    +0.000 C 
ATOM      2  C   UNL     1       2.285   4.410  19.871  0.00  0.00    +0.000 C 
ATOM      3  C   UNL     1       3.102   3.553  19.202  0.00  0.00    +0.000 C 
ATOM      4  C   UNL     1       3.030   2.046  19.335  0.00  0.00    +0.000 C 
ENDROOT
BRANCH   3   5
ATOM      5  C   UNL     1       4.156   3.940  18.242  0.00  0.00    +0.000 A 
ATOM      6  C   UNL     1       5.399   4.379  18.726  0.00  0.00    +0.000 A 
ATOM      7  C   UNL     1       6.412   4.747  17.837  0.00  0.00    +0.000 A 
ATOM      8  C   UNL     1       6.203   4.667  16.457  0.00  0.00    +0.000 A 
ATOM      9  C   UNL     1       7.303   5.001  15.492  0.00  0.00    +0.000 C 
ATOM     10  C   UNL     1       4.962   4.224  15.980  0.00  0.00    +0.000 A 
ATOM     11  C   UNL     1       3.942   3.866  16.867  0.00  0.00    +0.000 A 
ENDBRANCH   3   5
BRANCH   2  12
ATOM     12  C   UNL     1       2.161   5.914  19.704  0.00  0.00    +0.000 C 
ATOM     13  O   UNL     1       2.405   6.433  18.615  0.00  0.00    +0.000 OA
ATOM     14  N   UNL     1       1.741   6.652  20.779  0.00  0.00    +0.000 N 
ATOM     15  H   UNL     1       1.534   6.197  21.653  0.00  0.00    +0.000 HD
BRANCH  14  16
ATOM     16  C   UNL     1       1.637   8.077  20.754  0.00  0.00    +0.000 C 
ATOM     17  C   UNL     1       0.301   8.732  20.981  0.00  0.00    +0.000 C 
ATOM     18  C   UNL     1       1.379   8.850  22.018  0.00  0.00    +0.000 C 
ENDBRANCH  14  16
ENDBRANCH   2  12
TORSDOF 3
ENDMDL
MODEL 8
REMARK VINA RESULT:      -6.4      2.079      5.308
REMARK  Name = 
REMARK  6 active torsions:
REMARK  status: ('A' for Active; 'I' for Inactive)
REMARK    1  A    between atoms: C_1  and  C_2
REMARK    2  A    between atoms: C_2  and  C_3
REMARK    3  A    between atoms: N_5  and  C_6
REMARK    4  A    between atoms: C_9  and  C_10
REMARK    5  A    between atoms: C_9  and  C_11
REMARK    6  A    between atoms: C_14  and  C_15
REMARK                            x       y       z     vdW  Elec       q    Type
REMARK                         _______ _______ _______ _____ _____    ______ ____
ROOT
ATOM      1  C   UNL     1       1.568   3.921  21.120  0.00  0.00    +0.000 C 
ATOM      2  C   UNL     1       2.494   4.449  20.038  0.00  0.00    +0.000 C 
ATOM      3  C   UNL     1       3.305   3.592  19.362  0.00  0.00    +0.000 C 
ATOM      4  C   UNL     1       3.281   2.089  19.548  0.00  0.00    +0.000 C 
ENDROOT
BRANCH   3   5
ATOM      5  C   UNL     1       4.304   3.974  18.344  0.00  0.00    +0.000 A 
ATOM      6  C   UNL     1       3.988   3.829  16.983  0.00  0.00    +0.000 A 
ATOM      7  C   UNL     1       4.915   4.188  16.001  0.00  0.00    +0.000 A 
ATOM      8  C   UNL     1       6.161   4.709  16.364  0.00  0.00    +0.000 A 
ATOM      9  C   UNL     1       7.142   5.155  15.319  0.00  0.00    +0.000 C 
ATOM     10  C   UNL     1       6.469   4.855  17.724  0.00  0.00    +0.000 A 
ATOM     11  C   UNL     1       5.548   4.486  18.709  0.00  0.00    +0.000 A 
ENDBRANCH   3   5
BRANCH   2  12
ATOM     12  C   UNL     1       2.320   5.942  19.829  0.00  0.00    +0.000 C 
ATOM     13  O   UNL     1       2.682   6.459  18.772  0.00  0.00    +0.000 OA
ATOM     14  N   UNL     1       1.725   6.671  20.825  0.00  0.00    +0.000 N 
ATOM     15  H   UNL     1       1.426   6.217  21.671  0.00  0.00    +0.000 HD
BRANCH  14  16
ATOM     16  C   UNL     1       1.557   8.088  20.759  0.00  0.00    +0.000 C 
ATOM     17  C   UNL     1       0.237   8.702  21.146  0.00  0.00    +0.000 C 
ATOM     18  C   UNL     1       1.443   8.907  22.016  0.00  0.00    +0.000 C 
ENDBRANCH  14  16
ENDBRANCH   2  12
TORSDOF 3
ENDMDL
MODEL 9
REMARK VINA RESULT:      -6.3      2.078      4.577
REMARK  Name = 
REMARK  6 active torsions:
REMARK  status: ('A' for Active; 'I' for Inactive)
REMARK    1  A    between atoms: C_1  and  C_2
REMARK    2  A    between atoms: C_2  and  C_3
REMARK    3  A    between atoms: N_5  and  C_6
REMARK    4  A    between atoms: C_9  and  C_10
REMARK    5  A    between atoms: C_9  and  C_11
REMARK    6  A    between atoms: C_14  and  C_15
REMARK                            x       y       z     vdW  Elec       q    Type
REMARK                         _______ _______ _______ _____ _____    ______ ____
ROOT
ATOM      1  C   UNL     1       0.889   3.171  19.469  0.00  0.00    +0.000 C 
ATOM      2  C   UNL     1       2.051   4.141  19.356  0.00  0.00    +0.000 C 
ATOM      3  C   UNL     1       2.922   4.040  18.316  0.00  0.00    +0.000 C 
ATOM      4  C   UNL     1       2.755   3.061  17.173  0.00  0.00    +0.000 C 
ENDROOT
BRANCH   3   5
ATOM      5  C   UNL     1       4.132   4.864  18.123  0.00  0.00    +0.000 A 
ATOM      6  C   UNL     1       4.112   5.905  17.181  0.00  0.00    +0.000 A 
ATOM      7  C   UNL     1       5.243   6.700  16.983  0.00  0.00    +0.000 A 
ATOM      8  C   UNL     1       6.402   6.476  17.733  0.00  0.00    +0.000 A 
ATOM      9  C   UNL     1       7.604   7.362  17.573  0.00  0.00    +0.000 C 
ATOM     10  C   UNL     1       6.416   5.439  18.675  0.00  0.00    +0.000 A 
ATOM     11  C   UNL     1       5.289   4.633  18.866  0.00  0.00    +0.000 A 
ENDBRANCH   3   5
BRANCH   2  12
ATOM     12  C   UNL     1       2.030   5.175  20.467  0.00  0.00    +0.000 C 
ATOM     13  O   UNL     1       2.466   4.888  21.582  0.00  0.00    +0.000 OA
ATOM     14  N   UNL     1       1.550   6.426  20.179  0.00  0.00    +0.000 N 
ATOM     15  H   UNL     1       1.215   6.636  19.254  0.00  0.00    +0.000 HD
BRANCH  14  16
ATOM     16  C   UNL     1       1.435   7.462  21.156  0.00  0.00    +0.000 C 
ATOM     17  C   UNL     1       1.233   8.887  20.714  0.00  0.00    +0.000 C 
ATOM     18  C   UNL     1       0.118   8.149  21.395  0.00  0.00    +0.000 C 
ENDBRANCH  14  16
ENDBRANCH   2  12
TORSDOF 3
ENDMDL
