MODEL 1
REMARK VINA RESULT:      -8.7      0.000      0.000
REMARK  Name = 
REMARK  4 active torsions:
REMARK  status: ('A' for Active; 'I' for Inactive)
REMARK    1  A    between atoms: C_2  and  C_3
REMARK    2  A    between atoms: C_6  and  N_7
REMARK    3  A    between atoms: C_12  and  C_13
REMARK    4  A    between atoms: C_24  and  C_25
REMARK                            x       y       z     vdW  Elec       q    Type
REMARK                         _______ _______ _______ _____ _____    ______ ____
ROOT
ATOM      1  N   UNL     1       1.772   8.077  19.956  0.00  0.00    +0.000 N 
ATOM      2  C   UNL     1       1.239   9.048  18.988  0.00  0.00    +0.000 C 
ATOM      3  C   UNL     1       1.191  10.471  19.554  0.00  0.00    +0.000 C 
ATOM      4  C   UNL     1       0.404  10.460  20.836  0.00  0.00    +0.000 A 
ATOM      5  C   UNL     1      -0.505  11.471  21.161  0.00  0.00    +0.000 A 
ATOM      6  C   UNL     1      -1.252  11.429  22.351  0.00  0.00    +0.000 A 
ATOM      7  C   UNL     1      -1.038  10.334  23.208  0.00  0.00    +0.000 A 
ATOM      8  C   UNL     1      -0.104   9.337  22.908  0.00  0.00    +0.000 A 
ATOM      9  C   UNL     1       0.622   9.392  21.718  0.00  0.00    +0.000 A 
ATOM     10  C   UNL     1       1.698   8.379  21.395  0.00  0.00    +0.000 C 
ENDROOT
BRANCH   1  14
ATOM     11  C   UNL     1       2.773   4.145  18.744  0.00  0.00    +0.000 A 
ATOM     12  C   UNL     1       2.822   5.207  17.836  0.00  0.00    +0.000 A 
ATOM     13  C   UNL     1       2.491   6.505  18.236  0.00  0.00    +0.000 A 
ATOM     14  C   UNL     1       2.088   6.791  19.546  0.00  0.00    +0.000 A 
ATOM     15  C   UNL     1       2.028   5.708  20.439  0.00  0.00    +0.000 A 
ATOM     16  C   UNL     1       2.365   4.386  20.063  0.00  0.00    +0.000 A 
BRANCH  16  17
ATOM     17  C   UNL     1       2.271   3.310  21.115  0.00  0.00    +0.000 C 
ATOM     18  F   UNL     1       1.199   2.485  21.005  0.00  0.00    +0.000 F 
ATOM     19  F   UNL     1       3.364   2.497  21.117  0.00  0.00    +0.000 F 
ATOM     20  F   UNL     1       2.199   3.834  22.372  0.00  0.00    +0.000 F 
ENDBRANCH  16  17
BRANCH  11  22
ATOM     21  N   UNL     1       3.445   1.795  17.870  0.00  0.00    +0.000 NA
ATOM     22  C   UNL     1       3.166   2.850  18.268  0.00  0.00    +0.000 C 
ENDBRANCH  11  22
ENDBRANCH   1  14
BRANCH   6  23
ATOM     23  C   UNL     1      -2.223  12.495  22.692  0.00  0.00    +0.000 A 
ATOM     24  C   UNL     1      -3.232  12.292  23.644  0.00  0.00    +0.000 A 
ATOM     25  C   UNL     1      -4.124  13.317  23.923  0.00  0.00    +0.000 A 
ATOM     26  N   UNL     1      -4.086  14.527  23.333  0.00  0.00    +0.000 NA
ATOM     27  C   UNL     1      -3.113  14.718  22.421  0.00  0.00    +0.000 A 
ATOM     28  C   UNL     1      -2.180  13.751  22.073  0.00  0.00    +0.000 A 
ENDBRANCH   6  23
TORSDOF 4
ENDMDL
MODEL 2
REMARK VINA RESULT:      -8.7      0.106      1.123
REMARK  Name = 
REMARK  4 active torsions:
REMARK  status: ('A' for Active; 'I' for Inactive)
REMARK    1  A    between atoms: C_2  and  C_3
REMARK    2  A    between atoms: C_6  and  N_7
REMARK    3  A    between atoms: C_12  and  C_13
REMARK    4  A    between atoms: C_24  and  C_25
REMARK                            x       y       z     vdW  Elec       q    Type
REMARK                         _______ _______ _______ _____ _____    ______ ____
ROOT
ATOM      1  N   UNL     1       1.759   8.148  19.990  0.00  0.00    +0.000 N 
ATOM      2  C   UNL     1       1.251   9.138  19.027  0.00  0.00    +0.000 C 
ATOM      3  C   UNL     1       1.204  10.553  19.614  0.00  0.00    +0.000 C 
ATOM      4  C   UNL     1       0.393  10.529  20.881  0.00  0.00    +0.000 A 
ATOM      5  C   UNL     1      -0.514  11.543  21.204  0.00  0.00    +0.000 A 
ATOM      6  C   UNL     1      -1.283  11.488  22.380  0.00  0.00    +0.000 A 
ATOM      7  C   UNL     1      -1.093  10.379  23.224  0.00  0.00    +0.000 A 
ATOM      8  C   UNL     1      -0.162   9.379  22.926  0.00  0.00    +0.000 A 
ATOM      9  C   UNL     1       0.587   9.447  21.750  0.00  0.00    +0.000 A 
ATOM     10  C   UNL     1       1.660   8.429  21.432  0.00  0.00    +0.000 C 
ENDROOT
BRANCH   1  14
ATOM     11  C   UNL     1       2.751   4.228  18.737  0.00  0.00    +0.000 A 
ATOM     12  C   UNL     1       2.830   5.303  17.848  0.00  0.00    +0.000 A 
ATOM     13  C   UNL     1       2.502   6.598  18.261  0.00  0.00    +0.000 A 
ATOM     14  C   UNL     1       2.072   6.867  19.567  0.00  0.00    +0.000 A 
ATOM     15  C   UNL     1       1.983   5.770  20.440  0.00  0.00    +0.000 A 
ATOM     16  C   UNL     1       2.316   4.451  20.050  0.00  0.00    +0.000 A 
BRANCH  16  17
ATOM     17  C   UNL     1       2.189   3.360  21.083  0.00  0.00    +0.000 C 
ATOM     18  F   UNL     1       3.159   2.411  21.044  0.00  0.00    +0.000 F 
ATOM     19  F   UNL     1       2.205   3.852  22.354  0.00  0.00    +0.000 F 
ATOM     20  F   UNL     1       1.013   2.682  20.965  0.00  0.00    +0.000 F 
ENDBRANCH  16  17
BRANCH  11  22
ATOM     21  N   UNL     1       3.424   1.889  17.833  0.00  0.00    +0.000 NA
ATOM     22  C   UNL     1       3.143   2.936  18.249  0.00  0.00    +0.000 C 
ENDBRANCH  11  22
ENDBRANCH   1  14
BRANCH   6  23
ATOM     23  C   UNL     1      -2.251  12.557  22.719  0.00  0.00    +0.000 A 
ATOM     24  C   UNL     1      -2.184  13.825  22.126  0.00  0.00    +0.000 A 
ATOM     25  C   UNL     1      -3.107  14.797  22.483  0.00  0.00    +0.000 A 
ATOM     26  N   UNL     1      -4.093  14.602  23.380  0.00  0.00    +0.000 NA
ATOM     27  C   UNL     1      -4.155  13.381  23.945  0.00  0.00    +0.000 A 
ATOM     28  C   UNL     1      -3.273  12.350  23.656  0.00  0.00    +0.000 A 
ENDBRANCH   6  23
TORSDOF 4
ENDMDL
MODEL 3
REMARK VINA RESULT:      -8.4      1.827      2.468
REMARK  Name = 
REMARK  4 active torsions:
REMARK  status: ('A' for Active; 'I' for Inactive)
REMARK    1  A    between atoms: C_2  and  C_3
REMARK    2  A    between atoms: C_6  and  N_7
REMARK    3  A    between atoms: C_12  and  C_13
REMARK    4  A    between atoms: C_24  and  C_25
REMARK                            x       y       z     vdW  Elec       q    Type
REMARK                         _______ _______ _______ _____ _____    ______ ____
ROOT
ATOM      1  N   UNL     1       1.805   8.040  20.158  0.00  0.00    +0.000 N 
ATOM      2  C   UNL     1       1.240   8.912  19.116  0.00  0.00    +0.000 C 
ATOM      3  C   UNL     1       1.140  10.373  19.569  0.00  0.00    +0.000 C 
ATOM      4  C   UNL     1       0.350  10.434  20.848  0.00  0.00    +0.000 A 
ATOM      5  C   UNL     1      -0.596  11.434  21.092  0.00  0.00    +0.000 A 
ATOM      6  C   UNL     1      -1.344  11.459  22.282  0.00  0.00    +0.000 A 
ATOM      7  C   UNL     1      -1.093  10.443  23.223  0.00  0.00    +0.000 A 
ATOM      8  C   UNL     1      -0.123   9.460  23.002  0.00  0.00    +0.000 A 
ATOM      9  C   UNL     1       0.604   9.448  21.811  0.00  0.00    +0.000 A 
ATOM     10  C   UNL     1       1.716   8.451  21.569  0.00  0.00    +0.000 C 
ENDROOT
BRANCH   1  14
ATOM     11  C   UNL     1       2.894   4.070  19.166  0.00  0.00    +0.000 A 
ATOM     12  C   UNL     1       2.064   4.331  20.259  0.00  0.00    +0.000 A 
ATOM     13  C   UNL     1       1.704   5.642  20.587  0.00  0.00    +0.000 A 
ATOM     14  C   UNL     1       2.168   6.738  19.850  0.00  0.00    +0.000 A 
ATOM     15  C   UNL     1       3.015   6.457  18.765  0.00  0.00    +0.000 A 
ATOM     16  C   UNL     1       3.389   5.140  18.406  0.00  0.00    +0.000 A 
BRANCH  16  17
ATOM     17  C   UNL     1       4.296   4.967  17.215  0.00  0.00    +0.000 C 
ATOM     18  F   UNL     1       3.894   4.035  16.312  0.00  0.00    +0.000 F 
ATOM     19  F   UNL     1       4.443   6.123  16.510  0.00  0.00    +0.000 F 
ATOM     20  F   UNL     1       5.555   4.597  17.583  0.00  0.00    +0.000 F 
ENDBRANCH  16  17
BRANCH  11  22
ATOM     21  N   UNL     1       3.442   1.598  18.596  0.00  0.00    +0.000 NA
ATOM     22  C   UNL     1       3.186   2.697  18.869  0.00  0.00    +0.000 C 
ENDBRANCH  11  22
ENDBRANCH   1  14
BRANCH   6  23
ATOM     23  C   UNL     1      -2.353  12.512  22.538  0.00  0.00    +0.000 A 
ATOM     24  C   UNL     1      -2.413  13.677  21.760  0.00  0.00    +0.000 A 
ATOM     25  C   UNL     1      -3.369  14.640  22.044  0.00  0.00    +0.000 A 
ATOM     26  N   UNL     1      -4.272  14.532  23.038  0.00  0.00    +0.000 NA
ATOM     27  C   UNL     1      -4.212  13.411  23.782  0.00  0.00    +0.000 A 
ATOM     28  C   UNL     1      -3.287  12.396  23.576  0.00  0.00    +0.000 A 
ENDBRANCH   6  23
TORSDOF 4
ENDMDL
MODEL 4
REMARK VINA RESULT:      -8.3      1.818      2.327
REMARK  Name = 
REMARK  4 active torsions:
REMARK  status: ('A' for Active; 'I' for Inactive)
REMARK    1  A    between atoms: C_2  and  C_3
REMARK    2  A    between atoms: C_6  and  N_7
REMARK    3  A    between atoms: C_12  and  C_13
REMARK    4  A    between atoms: C_24  and  C_25
REMARK                            x       y       z     vdW  Elec       q    Type
REMARK                         _______ _______ _______ _____ _____    ______ ____
ROOT
ATOM      1  N   UNL     1       1.787   8.064  20.175  0.00  0.00    +0.000 N 
ATOM      2  C   UNL     1       1.227   8.933  19.127  0.00  0.00    +0.000 C 
ATOM      3  C   UNL     1       1.120  10.394  19.576  0.00  0.00    +0.000 C 
ATOM      4  C   UNL     1       0.322  10.456  20.850  0.00  0.00    +0.000 A 
ATOM      5  C   UNL     1      -0.628  11.456  21.085  0.00  0.00    +0.000 A 
ATOM      6  C   UNL     1      -1.384  11.481  22.270  0.00  0.00    +0.000 A 
ATOM      7  C   UNL     1      -1.137  10.467  23.214  0.00  0.00    +0.000 A 
ATOM      8  C   UNL     1      -0.164   9.486  23.002  0.00  0.00    +0.000 A 
ATOM      9  C   UNL     1       0.571   9.473  21.816  0.00  0.00    +0.000 A 
ATOM     10  C   UNL     1       1.687   8.478  21.584  0.00  0.00    +0.000 C 
ENDROOT
BRANCH   1  14
ATOM     11  C   UNL     1       2.891   4.094  19.199  0.00  0.00    +0.000 A 
ATOM     12  C   UNL     1       2.061   4.357  20.292  0.00  0.00    +0.000 A 
ATOM     13  C   UNL     1       1.697   5.667  20.615  0.00  0.00    +0.000 A 
ATOM     14  C   UNL     1       2.154   6.763  19.872  0.00  0.00    +0.000 A 
ATOM     15  C   UNL     1       3.001   6.480  18.788  0.00  0.00    +0.000 A 
ATOM     16  C   UNL     1       3.380   5.162  18.434  0.00  0.00    +0.000 A 
BRANCH  16  17
ATOM     17  C   UNL     1       4.286   4.988  17.242  0.00  0.00    +0.000 C 
ATOM     18  F   UNL     1       4.472   6.102  16.488  0.00  0.00    +0.000 F 
ATOM     19  F   UNL     1       5.534   4.574  17.602  0.00  0.00    +0.000 F 
ATOM     20  F   UNL     1       3.817   4.040  16.382  0.00  0.00    +0.000 F 
ENDBRANCH  16  17
BRANCH  11  22
ATOM     21  N   UNL     1       3.435   1.620  18.634  0.00  0.00    +0.000 NA
ATOM     22  C   UNL     1       3.188   2.721  18.908  0.00  0.00    +0.000 C 
ENDBRANCH  11  22
ENDBRANCH   1  14
BRANCH   6  23
ATOM     23  C   UNL     1      -2.397  12.533  22.517  0.00  0.00    +0.000 A 
ATOM     24  C   UNL     1      -3.253  12.482  23.626  0.00  0.00    +0.000 A 
ATOM     25  C   UNL     1      -4.193  13.486  23.810  0.00  0.00    +0.000 A 
ATOM     26  N   UNL     1      -4.343  14.536  22.980  0.00  0.00    +0.000 NA
ATOM     27  C   UNL     1      -3.516  14.582  21.917  0.00  0.00    +0.000 A 
ATOM     28  C   UNL     1      -2.551  13.622  21.648  0.00  0.00    +0.000 A 
ENDBRANCH   6  23
TORSDOF 4
ENDMDL
MODEL 5
REMARK VINA RESULT:      -7.9      3.921      9.803
REMARK  Name = 
REMARK  4 active torsions:
REMARK  status: ('A' for Active; 'I' for Inactive)
REMARK    1  A    between atoms: C_2  and  C_3
REMARK    2  A    between atoms: C_6  and  N_7
REMARK    3  A    between atoms: C_12  and  C_13
REMARK    4  A    between atoms: C_24  and  C_25
REMARK                            x       y       z     vdW  Elec       q    Type
REMARK                         _______ _______ _______ _____ _____    ______ ____
ROOT
ATOM      1  N   UNL     1      -0.244  10.993  21.303  0.00  0.00    +0.000 N 
ATOM      2  C   UNL     1      -0.324   9.697  21.995  0.00  0.00    +0.000 C 
ATOM      3  C   UNL     1       0.992   8.915  21.923  0.00  0.00    +0.000 C 
ATOM      4  C   UNL     1       1.393   8.764  20.481  0.00  0.00    +0.000 A 
ATOM      5  C   UNL     1       1.924   7.572  19.978  0.00  0.00    +0.000 A 
ATOM      6  C   UNL     1       2.266   7.441  18.620  0.00  0.00    +0.000 A 
ATOM      7  C   UNL     1       2.064   8.561  17.793  0.00  0.00    +0.000 A 
ATOM      8  C   UNL     1       1.567   9.767  18.296  0.00  0.00    +0.000 A 
ATOM      9  C   UNL     1       1.225   9.876  19.645  0.00  0.00    +0.000 A 
ATOM     10  C   UNL     1       0.761  11.185  20.244  0.00  0.00    +0.000 C 
ENDROOT
BRANCH   1  14
ATOM     11  C   UNL     1      -3.395  13.786  21.756  0.00  0.00    +0.000 A 
ATOM     12  C   UNL     1      -2.552  13.834  20.642  0.00  0.00    +0.000 A 
ATOM     13  C   UNL     1      -1.511  12.912  20.492  0.00  0.00    +0.000 A 
ATOM     14  C   UNL     1      -1.263  11.921  21.449  0.00  0.00    +0.000 A 
ATOM     15  C   UNL     1      -2.110  11.899  22.570  0.00  0.00    +0.000 A 
ATOM     16  C   UNL     1      -3.175  12.815  22.743  0.00  0.00    +0.000 A 
BRANCH  16  17
ATOM     17  C   UNL     1      -4.021  12.683  23.984  0.00  0.00    +0.000 C 
ATOM     18  F   UNL     1      -5.362  12.697  23.775  0.00  0.00    +0.000 F 
ATOM     19  F   UNL     1      -3.765  11.527  24.659  0.00  0.00    +0.000 F 
ATOM     20  F   UNL     1      -3.781  13.689  24.872  0.00  0.00    +0.000 F 
ENDBRANCH  16  17
BRANCH  11  22
ATOM     21  N   UNL     1      -5.318  15.522  21.907  0.00  0.00    +0.000 NA
ATOM     22  C   UNL     1      -4.464  14.740  21.818  0.00  0.00    +0.000 C 
ENDBRANCH  11  22
ENDBRANCH   1  14
BRANCH   6  23
ATOM     23  C   UNL     1       2.821   6.177  18.083  0.00  0.00    +0.000 A 
ATOM     24  C   UNL     1       4.115   6.112  17.546  0.00  0.00    +0.000 A 
ATOM     25  C   UNL     1       4.588   4.908  17.045  0.00  0.00    +0.000 A 
ATOM     26  N   UNL     1       3.875   3.765  17.042  0.00  0.00    +0.000 NA
ATOM     27  C   UNL     1       2.634   3.832  17.561  0.00  0.00    +0.000 A 
ATOM     28  C   UNL     1       2.074   4.992  18.079  0.00  0.00    +0.000 A 
ENDBRANCH   6  23
TORSDOF 4
ENDMDL
MODEL 6
REMARK VINA RESULT:      -7.9      1.142      1.338
REMARK  Name = 
REMARK  4 active torsions:
REMARK  status: ('A' for Active; 'I' for Inactive)
REMARK    1  A    between atoms: C_2  and  C_3
REMARK    2  A    between atoms: C_6  and  N_7
REMARK    3  A    between atoms: C_12  and  C_13
REMARK    4  A    between atoms: C_24  and  C_25
REMARK                            x       y       z     vdW  Elec       q    Type
REMARK                         _______ _______ _______ _____ _____    ______ ____
ROOT
ATOM      1  N   UNL     1       2.107   7.662  19.312  0.00  0.00    +0.000 N 
ATOM      2  C   UNL     1       1.692   8.510  18.183  0.00  0.00    +0.000 C 
ATOM      3  C   UNL     1       1.668   9.998  18.550  0.00  0.00    +0.000 C 
ATOM      4  C   UNL     1       0.789  10.190  19.755  0.00  0.00    +0.000 A 
ATOM      5  C   UNL     1      -0.095  11.268  19.868  0.00  0.00    +0.000 A 
ATOM      6  C   UNL     1      -0.928  11.415  20.990  0.00  0.00    +0.000 A 
ATOM      7  C   UNL     1      -0.829  10.440  22.000  0.00  0.00    +0.000 A 
ATOM      8  C   UNL     1       0.078   9.379  21.911  0.00  0.00    +0.000 A 
ATOM      9  C   UNL     1       0.892   9.246  20.785  0.00  0.00    +0.000 A 
ATOM     10  C   UNL     1       1.941   8.160  20.687  0.00  0.00    +0.000 C 
ENDROOT
BRANCH   1  14
ATOM     11  C   UNL     1       3.016   3.569  18.717  0.00  0.00    +0.000 A 
ATOM     12  C   UNL     1       3.135   4.487  17.670  0.00  0.00    +0.000 A 
ATOM     13  C   UNL     1       2.835   5.838  17.866  0.00  0.00    +0.000 A 
ATOM     14  C   UNL     1       2.393   6.322  19.103  0.00  0.00    +0.000 A 
ATOM     15  C   UNL     1       2.263   5.381  20.138  0.00  0.00    +0.000 A 
ATOM     16  C   UNL     1       2.567   4.009  19.970  0.00  0.00    +0.000 A 
BRANCH  16  17
ATOM     17  C   UNL     1       2.396   3.100  21.160  0.00  0.00    +0.000 C 
ATOM     18  F   UNL     1       1.367   2.219  21.072  0.00  0.00    +0.000 F 
ATOM     19  F   UNL     1       3.507   2.347  21.395  0.00  0.00    +0.000 F 
ATOM     20  F   UNL     1       2.177   3.801  22.308  0.00  0.00    +0.000 F 
ENDBRANCH  16  17
BRANCH  11  22
ATOM     21  N   UNL     1       3.711   1.119  18.215  0.00  0.00    +0.000 NA
ATOM     22  C   UNL     1       3.380   2.208  18.448  0.00  0.00    +0.000 C 
ENDBRANCH  11  22
ENDBRANCH   1  14
BRANCH   6  23
ATOM     23  C   UNL     1      -1.872  12.551  21.108  0.00  0.00    +0.000 A 
ATOM     24  C   UNL     1      -1.562  13.687  21.869  0.00  0.00    +0.000 A 
ATOM     25  C   UNL     1      -2.481  14.722  21.958  0.00  0.00    +0.000 A 
ATOM     26  N   UNL     1      -3.680  14.715  21.345  0.00  0.00    +0.000 NA
ATOM     27  C   UNL     1      -3.973  13.623  20.613  0.00  0.00    +0.000 A 
ATOM     28  C   UNL     1      -3.120  12.537  20.471  0.00  0.00    +0.000 A 
ENDBRANCH   6  23
TORSDOF 4
ENDMDL
MODEL 7
REMARK VINA RESULT:      -7.8      4.011      9.804
REMARK  Name = 
REMARK  4 active torsions:
REMARK  status: ('A' for Active; 'I' for Inactive)
REMARK    1  A    between atoms: C_2  and  C_3
REMARK    2  A    between atoms: C_6  and  N_7
REMARK    3  A    between atoms: C_12  and  C_13
REMARK    4  A    between atoms: C_24  and  C_25
REMARK                            x       y       z     vdW  Elec       q    Type
REMARK                         _______ _______ _______ _____ _____    ______ ____
ROOT
ATOM      1  N   UNL     1      -0.408  10.950  21.386  0.00  0.00    +0.000 N 
ATOM      2  C   UNL     1      -0.428   9.751  22.240  0.00  0.00    +0.000 C 
ATOM      3  C   UNL     1       0.920   9.021  22.252  0.00  0.00    +0.000 C 
ATOM      4  C   UNL     1       1.314   8.701  20.836  0.00  0.00    +0.000 A 
ATOM      5  C   UNL     1       1.892   7.478  20.483  0.00  0.00    +0.000 A 
ATOM      6  C   UNL     1       2.228   7.186  19.149  0.00  0.00    +0.000 A 
ATOM      7  C   UNL     1       1.972   8.181  18.187  0.00  0.00    +0.000 A 
ATOM      8  C   UNL     1       1.428   9.420  18.538  0.00  0.00    +0.000 A 
ATOM      9  C   UNL     1       1.093   9.688  19.866  0.00  0.00    +0.000 A 
ATOM     10  C   UNL     1       0.579  11.044  20.298  0.00  0.00    +0.000 C 
ENDROOT
BRANCH   1  14
ATOM     11  C   UNL     1      -3.670  13.646  21.519  0.00  0.00    +0.000 A 
ATOM     12  C   UNL     1      -2.841  13.582  20.396  0.00  0.00    +0.000 A 
ATOM     13  C   UNL     1      -1.764  12.692  20.352  0.00  0.00    +0.000 A 
ATOM     14  C   UNL     1      -1.464  11.846  21.426  0.00  0.00    +0.000 A 
ATOM     15  C   UNL     1      -2.299  11.937  22.552  0.00  0.00    +0.000 A 
ATOM     16  C   UNL     1      -3.400  12.823  22.621  0.00  0.00    +0.000 A 
BRANCH  16  17
ATOM     17  C   UNL     1      -4.227  12.820  23.882  0.00  0.00    +0.000 C 
ATOM     18  F   UNL     1      -4.140  13.947  24.634  0.00  0.00    +0.000 F 
ATOM     19  F   UNL     1      -5.555  12.651  23.625  0.00  0.00    +0.000 F 
ATOM     20  F   UNL     1      -3.880  11.799  24.715  0.00  0.00    +0.000 F 
ENDBRANCH  16  17
BRANCH  11  22
ATOM     21  N   UNL     1      -5.667  15.304  21.473  0.00  0.00    +0.000 NA
ATOM     22  C   UNL     1      -4.779  14.556  21.473  0.00  0.00    +0.000 C 
ENDBRANCH  11  22
ENDBRANCH   1  14
BRANCH   6  23
ATOM     23  C   UNL     1       2.832   5.888  18.771  0.00  0.00    +0.000 A 
ATOM     24  C   UNL     1       2.181   5.000  17.902  0.00  0.00    +0.000 A 
ATOM     25  C   UNL     1       2.781   3.791  17.585  0.00  0.00    +0.000 A 
ATOM     26  N   UNL     1       3.978   3.399  18.061  0.00  0.00    +0.000 NA
ATOM     27  C   UNL     1       4.601   4.256  18.893  0.00  0.00    +0.000 A 
ATOM     28  C   UNL     1       4.077   5.484  19.272  0.00  0.00    +0.000 A 
ENDBRANCH   6  23
TORSDOF 4
ENDMDL
