MODEL 1
REMARK VINA RESULT:      -7.8      0.000      0.000
REMARK  Name = 
REMARK  4 active torsions:
REMARK  status: ('A' for Active; 'I' for Inactive)
REMARK    1  A    between atoms: N_3  and  N_4
REMARK    2  A    between atoms: C_5  and  C_6
REMARK    3  A    between atoms: N_13  and  N_14
REMARK    4  A    between atoms: C_15  and  C_16
REMARK                            x       y       z     vdW  Elec       q    Type
REMARK                         _______ _______ _______ _____ _____    ______ ____
ROOT
ATOM      1  N   UNL     1       7.800   5.567  19.973  0.00  0.00    +0.000 NA
ATOM      2  C   UNL     1       7.308   5.398  18.785  0.00  0.00    +0.000 C 
ATOM      3  N   UNL     1       8.102   5.299  17.660  0.00  0.00    +0.000 N 
ATOM      4  N   UNL     1       5.968   5.245  18.511  0.00  0.00    +0.000 N 
ATOM      5  H   UNL     1       8.815   5.631  19.932  0.00  0.00    +0.000 HD
ATOM      6  H   UNL     1       9.098   5.382  17.843  0.00  0.00    +0.000 HD
ATOM      7  H   UNL     1       5.740   5.461  17.543  0.00  0.00    +0.000 HD
ENDROOT
BRANCH   3   8
ATOM      8  N   UNL     1       7.697   4.610  16.548  0.00  0.00    +0.000 NA
ATOM      9  C   UNL     1       7.250   5.327  15.566  0.00  0.00    +0.000 C 
BRANCH   9  10
ATOM     10  C   UNL     1       6.876   4.694  14.288  0.00  0.00    +0.000 A 
ATOM     11  C   UNL     1       5.793   3.825  14.248  0.00  0.00    +0.000 A 
ATOM     12  N   UNL     1       5.357   3.210  13.122  0.00  0.00    +0.000 NA
ATOM     13  C   UNL     1       6.029   3.472  11.982  0.00  0.00    +0.000 A 
ATOM     14  C   UNL     1       7.131   4.304  11.921  0.00  0.00    +0.000 A 
ATOM     15  C   UNL     1       7.564   4.916  13.098  0.00  0.00    +0.000 A 
ATOM     16 CL   UNL     1       8.949   5.942  12.999  0.00  0.00    +0.000 Cl
ENDBRANCH   9  10
ENDBRANCH   3   8
BRANCH   4  17
ATOM     17  N   UNL     1       4.925   4.967  19.344  0.00  0.00    +0.000 NA
ATOM     18  C   UNL     1       4.308   3.859  19.072  0.00  0.00    +0.000 C 
BRANCH  18  19
ATOM     19  C   UNL     1       3.124   3.420  19.824  0.00  0.00    +0.000 A 
ATOM     20  C   UNL     1       3.273   2.877  21.094  0.00  0.00    +0.000 A 
ATOM     21  N   UNL     1       2.234   2.503  21.883  0.00  0.00    +0.000 NA
ATOM     22  C   UNL     1       0.993   2.680  21.387  0.00  0.00    +0.000 A 
ATOM     23  C   UNL     1       0.739   3.205  20.134  0.00  0.00    +0.000 A 
ATOM     24  C   UNL     1       1.826   3.580  19.344  0.00  0.00    +0.000 A 
ATOM     25 CL   UNL     1       1.471   4.245  17.789  0.00  0.00    +0.000 Cl
ENDBRANCH  18  19
ENDBRANCH   4  17
TORSDOF 4
ENDMDL
MODEL 2
REMARK VINA RESULT:      -7.7      1.348      1.579
REMARK  Name = 
REMARK  4 active torsions:
REMARK  status: ('A' for Active; 'I' for Inactive)
REMARK    1  A    between atoms: N_3  and  N_4
REMARK    2  A    between atoms: C_5  and  C_6
REMARK    3  A    between atoms: N_13  and  N_14
REMARK    4  A    between atoms: C_15  and  C_16
REMARK                            x       y       z     vdW  Elec       q    Type
REMARK                         _______ _______ _______ _____ _____    ______ ____
ROOT
ATOM      1  N   UNL     1       7.727   5.539  20.230  0.00  0.00    +0.000 NA
ATOM      2  C   UNL     1       7.317   5.423  19.006  0.00  0.00    +0.000 C 
ATOM      3  N   UNL     1       8.186   5.301  17.941  0.00  0.00    +0.000 N 
ATOM      4  N   UNL     1       5.995   5.352  18.630  0.00  0.00    +0.000 N 
ATOM      5  H   UNL     1       8.745   5.546  20.266  0.00  0.00    +0.000 HD
ATOM      6  H   UNL     1       9.169   5.323  18.198  0.00  0.00    +0.000 HD
ATOM      7  H   UNL     1       5.853   5.600  17.654  0.00  0.00    +0.000 HD
ENDROOT
BRANCH   3   8
ATOM      8  N   UNL     1       7.829   4.659  16.785  0.00  0.00    +0.000 NA
ATOM      9  C   UNL     1       7.253   5.390  15.883  0.00  0.00    +0.000 C 
BRANCH   9  10
ATOM     10  C   UNL     1       6.911   4.821  14.567  0.00  0.00    +0.000 A 
ATOM     11  C   UNL     1       7.749   5.054  13.483  0.00  0.00    +0.000 A 
ATOM     12  N   UNL     1       7.534   4.559  12.240  0.00  0.00    +0.000 NA
ATOM     13  C   UNL     1       6.435   3.796  12.066  0.00  0.00    +0.000 A 
ATOM     14  C   UNL     1       5.530   3.523  13.074  0.00  0.00    +0.000 A 
ATOM     15  C   UNL     1       5.771   4.053  14.341  0.00  0.00    +0.000 A 
ATOM     16 CL   UNL     1       4.619   3.709  15.582  0.00  0.00    +0.000 Cl
ENDBRANCH   9  10
ENDBRANCH   3   8
BRANCH   4  17
ATOM     17  N   UNL     1       4.879   5.117  19.377  0.00  0.00    +0.000 NA
ATOM     18  C   UNL     1       4.412   3.911  19.272  0.00  0.00    +0.000 C 
BRANCH  18  19
ATOM     19  C   UNL     1       3.183   3.487  19.957  0.00  0.00    +0.000 A 
ATOM     20  C   UNL     1       3.264   2.832  21.180  0.00  0.00    +0.000 A 
ATOM     21  N   UNL     1       2.183   2.459  21.910  0.00  0.00    +0.000 NA
ATOM     22  C   UNL     1       0.969   2.755  21.403  0.00  0.00    +0.000 A 
ATOM     23  C   UNL     1       0.782   3.396  20.194  0.00  0.00    +0.000 A 
ATOM     24  C   UNL     1       1.912   3.767  19.463  0.00  0.00    +0.000 A 
ATOM     25 CL   UNL     1       1.641   4.579  17.962  0.00  0.00    +0.000 Cl
ENDBRANCH  18  19
ENDBRANCH   4  17
TORSDOF 4
ENDMDL
MODEL 3
REMARK VINA RESULT:      -7.3      4.191      5.502
REMARK  Name = 
REMARK  4 active torsions:
REMARK  status: ('A' for Active; 'I' for Inactive)
REMARK    1  A    between atoms: N_3  and  N_4
REMARK    2  A    between atoms: C_5  and  C_6
REMARK    3  A    between atoms: N_13  and  N_14
REMARK    4  A    between atoms: C_15  and  C_16
REMARK                            x       y       z     vdW  Elec       q    Type
REMARK                         _______ _______ _______ _____ _____    ______ ____
ROOT
ATOM      1  N   UNL     1       0.850   3.120  21.003  0.00  0.00    +0.000 NA
ATOM      2  C   UNL     1       1.866   3.612  20.368  0.00  0.00    +0.000 C 
ATOM      3  N   UNL     1       2.668   2.847  19.545  0.00  0.00    +0.000 N 
ATOM      4  N   UNL     1       2.233   4.939  20.390  0.00  0.00    +0.000 N 
ATOM      5  H   UNL     1       0.762   2.123  20.818  0.00  0.00    +0.000 HD
ATOM      6  H   UNL     1       2.400   1.869  19.491  0.00  0.00    +0.000 HD
ATOM      7  H   UNL     1       3.206   5.080  20.129  0.00  0.00    +0.000 HD
ENDROOT
BRANCH   3   8
ATOM      8  N   UNL     1       3.356   3.393  18.493  0.00  0.00    +0.000 NA
ATOM      9  C   UNL     1       4.601   3.674  18.712  0.00  0.00    +0.000 C 
BRANCH   9  10
ATOM     10  C   UNL     1       5.456   4.178  17.623  0.00  0.00    +0.000 A 
ATOM     11  C   UNL     1       5.190   3.799  16.313  0.00  0.00    +0.000 A 
ATOM     12  N   UNL     1       5.902   4.224  15.242  0.00  0.00    +0.000 NA
ATOM     13  C   UNL     1       6.928   5.066  15.484  0.00  0.00    +0.000 A 
ATOM     14  C   UNL     1       7.287   5.486  16.750  0.00  0.00    +0.000 A 
ATOM     15  C   UNL     1       6.542   5.025  17.836  0.00  0.00    +0.000 A 
ATOM     16 CL   UNL     1       7.016   5.553  19.410  0.00  0.00    +0.000 Cl
ENDBRANCH   9  10
ENDBRANCH   3   8
BRANCH   4  17
ATOM     17  N   UNL     1       1.538   6.036  20.805  0.00  0.00    +0.000 NA
ATOM     18  C   UNL     1       1.908   7.145  20.240  0.00  0.00    +0.000 C 
BRANCH  18  19
ATOM     19  C   UNL     1       1.314   8.440  20.600  0.00  0.00    +0.000 A 
ATOM     20  C   UNL     1       1.102   8.756  21.936  0.00  0.00    +0.000 A 
ATOM     21  N   UNL     1       0.617   9.949  22.363  0.00  0.00    +0.000 NA
ATOM     22  C   UNL     1       0.335  10.869  21.419  0.00  0.00    +0.000 A 
ATOM     23  C   UNL     1       0.504  10.650  20.065  0.00  0.00    +0.000 A 
ATOM     24  C   UNL     1       1.003   9.414  19.655  0.00  0.00    +0.000 A 
ATOM     25 CL   UNL     1       1.214   9.180  17.955  0.00  0.00    +0.000 Cl
ENDBRANCH  18  19
ENDBRANCH   4  17
TORSDOF 4
ENDMDL
MODEL 4
REMARK VINA RESULT:      -7.2      4.486      6.003
REMARK  Name = 
REMARK  4 active torsions:
REMARK  status: ('A' for Active; 'I' for Inactive)
REMARK    1  A    between atoms: N_3  and  N_4
REMARK    2  A    between atoms: C_5  and  C_6
REMARK    3  A    between atoms: N_13  and  N_14
REMARK    4  A    between atoms: C_15  and  C_16
REMARK                            x       y       z     vdW  Elec       q    Type
REMARK                         _______ _______ _______ _____ _____    ______ ____
ROOT
ATOM      1  N   UNL     1       0.520   3.639  20.428  0.00  0.00    +0.000 NA
ATOM      2  C   UNL     1       1.696   4.181  20.482  0.00  0.00    +0.000 C 
ATOM      3  N   UNL     1       2.840   3.510  20.099  0.00  0.00    +0.000 N 
ATOM      4  N   UNL     1       1.939   5.481  20.865  0.00  0.00    +0.000 N 
ATOM      5  H   UNL     1       0.584   2.680  20.094  0.00  0.00    +0.000 HD
ATOM      6  H   UNL     1       2.681   2.557  19.786  0.00  0.00    +0.000 HD
ATOM      7  H   UNL     1       2.900   5.626  21.166  0.00  0.00    +0.000 HD
ENDROOT
BRANCH   3   8
ATOM      8  N   UNL     1       3.947   4.173  19.638  0.00  0.00    +0.000 NA
ATOM      9  C   UNL     1       4.120   4.167  18.354  0.00  0.00    +0.000 C 
BRANCH   9  10
ATOM     10  C   UNL     1       5.226   4.927  17.745  0.00  0.00    +0.000 A 
ATOM     11  C   UNL     1       6.422   4.282  17.458  0.00  0.00    +0.000 A 
ATOM     12  N   UNL     1       7.489   4.886  16.882  0.00  0.00    +0.000 NA
ATOM     13  C   UNL     1       7.360   6.193  16.575  0.00  0.00    +0.000 A 
ATOM     14  C   UNL     1       6.221   6.929  16.838  0.00  0.00    +0.000 A 
ATOM     15  C   UNL     1       5.141   6.284  17.442  0.00  0.00    +0.000 A 
ATOM     16 CL   UNL     1       3.733   7.228  17.773  0.00  0.00    +0.000 Cl
ENDBRANCH   9  10
ENDBRANCH   3   8
BRANCH   4  17
ATOM     17  N   UNL     1       1.083   6.533  21.000  0.00  0.00    +0.000 NA
ATOM     18  C   UNL     1       1.669   7.688  21.089  0.00  0.00    +0.000 C 
BRANCH  18  19
ATOM     19  C   UNL     1       0.914   8.931  21.297  0.00  0.00    +0.000 A 
ATOM     20  C   UNL     1       0.544   9.309  22.582  0.00  0.00    +0.000 A 
ATOM     21  N   UNL     1      -0.099  10.468  22.874  0.00  0.00    +0.000 NA
ATOM     22  C   UNL     1      -0.383  11.288  21.842  0.00  0.00    +0.000 A 
ATOM     23  C   UNL     1      -0.064  11.001  20.529  0.00  0.00    +0.000 A 
ATOM     24  C   UNL     1       0.596   9.802  20.258  0.00  0.00    +0.000 A 
ATOM     25 CL   UNL     1       0.992   9.482  18.606  0.00  0.00    +0.000 Cl
ENDBRANCH  18  19
ENDBRANCH   4  17
TORSDOF 4
ENDMDL
MODEL 5
REMARK VINA RESULT:      -7.2      1.590      1.798
REMARK  Name = 
REMARK  4 active torsions:
REMARK  status: ('A' for Active; 'I' for Inactive)
REMARK    1  A    between atoms: N_3  and  N_4
REMARK    2  A    between atoms: C_5  and  C_6
REMARK    3  A    between atoms: N_13  and  N_14
REMARK    4  A    between atoms: C_15  and  C_16
REMARK                            x       y       z     vdW  Elec       q    Type
REMARK                         _______ _______ _______ _____ _____    ______ ____
ROOT
ATOM      1  N   UNL     1       8.039   6.102  19.405  0.00  0.00    +0.000 NA
ATOM      2  C   UNL     1       7.264   6.215  18.373  0.00  0.00    +0.000 C 
ATOM      3  N   UNL     1       7.736   6.578  17.126  0.00  0.00    +0.000 N 
ATOM      4  N   UNL     1       5.915   5.940  18.376  0.00  0.00    +0.000 N 
ATOM      5  H   UNL     1       8.999   6.335  19.158  0.00  0.00    +0.000 HD
ATOM      6  H   UNL     1       8.735   6.760  17.094  0.00  0.00    +0.000 HD
ATOM      7  H   UNL     1       5.422   6.391  17.609  0.00  0.00    +0.000 HD
ENDROOT
BRANCH   3   8
ATOM      8  N   UNL     1       7.105   6.192  15.974  0.00  0.00    +0.000 NA
ATOM      9  C   UNL     1       7.595   5.151  15.378  0.00  0.00    +0.000 C 
BRANCH   9  10
ATOM     10  C   UNL     1       6.937   4.596  14.182  0.00  0.00    +0.000 A 
ATOM     11  C   UNL     1       7.608   4.606  12.966  0.00  0.00    +0.000 A 
ATOM     12  N   UNL     1       7.098   4.102  11.816  0.00  0.00    +0.000 NA
ATOM     13  C   UNL     1       5.864   3.562  11.878  0.00  0.00    +0.000 A 
ATOM     14  C   UNL     1       5.107   3.522  13.033  0.00  0.00    +0.000 A 
ATOM     15  C   UNL     1       5.652   4.057  14.200  0.00  0.00    +0.000 A 
ATOM     16 CL   UNL     1       4.683   4.007  15.628  0.00  0.00    +0.000 Cl
ENDBRANCH   9  10
ENDBRANCH   3   8
BRANCH   4  17
ATOM     17  N   UNL     1       5.157   5.268  19.288  0.00  0.00    +0.000 NA
ATOM     18  C   UNL     1       4.136   4.649  18.778  0.00  0.00    +0.000 C 
BRANCH  18  19
ATOM     19  C   UNL     1       3.171   3.918  19.611  0.00  0.00    +0.000 A 
ATOM     20  C   UNL     1       2.973   4.296  20.934  0.00  0.00    +0.000 A 
ATOM     21  N   UNL     1       2.061   3.719  21.756  0.00  0.00    +0.000 NA
ATOM     22  C   UNL     1       1.311   2.726  21.239  0.00  0.00    +0.000 A 
ATOM     23  C   UNL     1       1.436   2.272  19.940  0.00  0.00    +0.000 A 
ATOM     24  C   UNL     1       2.382   2.883  19.117  0.00  0.00    +0.000 A 
ATOM     25 CL   UNL     1       2.501   2.299  17.494  0.00  0.00    +0.000 Cl
ENDBRANCH  18  19
ENDBRANCH   4  17
TORSDOF 4
ENDMDL
MODEL 6
REMARK VINA RESULT:      -6.9      6.211      7.974
REMARK  Name = 
REMARK  4 active torsions:
REMARK  status: ('A' for Active; 'I' for Inactive)
REMARK    1  A    between atoms: N_3  and  N_4
REMARK    2  A    between atoms: C_5  and  C_6
REMARK    3  A    between atoms: N_13  and  N_14
REMARK    4  A    between atoms: C_15  and  C_16
REMARK                            x       y       z     vdW  Elec       q    Type
REMARK                         _______ _______ _______ _____ _____    ______ ____
ROOT
ATOM      1  N   UNL     1       2.164  10.367  17.514  0.00  0.00    +0.000 NA
ATOM      2  C   UNL     1       2.010   9.208  18.073  0.00  0.00    +0.000 C 
ATOM      3  N   UNL     1       2.562   8.054  17.554  0.00  0.00    +0.000 N 
ATOM      4  N   UNL     1       1.339   8.996  19.257  0.00  0.00    +0.000 N 
ATOM      5  H   UNL     1       2.714  10.281  16.661  0.00  0.00    +0.000 HD
ATOM      6  H   UNL     1       3.085   8.190  16.694  0.00  0.00    +0.000 HD
ATOM      7  H   UNL     1       1.032   8.032  19.365  0.00  0.00    +0.000 HD
ENDROOT
BRANCH   3   8
ATOM      8  N   UNL     1       2.878   6.983  18.347  0.00  0.00    +0.000 NA
ATOM      9  C   UNL     1       3.078   5.859  17.734  0.00  0.00    +0.000 C 
BRANCH   9  10
ATOM     10  C   UNL     1       3.514   4.667  18.482  0.00  0.00    +0.000 A 
ATOM     11  C   UNL     1       4.839   4.561  18.887  0.00  0.00    +0.000 A 
ATOM     12  N   UNL     1       5.333   3.517  19.595  0.00  0.00    +0.000 NA
ATOM     13  C   UNL     1       4.469   2.532  19.917  0.00  0.00    +0.000 A 
ATOM     14  C   UNL     1       3.139   2.533  19.544  0.00  0.00    +0.000 A 
ATOM     15  C   UNL     1       2.659   3.616  18.807  0.00  0.00    +0.000 A 
ATOM     16 CL   UNL     1       0.996   3.589  18.342  0.00  0.00    +0.000 Cl
ENDBRANCH   9  10
ENDBRANCH   3   8
BRANCH   4  17
ATOM     17  N   UNL     1       0.944   9.882  20.215  0.00  0.00    +0.000 NA
ATOM     18  C   UNL     1      -0.314  10.195  20.163  0.00  0.00    +0.000 C 
BRANCH  18  19
ATOM     19  C   UNL     1      -0.911  11.179  21.077  0.00  0.00    +0.000 A 
ATOM     20  C   UNL     1      -1.497  12.331  20.567  0.00  0.00    +0.000 A 
ATOM     21  N   UNL     1      -2.125  13.261  21.330  0.00  0.00    +0.000 NA
ATOM     22  C   UNL     1      -2.174  13.033  22.657  0.00  0.00    +0.000 A 
ATOM     23  C   UNL     1      -1.616  11.924  23.263  0.00  0.00    +0.000 A 
ATOM     24  C   UNL     1      -0.976  10.984  22.454  0.00  0.00    +0.000 A 
ATOM     25 CL   UNL     1      -0.302   9.601  23.243  0.00  0.00    +0.000 Cl
ENDBRANCH  18  19
ENDBRANCH   4  17
TORSDOF 4
ENDMDL
MODEL 7
REMARK VINA RESULT:      -6.9      3.815      5.727
REMARK  Name = 
REMARK  4 active torsions:
REMARK  status: ('A' for Active; 'I' for Inactive)
REMARK    1  A    between atoms: N_3  and  N_4
REMARK    2  A    between atoms: C_5  and  C_6
REMARK    3  A    between atoms: N_13  and  N_14
REMARK    4  A    between atoms: C_15  and  C_16
REMARK                            x       y       z     vdW  Elec       q    Type
REMARK                         _______ _______ _______ _____ _____    ______ ____
ROOT
ATOM      1  N   UNL     1       0.209   3.007  19.442  0.00  0.00    +0.000 NA
ATOM      2  C   UNL     1       1.444   3.217  19.775  0.00  0.00    +0.000 C 
ATOM      3  N   UNL     1       2.462   2.348  19.435  0.00  0.00    +0.000 N 
ATOM      4  N   UNL     1       1.893   4.333  20.443  0.00  0.00    +0.000 N 
ATOM      5  H   UNL     1       0.121   2.129  18.934  0.00  0.00    +0.000 HD
ATOM      6  H   UNL     1       2.158   1.530  18.916  0.00  0.00    +0.000 HD
ATOM      7  H   UNL     1       2.787   4.180  20.904  0.00  0.00    +0.000 HD
ENDROOT
BRANCH   3   8
ATOM      8  N   UNL     1       3.755   2.774  19.283  0.00  0.00    +0.000 NA
ATOM      9  C   UNL     1       3.940   3.747  18.447  0.00  0.00    +0.000 C 
BRANCH   9  10
ATOM     10  C   UNL     1       5.278   4.342  18.277  0.00  0.00    +0.000 A 
ATOM     11  C   UNL     1       5.946   4.847  19.385  0.00  0.00    +0.000 A 
ATOM     12  N   UNL     1       7.185   5.395  19.337  0.00  0.00    +0.000 NA
ATOM     13  C   UNL     1       7.787   5.442  18.131  0.00  0.00    +0.000 A 
ATOM     14  C   UNL     1       7.198   4.986  16.967  0.00  0.00    +0.000 A 
ATOM     15  C   UNL     1       5.919   4.436  17.044  0.00  0.00    +0.000 A 
ATOM     16 CL   UNL     1       5.198   3.885  15.575  0.00  0.00    +0.000 Cl
ENDBRANCH   9  10
ENDBRANCH   3   8
BRANCH   4  17
ATOM     17  N   UNL     1       1.282   5.532  20.663  0.00  0.00    +0.000 NA
ATOM     18  C   UNL     1       1.984   6.561  20.298  0.00  0.00    +0.000 C 
BRANCH  18  19
ATOM     19  C   UNL     1       1.516   7.939  20.508  0.00  0.00    +0.000 A 
ATOM     20  C   UNL     1       1.253   8.391  21.796  0.00  0.00    +0.000 A 
ATOM     21  N   UNL     1       0.877   9.662  22.088  0.00  0.00    +0.000 NA
ATOM     22  C   UNL     1       0.761  10.520  21.054  0.00  0.00    +0.000 A 
ATOM     23  C   UNL     1       0.992  10.166  19.739  0.00  0.00    +0.000 A 
ATOM     24  C   UNL     1       1.376   8.853  19.467  0.00  0.00    +0.000 A 
ATOM     25 CL   UNL     1       1.670   8.449  17.812  0.00  0.00    +0.000 Cl
ENDBRANCH  18  19
ENDBRANCH   4  17
TORSDOF 4
ENDMDL
MODEL 8
REMARK VINA RESULT:      -6.9      4.123      5.864
REMARK  Name = 
REMARK  4 active torsions:
REMARK  status: ('A' for Active; 'I' for Inactive)
REMARK    1  A    between atoms: N_3  and  N_4
REMARK    2  A    between atoms: C_5  and  C_6
REMARK    3  A    between atoms: N_13  and  N_14
REMARK    4  A    between atoms: C_15  and  C_16
REMARK                            x       y       z     vdW  Elec       q    Type
REMARK                         _______ _______ _______ _____ _____    ______ ____
ROOT
ATOM      1  N   UNL     1       0.921   3.321  19.362  0.00  0.00    +0.000 NA
ATOM      2  C   UNL     1       2.069   3.758  19.775  0.00  0.00    +0.000 C 
ATOM      3  N   UNL     1       3.256   3.114  19.484  0.00  0.00    +0.000 N 
ATOM      4  N   UNL     1       2.251   4.919  20.491  0.00  0.00    +0.000 N 
ATOM      5  H   UNL     1       1.036   2.459  18.833  0.00  0.00    +0.000 HD
ATOM      6  H   UNL     1       3.149   2.268  18.932  0.00  0.00    +0.000 HD
ATOM      7  H   UNL     1       3.129   4.928  21.005  0.00  0.00    +0.000 HD
ENDROOT
BRANCH   3   8
ATOM      8  N   UNL     1       4.447   3.788  19.422  0.00  0.00    +0.000 NA
ATOM      9  C   UNL     1       4.551   4.675  18.484  0.00  0.00    +0.000 C 
BRANCH   9  10
ATOM     10  C   UNL     1       5.754   5.521  18.386  0.00  0.00    +0.000 A 
ATOM     11  C   UNL     1       6.763   5.387  19.331  0.00  0.00    +0.000 A 
ATOM     12  N   UNL     1       7.914   6.102  19.316  0.00  0.00    +0.000 NA
ATOM     13  C   UNL     1       8.070   6.991  18.314  0.00  0.00    +0.000 A 
ATOM     14  C   UNL     1       7.117   7.214  17.338  0.00  0.00    +0.000 A 
ATOM     15  C   UNL     1       5.937   6.471  17.383  0.00  0.00    +0.000 A 
ATOM     16 CL   UNL     1       4.756   6.776  16.160  0.00  0.00    +0.000 Cl
ENDBRANCH   9  10
ENDBRANCH   3   8
BRANCH   4  17
ATOM     17  N   UNL     1       1.405   5.969  20.694  0.00  0.00    +0.000 NA
ATOM     18  C   UNL     1       1.948   7.133  20.509  0.00  0.00    +0.000 C 
BRANCH  18  19
ATOM     19  C   UNL     1       1.210   8.383  20.736  0.00  0.00    +0.000 A 
ATOM     20  C   UNL     1       0.716   8.675  22.002  0.00  0.00    +0.000 A 
ATOM     21  N   UNL     1       0.077   9.830  22.316  0.00  0.00    +0.000 NA
ATOM     22  C   UNL     1      -0.073  10.736  21.328  0.00  0.00    +0.000 A 
ATOM     23  C   UNL     1       0.375  10.538  20.036  0.00  0.00    +0.000 A 
ATOM     24  C   UNL     1       1.027   9.340  19.741  0.00  0.00    +0.000 A 
ATOM     25 CL   UNL     1       1.586   9.132  18.119  0.00  0.00    +0.000 Cl
ENDBRANCH  18  19
ENDBRANCH   4  17
TORSDOF 4
ENDMDL
MODEL 9
REMARK VINA RESULT:      -6.9      4.460      6.500
REMARK  Name = 
REMARK  4 active torsions:
REMARK  status: ('A' for Active; 'I' for Inactive)
REMARK    1  A    between atoms: N_3  and  N_4
REMARK    2  A    between atoms: C_5  and  C_6
REMARK    3  A    between atoms: N_13  and  N_14
REMARK    4  A    between atoms: C_15  and  C_16
REMARK                            x       y       z     vdW  Elec       q    Type
REMARK                         _______ _______ _______ _____ _____    ______ ____
ROOT
ATOM      1  N   UNL     1       6.575   6.454  16.293  0.00  0.00    +0.000 NA
ATOM      2  C   UNL     1       7.272   6.931  17.276  0.00  0.00    +0.000 C 
ATOM      3  N   UNL     1       7.980   8.113  17.181  0.00  0.00    +0.000 N 
ATOM      4  N   UNL     1       7.347   6.361  18.527  0.00  0.00    +0.000 N 
ATOM      5  H   UNL     1       6.653   7.057  15.476  0.00  0.00    +0.000 HD
ATOM      6  H   UNL     1       7.917   8.566  16.274  0.00  0.00    +0.000 HD
ATOM      7  H   UNL     1       8.170   6.660  19.045  0.00  0.00    +0.000 HD
ENDROOT
BRANCH   3   8
ATOM      8  N   UNL     1       8.248   8.886  18.279  0.00  0.00    +0.000 NA
ATOM      9  C   UNL     1       8.964   9.945  18.069  0.00  0.00    +0.000 C 
BRANCH   9  10
ATOM     10  C   UNL     1       9.233  10.894  19.164  0.00  0.00    +0.000 A 
ATOM     11  C   UNL     1       9.035  10.495  20.479  0.00  0.00    +0.000 A 
ATOM     12  N   UNL     1       9.273  11.284  21.554  0.00  0.00    +0.000 NA
ATOM     13  C   UNL     1       9.729  12.530  21.310  0.00  0.00    +0.000 A 
ATOM     14  C   UNL     1       9.938  13.029  20.039  0.00  0.00    +0.000 A 
ATOM     15  C   UNL     1       9.675  12.198  18.950  0.00  0.00    +0.000 A 
ATOM     16 CL   UNL     1       9.932  12.848  17.370  0.00  0.00    +0.000 Cl
ENDBRANCH   9  10
ENDBRANCH   3   8
BRANCH   4  17
ATOM     17  N   UNL     1       6.567   5.404  19.106  0.00  0.00    +0.000 NA
ATOM     18  C   UNL     1       5.294   5.562  18.905  0.00  0.00    +0.000 C 
BRANCH  18  19
ATOM     19  C   UNL     1       4.294   4.663  19.498  0.00  0.00    +0.000 A 
ATOM     20  C   UNL     1       4.600   3.323  19.697  0.00  0.00    +0.000 A 
ATOM     21  N   UNL     1       3.761   2.436  20.292  0.00  0.00    +0.000 NA
ATOM     22  C   UNL     1       2.569   2.906  20.710  0.00  0.00    +0.000 A 
ATOM     23  C   UNL     1       2.168   4.219  20.552  0.00  0.00    +0.000 A 
ATOM     24  C   UNL     1       3.049   5.108  19.936  0.00  0.00    +0.000 A 
ATOM     25 CL   UNL     1       2.520   6.745  19.768  0.00  0.00    +0.000 Cl
ENDBRANCH  18  19
ENDBRANCH   4  17
TORSDOF 4
ENDMDL
