MODEL 1
REMARK VINA RESULT:      -6.2      0.000      0.000
REMARK  Name = 
REMARK  5 active torsions:
REMARK  status: ('A' for Active; 'I' for Inactive)
REMARK    1  A    between atoms: C_1  and  N_2
REMARK    2  A    between atoms: C_3  and  N_4
REMARK    3  A    between atoms: C_9  and  C_10
REMARK    4  A    between atoms: N_11  and  N_12
REMARK    5  A    between atoms: C_13  and  S_15
REMARK                            x       y       z     vdW  Elec       q    Type
REMARK                         _______ _______ _______ _____ _____    ______ ____
ROOT
ATOM      1  C   UNL     1       4.165   4.163  16.383  0.00  0.00    +0.000 C 
ATOM      2  N   UNL     1       5.454   4.339  17.010  0.00  0.00    +0.000 N 
ATOM      3  C   UNL     1       6.694   4.522  16.451  0.00  0.00    +0.000 A 
ATOM      4  C   UNL     1       7.578   4.597  17.499  0.00  0.00    +0.000 A 
ATOM      5  N   UNL     1       6.917   4.476  18.694  0.00  0.00    +0.000 NA
ATOM      6  C   UNL     1       5.637   4.326  18.392  0.00  0.00    +0.000 A 
ENDROOT
BRANCH   3   7
ATOM      7  N   UNL     1       7.008   4.623  15.065  0.00  0.00    +0.000 N 
ATOM      8  O   UNL     1       6.545   3.783  14.290  0.00  0.00    +0.000 OA
ATOM      9  O   UNL     1       7.741   5.566  14.739  0.00  0.00    +0.000 OA
ENDBRANCH   3   7
BRANCH   6  10
ATOM     10  C   UNL     1       4.639   4.164  19.428  0.00  0.00    +0.000 C 
ATOM     11  N   UNL     1       4.078   3.015  19.645  0.00  0.00    +0.000 NA
BRANCH  11  12
ATOM     12  N   UNL     1       3.177   3.057  20.713  0.00  0.00    +0.000 NA
ATOM     13  C   UNL     1       1.942   2.804  20.395  0.00  0.00    +0.000 C 
ATOM     14  N   UNL     1       0.938   2.773  21.309  0.00  0.00    +0.000 N 
ATOM     15  H   UNL     1       1.139   3.258  22.174  0.00  0.00    +0.000 HD
ATOM     16  H   UNL     1       0.011   2.920  20.933  0.00  0.00    +0.000 HD
BRANCH  13  17
ATOM     17  S   UNL     1       1.387   2.491  18.764  0.00  0.00    +0.000 S 
ATOM     18  H   UNL     1       1.402   3.786  18.431  0.00  0.00    +0.000 HD
ENDBRANCH  13  17
ENDBRANCH  11  12
ENDBRANCH   6  10
TORSDOF 4
ENDMDL
MODEL 2
REMARK VINA RESULT:      -6.1      3.747      6.059
REMARK  Name = 
REMARK  5 active torsions:
REMARK  status: ('A' for Active; 'I' for Inactive)
REMARK    1  A    between atoms: C_1  and  N_2
REMARK    2  A    between atoms: C_3  and  N_4
REMARK    3  A    between atoms: C_9  and  C_10
REMARK    4  A    between atoms: N_11  and  N_12
REMARK    5  A    between atoms: C_13  and  S_15
REMARK                            x       y       z     vdW  Elec       q    Type
REMARK                         _______ _______ _______ _____ _____    ______ ____
ROOT
ATOM      1  C   UNL     1       2.793   5.086  17.906  0.00  0.00    +0.000 C 
ATOM      2  N   UNL     1       3.383   4.074  18.750  0.00  0.00    +0.000 N 
ATOM      3  C   UNL     1       2.799   3.217  19.650  0.00  0.00    +0.000 A 
ATOM      4  C   UNL     1       3.822   2.491  20.207  0.00  0.00    +0.000 A 
ATOM      5  N   UNL     1       5.025   2.867  19.668  0.00  0.00    +0.000 NA
ATOM      6  C   UNL     1       4.753   3.818  18.788  0.00  0.00    +0.000 A 
ENDROOT
BRANCH   3   7
ATOM      7  N   UNL     1       1.410   3.096  19.945  0.00  0.00    +0.000 N 
ATOM      8  O   UNL     1       0.669   2.580  19.105  0.00  0.00    +0.000 OA
ATOM      9  O   UNL     1       1.047   3.531  21.045  0.00  0.00    +0.000 OA
ENDBRANCH   3   7
BRANCH   6  10
ATOM     10  C   UNL     1       5.807   4.454  18.026  0.00  0.00    +0.000 C 
ATOM     11  N   UNL     1       6.025   4.134  16.788  0.00  0.00    +0.000 NA
BRANCH  11  12
ATOM     12  N   UNL     1       7.053   4.891  16.218  0.00  0.00    +0.000 NA
ATOM     13  C   UNL     1       7.106   4.847  14.919  0.00  0.00    +0.000 C 
ATOM     14  N   UNL     1       8.021   5.543  14.196  0.00  0.00    +0.000 N 
ATOM     15  H   UNL     1       8.838   5.835  14.717  0.00  0.00    +0.000 HD
ATOM     16  H   UNL     1       8.203   5.179  13.270  0.00  0.00    +0.000 HD
BRANCH  13  17
ATOM     17  S   UNL     1       6.038   3.884  13.919  0.00  0.00    +0.000 S 
ATOM     18  H   UNL     1       6.844   3.960  12.855  0.00  0.00    +0.000 HD
ENDBRANCH  13  17
ENDBRANCH  11  12
ENDBRANCH   6  10
TORSDOF 4
ENDMDL
MODEL 3
REMARK VINA RESULT:      -5.9      3.957      6.283
REMARK  Name = 
REMARK  5 active torsions:
REMARK  status: ('A' for Active; 'I' for Inactive)
REMARK    1  A    between atoms: C_1  and  N_2
REMARK    2  A    between atoms: C_3  and  N_4
REMARK    3  A    between atoms: C_9  and  C_10
REMARK    4  A    between atoms: N_11  and  N_12
REMARK    5  A    between atoms: C_13  and  S_15
REMARK                            x       y       z     vdW  Elec       q    Type
REMARK                         _______ _______ _______ _____ _____    ______ ____
ROOT
ATOM      1  C   UNL     1       4.221   3.067  19.120  0.00  0.00    +0.000 C 
ATOM      2  N   UNL     1       3.516   4.272  19.485  0.00  0.00    +0.000 N 
ATOM      3  C   UNL     1       2.447   4.454  20.327  0.00  0.00    +0.000 A 
ATOM      4  C   UNL     1       2.151   5.794  20.284  0.00  0.00    +0.000 A 
ATOM      5  N   UNL     1       3.015   6.450  19.447  0.00  0.00    +0.000 NA
ATOM      6  C   UNL     1       3.838   5.528  18.972  0.00  0.00    +0.000 A 
ENDROOT
BRANCH   3   7
ATOM      7  N   UNL     1       1.780   3.459  21.098  0.00  0.00    +0.000 N 
ATOM      8  O   UNL     1       2.132   3.281  22.266  0.00  0.00    +0.000 OA
ATOM      9  O   UNL     1       0.881   2.834  20.521  0.00  0.00    +0.000 OA
ENDBRANCH   3   7
BRANCH   6  10
ATOM     10  C   UNL     1       4.891   5.874  18.041  0.00  0.00    +0.000 C 
ATOM     11  N   UNL     1       4.689   5.846  16.760  0.00  0.00    +0.000 NA
BRANCH  11  12
ATOM     12  N   UNL     1       5.813   6.256  16.036  0.00  0.00    +0.000 NA
ATOM     13  C   UNL     1       6.426   5.304  15.396  0.00  0.00    +0.000 C 
ATOM     14  N   UNL     1       7.518   5.524  14.620  0.00  0.00    +0.000 N 
ATOM     15  H   UNL     1       8.008   6.388  14.814  0.00  0.00    +0.000 HD
ATOM     16  H   UNL     1       8.106   4.715  14.467  0.00  0.00    +0.000 HD
BRANCH  13  17
ATOM     17  S   UNL     1       5.959   3.617  15.453  0.00  0.00    +0.000 S 
ATOM     18  H   UNL     1       6.745   3.288  14.422  0.00  0.00    +0.000 HD
ENDBRANCH  13  17
ENDBRANCH  11  12
ENDBRANCH   6  10
TORSDOF 4
ENDMDL
MODEL 4
REMARK VINA RESULT:      -5.9      3.805      6.120
REMARK  Name = 
REMARK  5 active torsions:
REMARK  status: ('A' for Active; 'I' for Inactive)
REMARK    1  A    between atoms: C_1  and  N_2
REMARK    2  A    between atoms: C_3  and  N_4
REMARK    3  A    between atoms: C_9  and  C_10
REMARK    4  A    between atoms: N_11  and  N_12
REMARK    5  A    between atoms: C_13  and  S_15
REMARK                            x       y       z     vdW  Elec       q    Type
REMARK                         _______ _______ _______ _____ _____    ______ ____
ROOT
ATOM      1  C   UNL     1       2.824   5.579  19.366  0.00  0.00    +0.000 C 
ATOM      2  N   UNL     1       3.429   4.307  19.682  0.00  0.00    +0.000 N 
ATOM      3  C   UNL     1       2.965   3.271  20.454  0.00  0.00    +0.000 A 
ATOM      4  C   UNL     1       3.954   2.319  20.451  0.00  0.00    +0.000 A 
ATOM      5  N   UNL     1       5.015   2.732  19.687  0.00  0.00    +0.000 NA
ATOM      6  C   UNL     1       4.690   3.929  19.224  0.00  0.00    +0.000 A 
ENDROOT
BRANCH   3   7
ATOM      7  N   UNL     1       1.709   3.190  21.121  0.00  0.00    +0.000 N 
ATOM      8  O   UNL     1       0.677   3.309  20.457  0.00  0.00    +0.000 OA
ATOM      9  O   UNL     1       1.752   3.008  22.345  0.00  0.00    +0.000 OA
ENDBRANCH   3   7
BRANCH   6  10
ATOM     10  C   UNL     1       5.595   4.671  18.372  0.00  0.00    +0.000 C 
ATOM     11  N   UNL     1       6.720   4.157  17.979  0.00  0.00    +0.000 NA
BRANCH  11  12
ATOM     12  N   UNL     1       7.427   5.013  17.130  0.00  0.00    +0.000 NA
ATOM     13  C   UNL     1       7.130   4.899  15.869  0.00  0.00    +0.000 C 
ATOM     14  N   UNL     1       7.698   5.670  14.906  0.00  0.00    +0.000 N 
ATOM     15  H   UNL     1       8.572   6.104  15.174  0.00  0.00    +0.000 HD
ATOM     16  H   UNL     1       7.673   5.279  13.974  0.00  0.00    +0.000 HD
BRANCH  13  17
ATOM     17  S   UNL     1       5.987   3.738  15.226  0.00  0.00    +0.000 S 
ATOM     18  H   UNL     1       6.753   2.692  15.553  0.00  0.00    +0.000 HD
ENDBRANCH  13  17
ENDBRANCH  11  12
ENDBRANCH   6  10
TORSDOF 4
ENDMDL
MODEL 5
REMARK VINA RESULT:      -5.8      0.610      1.007
REMARK  Name = 
REMARK  5 active torsions:
REMARK  status: ('A' for Active; 'I' for Inactive)
REMARK    1  A    between atoms: C_1  and  N_2
REMARK    2  A    between atoms: C_3  and  N_4
REMARK    3  A    between atoms: C_9  and  C_10
REMARK    4  A    between atoms: N_11  and  N_12
REMARK    5  A    between atoms: C_13  and  S_15
REMARK                            x       y       z     vdW  Elec       q    Type
REMARK                         _______ _______ _______ _____ _____    ______ ____
ROOT
ATOM      1  C   UNL     1       4.215   4.021  16.448  0.00  0.00    +0.000 C 
ATOM      2  N   UNL     1       5.491   4.277  17.073  0.00  0.00    +0.000 N 
ATOM      3  C   UNL     1       6.715   4.544  16.512  0.00  0.00    +0.000 A 
ATOM      4  C   UNL     1       7.595   4.670  17.559  0.00  0.00    +0.000 A 
ATOM      5  N   UNL     1       6.946   4.500  18.754  0.00  0.00    +0.000 NA
ATOM      6  C   UNL     1       5.678   4.267  18.454  0.00  0.00    +0.000 A 
ENDROOT
BRANCH   3   7
ATOM      7  N   UNL     1       7.018   4.674  15.126  0.00  0.00    +0.000 N 
ATOM      8  O   UNL     1       7.703   5.630  14.757  0.00  0.00    +0.000 OA
ATOM      9  O   UNL     1       6.554   3.799  14.384  0.00  0.00    +0.000 OA
ENDBRANCH   3   7
BRANCH   6  10
ATOM     10  C   UNL     1       4.696   4.034  19.492  0.00  0.00    +0.000 C 
ATOM     11  N   UNL     1       3.544   4.629  19.470  0.00  0.00    +0.000 NA
BRANCH  11  12
ATOM     12  N   UNL     1       2.724   4.238  20.533  0.00  0.00    +0.000 NA
ATOM     13  C   UNL     1       1.726   3.474  20.198  0.00  0.00    +0.000 C 
ATOM     14  N   UNL     1       0.845   2.976  21.104  0.00  0.00    +0.000 N 
ATOM     15  H   UNL     1       0.816   3.475  21.984  0.00  0.00    +0.000 HD
ATOM     16  H   UNL     1      -0.054   2.708  20.725  0.00  0.00    +0.000 HD
BRANCH  13  17
ATOM     17  S   UNL     1       1.357   2.994  18.555  0.00  0.00    +0.000 S 
ATOM     18  H   UNL     1       1.281   1.698  18.872  0.00  0.00    +0.000 HD
ENDBRANCH  13  17
ENDBRANCH  11  12
ENDBRANCH   6  10
TORSDOF 4
ENDMDL
MODEL 6
REMARK VINA RESULT:      -5.8      3.933      6.382
REMARK  Name = 
REMARK  5 active torsions:
REMARK  status: ('A' for Active; 'I' for Inactive)
REMARK    1  A    between atoms: C_1  and  N_2
REMARK    2  A    between atoms: C_3  and  N_4
REMARK    3  A    between atoms: C_9  and  C_10
REMARK    4  A    between atoms: N_11  and  N_12
REMARK    5  A    between atoms: C_13  and  S_15
REMARK                            x       y       z     vdW  Elec       q    Type
REMARK                         _______ _______ _______ _____ _____    ______ ____
ROOT
ATOM      1  C   UNL     1       4.105   4.637  19.744  0.00  0.00    +0.000 C 
ATOM      2  N   UNL     1       3.288   3.585  19.187  0.00  0.00    +0.000 N 
ATOM      3  C   UNL     1       2.404   2.731  19.799  0.00  0.00    +0.000 A 
ATOM      4  C   UNL     1       1.927   1.904  18.811  0.00  0.00    +0.000 A 
ATOM      5  N   UNL     1       2.483   2.231  17.602  0.00  0.00    +0.000 NA
ATOM      6  C   UNL     1       3.299   3.247  17.835  0.00  0.00    +0.000 A 
ENDROOT
BRANCH   3   7
ATOM      7  N   UNL     1       2.044   2.706  21.177  0.00  0.00    +0.000 N 
ATOM      8  O   UNL     1       0.897   3.030  21.495  0.00  0.00    +0.000 OA
ATOM      9  O   UNL     1       2.931   2.357  21.966  0.00  0.00    +0.000 OA
ENDBRANCH   3   7
BRANCH   6  10
ATOM     10  C   UNL     1       4.065   3.851  16.765  0.00  0.00    +0.000 C 
ATOM     11  N   UNL     1       5.205   3.356  16.395  0.00  0.00    +0.000 NA
BRANCH  11  12
ATOM     12  N   UNL     1       5.764   4.054  15.321  0.00  0.00    +0.000 NA
ATOM     13  C   UNL     1       6.844   4.720  15.606  0.00  0.00    +0.000 C 
ATOM     14  N   UNL     1       7.535   5.432  14.679  0.00  0.00    +0.000 N 
ATOM     15  H   UNL     1       7.007   5.673  13.851  0.00  0.00    +0.000 HD
ATOM     16  H   UNL     1       8.120   6.168  15.053  0.00  0.00    +0.000 HD
BRANCH  13  17
ATOM     17  S   UNL     1       7.549   4.818  17.206  0.00  0.00    +0.000 S 
ATOM     18  H   UNL     1       8.693   4.246  16.817  0.00  0.00    +0.000 HD
ENDBRANCH  13  17
ENDBRANCH  11  12
ENDBRANCH   6  10
TORSDOF 4
ENDMDL
MODEL 7
REMARK VINA RESULT:      -5.8      4.020      6.293
REMARK  Name = 
REMARK  5 active torsions:
REMARK  status: ('A' for Active; 'I' for Inactive)
REMARK    1  A    between atoms: C_1  and  N_2
REMARK    2  A    between atoms: C_3  and  N_4
REMARK    3  A    between atoms: C_9  and  C_10
REMARK    4  A    between atoms: N_11  and  N_12
REMARK    5  A    between atoms: C_13  and  S_15
REMARK                            x       y       z     vdW  Elec       q    Type
REMARK                         _______ _______ _______ _____ _____    ______ ____
ROOT
ATOM      1  C   UNL     1       3.645   2.440  18.611  0.00  0.00    +0.000 C 
ATOM      2  N   UNL     1       3.209   3.708  19.146  0.00  0.00    +0.000 N 
ATOM      3  C   UNL     1       2.479   3.990  20.274  0.00  0.00    +0.000 A 
ATOM      4  C   UNL     1       2.315   5.354  20.292  0.00  0.00    +0.000 A 
ATOM      5  N   UNL     1       2.934   5.925  19.211  0.00  0.00    +0.000 NA
ATOM      6  C   UNL     1       3.474   4.929  18.527  0.00  0.00    +0.000 A 
ENDROOT
BRANCH   3   7
ATOM      7  N   UNL     1       1.993   3.062  21.240  0.00  0.00    +0.000 N 
ATOM      8  O   UNL     1       0.793   2.777  21.235  0.00  0.00    +0.000 OA
ATOM      9  O   UNL     1       2.831   2.608  22.029  0.00  0.00    +0.000 OA
ENDBRANCH   3   7
BRANCH   6  10
ATOM     10  C   UNL     1       4.212   5.174  17.306  0.00  0.00    +0.000 C 
ATOM     11  N   UNL     1       5.059   6.152  17.220  0.00  0.00    +0.000 NA
BRANCH  11  12
ATOM     12  N   UNL     1       5.699   6.193  15.977  0.00  0.00    +0.000 NA
ATOM     13  C   UNL     1       6.804   5.510  15.910  0.00  0.00    +0.000 C 
ATOM     14  N   UNL     1       7.541   5.414  14.774  0.00  0.00    +0.000 N 
ATOM     15  H   UNL     1       7.363   6.140  14.092  0.00  0.00    +0.000 HD
ATOM     16  H   UNL     1       8.515   5.177  14.913  0.00  0.00    +0.000 HD
BRANCH  13  17
ATOM     17  S   UNL     1       7.511   4.642  17.257  0.00  0.00    +0.000 S 
ATOM     18  H   UNL     1       7.315   3.449  16.686  0.00  0.00    +0.000 HD
ENDBRANCH  13  17
ENDBRANCH  11  12
ENDBRANCH   6  10
TORSDOF 4
ENDMDL
MODEL 8
REMARK VINA RESULT:      -5.7      1.899      2.562
REMARK  Name = 
REMARK  5 active torsions:
REMARK  status: ('A' for Active; 'I' for Inactive)
REMARK    1  A    between atoms: C_1  and  N_2
REMARK    2  A    between atoms: C_3  and  N_4
REMARK    3  A    between atoms: C_9  and  C_10
REMARK    4  A    between atoms: N_11  and  N_12
REMARK    5  A    between atoms: C_13  and  S_15
REMARK                            x       y       z     vdW  Elec       q    Type
REMARK                         _______ _______ _______ _____ _____    ______ ____
ROOT
ATOM      1  C   UNL     1       6.720   5.251  19.382  0.00  0.00    +0.000 C 
ATOM      2  N   UNL     1       5.767   5.723  18.405  0.00  0.00    +0.000 N 
ATOM      3  C   UNL     1       5.968   6.264  17.159  0.00  0.00    +0.000 A 
ATOM      4  C   UNL     1       4.722   6.575  16.672  0.00  0.00    +0.000 A 
ATOM      5  N   UNL     1       3.753   6.230  17.578  0.00  0.00    +0.000 NA
ATOM      6  C   UNL     1       4.389   5.714  18.618  0.00  0.00    +0.000 A 
ENDROOT
BRANCH   3   7
ATOM      7  N   UNL     1       7.214   6.459  16.496  0.00  0.00    +0.000 N 
ATOM      8  O   UNL     1       7.902   7.434  16.805  0.00  0.00    +0.000 OA
ATOM      9  O   UNL     1       7.512   5.617  15.639  0.00  0.00    +0.000 OA
ENDBRANCH   3   7
BRANCH   6  10
ATOM     10  C   UNL     1       3.664   5.242  19.779  0.00  0.00    +0.000 C 
ATOM     11  N   UNL     1       2.379   5.067  19.741  0.00  0.00    +0.000 NA
BRANCH  11  12
ATOM     12  N   UNL     1       1.876   4.566  20.945  0.00  0.00    +0.000 NA
ATOM     13  C   UNL     1       1.589   3.297  20.931  0.00  0.00    +0.000 C 
ATOM     14  N   UNL     1       1.117   2.638  22.020  0.00  0.00    +0.000 N 
ATOM     15  H   UNL     1       0.708   3.232  22.730  0.00  0.00    +0.000 HD
ATOM     16  H   UNL     1       0.609   1.786  21.818  0.00  0.00    +0.000 HD
BRANCH  13  17
ATOM     17  S   UNL     1       1.744   2.266  19.524  0.00  0.00    +0.000 S 
ATOM     18  H   UNL     1       2.660   1.485  20.105  0.00  0.00    +0.000 HD
ENDBRANCH  13  17
ENDBRANCH  11  12
ENDBRANCH   6  10
TORSDOF 4
ENDMDL
MODEL 9
REMARK VINA RESULT:      -5.7      3.944      6.324
REMARK  Name = 
REMARK  5 active torsions:
REMARK  status: ('A' for Active; 'I' for Inactive)
REMARK    1  A    between atoms: C_1  and  N_2
REMARK    2  A    between atoms: C_3  and  N_4
REMARK    3  A    between atoms: C_9  and  C_10
REMARK    4  A    between atoms: N_11  and  N_12
REMARK    5  A    between atoms: C_13  and  S_15
REMARK                            x       y       z     vdW  Elec       q    Type
REMARK                         _______ _______ _______ _____ _____    ______ ____
ROOT
ATOM      1  C   UNL     1       3.925   5.198  19.876  0.00  0.00    +0.000 C 
ATOM      2  N   UNL     1       3.566   4.061  19.063  0.00  0.00    +0.000 N 
ATOM      3  C   UNL     1       2.592   3.111  19.247  0.00  0.00    +0.000 A 
ATOM      4  C   UNL     1       2.708   2.236  18.195  0.00  0.00    +0.000 A 
ATOM      5  N   UNL     1       3.721   2.625  17.357  0.00  0.00    +0.000 NA
ATOM      6  C   UNL     1       4.231   3.727  17.884  0.00  0.00    +0.000 A 
ENDROOT
BRANCH   3   7
ATOM      7  N   UNL     1       1.644   3.044  20.308  0.00  0.00    +0.000 N 
ATOM      8  O   UNL     1       1.948   2.436  21.337  0.00  0.00    +0.000 OA
ATOM      9  O   UNL     1       0.562   3.611  20.109  0.00  0.00    +0.000 OA
ENDBRANCH   3   7
BRANCH   6  10
ATOM     10  C   UNL     1       5.337   4.414  17.252  0.00  0.00    +0.000 C 
ATOM     11  N   UNL     1       6.100   3.810  16.395  0.00  0.00    +0.000 NA
BRANCH  11  12
ATOM     12  N   UNL     1       7.080   4.656  15.867  0.00  0.00    +0.000 NA
ATOM     13  C   UNL     1       7.089   4.737  14.569  0.00  0.00    +0.000 C 
ATOM     14  N   UNL     1       7.953   5.533  13.887  0.00  0.00    +0.000 N 
ATOM     15  H   UNL     1       8.776   5.806  14.408  0.00  0.00    +0.000 HD
ATOM     16  H   UNL     1       8.114   5.265  12.925  0.00  0.00    +0.000 HD
BRANCH  13  17
ATOM     17  S   UNL     1       6.021   3.833  13.517  0.00  0.00    +0.000 S 
ATOM     18  H   UNL     1       5.421   3.211  14.537  0.00  0.00    +0.000 HD
ENDBRANCH  13  17
ENDBRANCH  11  12
ENDBRANCH   6  10
TORSDOF 4
ENDMDL
