MODEL 1
REMARK VINA RESULT:      -7.5      0.000      0.000
REMARK  Name = 
REMARK  6 active torsions:
REMARK  status: ('A' for Active; 'I' for Inactive)
REMARK    1  A    between atoms: C_1  and  C_2
REMARK    2  A    between atoms: C_2  and  C_3
REMARK    3  A    between atoms: C_2  and  N_11
REMARK    4  A    between atoms: C_3  and  C_4
REMARK    5  A    between atoms: N_16  and  C_17
REMARK    6  A    between atoms: C_17  and  C_18
REMARK                            x       y       z     vdW  Elec       q    Type
REMARK                         _______ _______ _______ _____ _____    ______ ____
ROOT
ATOM      1  N   UNL     1       2.816   3.418  19.132  0.00  0.00    +0.000 NA
ATOM      2  C   UNL     1       2.868   3.002  17.722  0.00  0.00    +0.000 C 
ATOM      3  C   UNL     1       3.564   3.935  16.736  0.00  0.00    +0.000 C 
ATOM      4  C   UNL     1       5.082   3.894  16.767  0.00  0.00    +0.000 C 
ATOM      5  O   UNL     1       5.700   3.524  15.771  0.00  0.00    +0.000 OA
ATOM      6  N   UNL     1       5.731   4.346  17.907  0.00  0.00    +0.000 N 
ATOM      7  C   UNL     1       5.047   4.666  19.158  0.00  0.00    +0.000 C 
ATOM      8  C   UNL     1       4.184   3.501  19.674  0.00  0.00    +0.000 C 
ENDROOT
BRANCH   1  10
ATOM      9  C   UNL     1       0.930   4.221  20.563  0.00  0.00    +0.000 C 
ATOM     10  C   UNL     1       1.925   4.579  19.439  0.00  0.00    +0.000 C 
BRANCH  10  11
ATOM     11  C   UNL     1       2.762   5.813  19.889  0.00  0.00    +0.000 C 
BRANCH  11  12
ATOM     12  C   UNL     1       2.336   7.203  19.482  0.00  0.00    +0.000 A 
ATOM     13  C   UNL     1       2.488   7.615  18.152  0.00  0.00    +0.000 A 
ATOM     14  C   UNL     1       1.889   8.794  17.706  0.00  0.00    +0.000 A 
ATOM     15  C   UNL     1       1.135   9.574  18.580  0.00  0.00    +0.000 A 
ATOM     16  C   UNL     1       0.998   9.183  19.917  0.00  0.00    +0.000 A 
ATOM     17  C   UNL     1       1.601   8.009  20.356  0.00  0.00    +0.000 A 
ATOM     18  F   UNL     1       1.394   7.605  21.618  0.00  0.00    +0.000 F 
ENDBRANCH  11  12
ENDBRANCH  10  11
ENDBRANCH   1  10
BRANCH   6  19
ATOM     19  C   UNL     1       7.165   4.628  17.839  0.00  0.00    +0.000 C 
BRANCH  19  20
ATOM     20  C   UNL     1       7.455   6.105  17.993  0.00  0.00    +0.000 A 
ATOM     21  C   UNL     1       7.032   7.036  17.041  0.00  0.00    +0.000 A 
ATOM     22  C   UNL     1       7.438   8.356  17.176  0.00  0.00    +0.000 A 
ATOM     23  N   UNL     1       8.205   8.810  18.189  0.00  0.00    +0.000 NA
ATOM     24  C   UNL     1       8.581   7.901  19.114  0.00  0.00    +0.000 A 
ATOM     25  C   UNL     1       8.230   6.561  19.064  0.00  0.00    +0.000 A 
ENDBRANCH  19  20
ENDBRANCH   6  19
TORSDOF 5
ENDMDL
MODEL 2
REMARK VINA RESULT:      -7.3      1.052      1.430
REMARK  Name = 
REMARK  6 active torsions:
REMARK  status: ('A' for Active; 'I' for Inactive)
REMARK    1  A    between atoms: C_1  and  C_2
REMARK    2  A    between atoms: C_2  and  C_3
REMARK    3  A    between atoms: C_2  and  N_11
REMARK    4  A    between atoms: C_3  and  C_4
REMARK    5  A    between atoms: N_16  and  C_17
REMARK    6  A    between atoms: C_17  and  C_18
REMARK                            x       y       z     vdW  Elec       q    Type
REMARK                         _______ _______ _______ _____ _____    ______ ____
ROOT
ATOM      1  N   UNL     1       3.025   2.877  19.149  0.00  0.00    +0.000 NA
ATOM      2  C   UNL     1       3.078   2.583  17.708  0.00  0.00    +0.000 C 
ATOM      3  C   UNL     1       3.650   3.658  16.789  0.00  0.00    +0.000 C 
ATOM      4  C   UNL     1       5.165   3.768  16.786  0.00  0.00    +0.000 C 
ATOM      5  O   UNL     1       5.788   3.544  15.750  0.00  0.00    +0.000 OA
ATOM      6  N   UNL     1       5.799   4.189  17.946  0.00  0.00    +0.000 N 
ATOM      7  C   UNL     1       5.123   4.336  19.233  0.00  0.00    +0.000 C 
ATOM      8  C   UNL     1       4.393   3.053  19.668  0.00  0.00    +0.000 C 
ENDROOT
BRANCH   1  10
ATOM      9  C   UNL     1       1.147   3.386  20.717  0.00  0.00    +0.000 C 
ATOM     10  C   UNL     1       2.033   3.914  19.571  0.00  0.00    +0.000 C 
BRANCH  10  11
ATOM     11  C   UNL     1       2.758   5.205  20.054  0.00  0.00    +0.000 C 
BRANCH  11  12
ATOM     12  C   UNL     1       2.161   6.561  19.759  0.00  0.00    +0.000 A 
ATOM     13  C   UNL     1       1.527   7.278  20.781  0.00  0.00    +0.000 A 
ATOM     14  C   UNL     1       1.184   8.618  20.594  0.00  0.00    +0.000 A 
ATOM     15  C   UNL     1       1.466   9.254  19.388  0.00  0.00    +0.000 A 
ATOM     16  C   UNL     1       2.077   8.538  18.352  0.00  0.00    +0.000 A 
ATOM     17  C   UNL     1       2.413   7.202  18.543  0.00  0.00    +0.000 A 
ATOM     18  F   UNL     1       3.071   6.552  17.572  0.00  0.00    +0.000 F 
ENDBRANCH  11  12
ENDBRANCH  10  11
ENDBRANCH   1  10
BRANCH   6  19
ATOM     19  C   UNL     1       7.196   4.618  17.873  0.00  0.00    +0.000 C 
BRANCH  19  20
ATOM     20  C   UNL     1       7.324   6.125  17.925  0.00  0.00    +0.000 A 
ATOM     21  C   UNL     1       6.560   6.952  17.098  0.00  0.00    +0.000 A 
ATOM     22  C   UNL     1       6.814   8.317  17.105  0.00  0.00    +0.000 A 
ATOM     23  N   UNL     1       7.748   8.906  17.882  0.00  0.00    +0.000 NA
ATOM     24  C   UNL     1       8.456   8.093  18.694  0.00  0.00    +0.000 A 
ATOM     25  C   UNL     1       8.278   6.721  18.755  0.00  0.00    +0.000 A 
ENDBRANCH  19  20
ENDBRANCH   6  19
TORSDOF 5
ENDMDL
MODEL 3
REMARK VINA RESULT:      -7.3      2.348      4.017
REMARK  Name = 
REMARK  6 active torsions:
REMARK  status: ('A' for Active; 'I' for Inactive)
REMARK    1  A    between atoms: C_1  and  C_2
REMARK    2  A    between atoms: C_2  and  C_3
REMARK    3  A    between atoms: C_2  and  N_11
REMARK    4  A    between atoms: C_3  and  C_4
REMARK    5  A    between atoms: N_16  and  C_17
REMARK    6  A    between atoms: C_17  and  C_18
REMARK                            x       y       z     vdW  Elec       q    Type
REMARK                         _______ _______ _______ _____ _____    ______ ____
ROOT
ATOM      1  N   UNL     1       2.348   7.169  20.158  0.00  0.00    +0.000 NA
ATOM      2  C   UNL     1       2.102   5.932  20.916  0.00  0.00    +0.000 C 
ATOM      3  C   UNL     1       1.407   4.785  20.188  0.00  0.00    +0.000 C 
ATOM      4  C   UNL     1       2.290   3.988  19.244  0.00  0.00    +0.000 C 
ATOM      5  O   UNL     1       2.493   2.796  19.463  0.00  0.00    +0.000 OA
ATOM      6  N   UNL     1       2.789   4.621  18.115  0.00  0.00    +0.000 N 
ATOM      7  C   UNL     1       2.690   6.060  17.880  0.00  0.00    +0.000 C 
ATOM      8  C   UNL     1       3.268   6.890  19.041  0.00  0.00    +0.000 C 
ENDROOT
BRANCH   1  10
ATOM      9  C   UNL     1       0.487   8.553  21.090  0.00  0.00    +0.000 C 
ATOM     10  C   UNL     1       1.139   7.979  19.815  0.00  0.00    +0.000 C 
BRANCH  10  11
ATOM     11  C   UNL     1       1.515   9.159  18.872  0.00  0.00    +0.000 C 
BRANCH  11  12
ATOM     12  C   UNL     1       0.467  10.171  18.473  0.00  0.00    +0.000 A 
ATOM     13  C   UNL     1      -0.691   9.746  17.810  0.00  0.00    +0.000 A 
ATOM     14  C   UNL     1      -1.770  10.617  17.647  0.00  0.00    +0.000 A 
ATOM     15  C   UNL     1      -1.704  11.917  18.140  0.00  0.00    +0.000 A 
ATOM     16  C   UNL     1      -0.541  12.358  18.782  0.00  0.00    +0.000 A 
ATOM     17  C   UNL     1       0.531  11.487  18.938  0.00  0.00    +0.000 A 
ATOM     18  F   UNL     1       1.607  11.897  19.626  0.00  0.00    +0.000 F 
ENDBRANCH  11  12
ENDBRANCH  10  11
ENDBRANCH   1  10
BRANCH   6  19
ATOM     19  C   UNL     1       3.352   3.806  17.038  0.00  0.00    +0.000 C 
BRANCH  19  20
ATOM     20  C   UNL     1       4.831   4.067  16.851  0.00  0.00    +0.000 A 
ATOM     21  C   UNL     1       5.686   4.246  17.943  0.00  0.00    +0.000 A 
ATOM     22  C   UNL     1       7.004   4.606  17.702  0.00  0.00    +0.000 A 
ATOM     23  N   UNL     1       7.527   4.777  16.470  0.00  0.00    +0.000 NA
ATOM     24  C   UNL     1       6.694   4.573  15.428  0.00  0.00    +0.000 A 
ATOM     25  C   UNL     1       5.362   4.216  15.566  0.00  0.00    +0.000 A 
ENDBRANCH  19  20
ENDBRANCH   6  19
TORSDOF 5
ENDMDL
MODEL 4
REMARK VINA RESULT:      -7.3      2.354      3.708
REMARK  Name = 
REMARK  6 active torsions:
REMARK  status: ('A' for Active; 'I' for Inactive)
REMARK    1  A    between atoms: C_1  and  C_2
REMARK    2  A    between atoms: C_2  and  C_3
REMARK    3  A    between atoms: C_2  and  N_11
REMARK    4  A    between atoms: C_3  and  C_4
REMARK    5  A    between atoms: N_16  and  C_17
REMARK    6  A    between atoms: C_17  and  C_18
REMARK                            x       y       z     vdW  Elec       q    Type
REMARK                         _______ _______ _______ _____ _____    ______ ____
ROOT
ATOM      1  N   UNL     1       2.421   6.810  20.280  0.00  0.00    +0.000 NA
ATOM      2  C   UNL     1       2.125   5.521  20.924  0.00  0.00    +0.000 C 
ATOM      3  C   UNL     1       1.443   4.450  20.079  0.00  0.00    +0.000 C 
ATOM      4  C   UNL     1       2.352   3.715  19.109  0.00  0.00    +0.000 C 
ATOM      5  O   UNL     1       2.527   2.506  19.238  0.00  0.00    +0.000 OA
ATOM      6  N   UNL     1       2.908   4.428  18.056  0.00  0.00    +0.000 N 
ATOM      7  C   UNL     1       2.841   5.883  17.935  0.00  0.00    +0.000 C 
ATOM      8  C   UNL     1       3.383   6.605  19.182  0.00  0.00    +0.000 C 
ENDROOT
BRANCH   1  10
ATOM      9  C   UNL     1       0.560   8.170  21.247  0.00  0.00    +0.000 C 
ATOM     10  C   UNL     1       1.241   7.669  19.956  0.00  0.00    +0.000 C 
BRANCH  10  11
ATOM     11  C   UNL     1       1.671   8.901  19.108  0.00  0.00    +0.000 C 
BRANCH  11  12
ATOM     12  C   UNL     1       0.643   9.923  18.685  0.00  0.00    +0.000 A 
ATOM     13  C   UNL     1      -0.422   9.538  17.861  0.00  0.00    +0.000 A 
ATOM     14  C   UNL     1      -1.503  10.398  17.656  0.00  0.00    +0.000 A 
ATOM     15  C   UNL     1      -1.531  11.648  18.268  0.00  0.00    +0.000 A 
ATOM     16  C   UNL     1      -0.460  12.052  19.073  0.00  0.00    +0.000 A 
ATOM     17  C   UNL     1       0.615  11.192  19.270  0.00  0.00    +0.000 A 
ATOM     18  F   UNL     1       1.596  11.559  20.109  0.00  0.00    +0.000 F 
ENDBRANCH  11  12
ENDBRANCH  10  11
ENDBRANCH   1  10
BRANCH   6  19
ATOM     19  C   UNL     1       3.502   3.692  16.940  0.00  0.00    +0.000 C 
BRANCH  19  20
ATOM     20  C   UNL     1       4.910   4.163  16.643  0.00  0.00    +0.000 A 
ATOM     21  C   UNL     1       5.327   4.442  15.338  0.00  0.00    +0.000 A 
ATOM     22  C   UNL     1       6.663   4.747  15.120  0.00  0.00    +0.000 A 
ATOM     23  N   UNL     1       7.592   4.813  16.096  0.00  0.00    +0.000 NA
ATOM     24  C   UNL     1       7.164   4.568  17.352  0.00  0.00    +0.000 A 
ATOM     25  C   UNL     1       5.853   4.251  17.671  0.00  0.00    +0.000 A 
ENDBRANCH  19  20
ENDBRANCH   6  19
TORSDOF 5
ENDMDL
MODEL 5
REMARK VINA RESULT:      -7.1      2.392      4.047
REMARK  Name = 
REMARK  6 active torsions:
REMARK  status: ('A' for Active; 'I' for Inactive)
REMARK    1  A    between atoms: C_1  and  C_2
REMARK    2  A    between atoms: C_2  and  C_3
REMARK    3  A    between atoms: C_2  and  N_11
REMARK    4  A    between atoms: C_3  and  C_4
REMARK    5  A    between atoms: N_16  and  C_17
REMARK    6  A    between atoms: C_17  and  C_18
REMARK                            x       y       z     vdW  Elec       q    Type
REMARK                         _______ _______ _______ _____ _____    ______ ____
ROOT
ATOM      1  N   UNL     1       2.278   7.284  20.152  0.00  0.00    +0.000 NA
ATOM      2  C   UNL     1       2.060   6.064  20.944  0.00  0.00    +0.000 C 
ATOM      3  C   UNL     1       1.391   4.882  20.249  0.00  0.00    +0.000 C 
ATOM      4  C   UNL     1       2.291   4.079  19.326  0.00  0.00    +0.000 C 
ATOM      5  O   UNL     1       2.521   2.898  19.578  0.00  0.00    +0.000 OA
ATOM      6  N   UNL     1       2.776   4.691  18.180  0.00  0.00    +0.000 N 
ATOM      7  C   UNL     1       2.645   6.121  17.905  0.00  0.00    +0.000 C 
ATOM      8  C   UNL     1       3.204   6.995  19.042  0.00  0.00    +0.000 C 
ENDROOT
BRANCH   1  10
ATOM      9  C   UNL     1       0.341   8.582  21.053  0.00  0.00    +0.000 C 
ATOM     10  C   UNL     1       1.051   8.058  19.787  0.00  0.00    +0.000 C 
BRANCH  10  11
ATOM     11  C   UNL     1       1.414   9.270  18.880  0.00  0.00    +0.000 C 
BRANCH  11  12
ATOM     12  C   UNL     1       0.595  10.537  18.952  0.00  0.00    +0.000 A 
ATOM     13  C   UNL     1       1.154  11.694  19.509  0.00  0.00    +0.000 A 
ATOM     14  C   UNL     1       0.510  12.926  19.370  0.00  0.00    +0.000 A 
ATOM     15  C   UNL     1      -0.695  13.015  18.679  0.00  0.00    +0.000 A 
ATOM     16  C   UNL     1      -1.273  11.859  18.140  0.00  0.00    +0.000 A 
ATOM     17  C   UNL     1      -0.629  10.635  18.285  0.00  0.00    +0.000 A 
ATOM     18  F   UNL     1      -1.153   9.551  17.694  0.00  0.00    +0.000 F 
ENDBRANCH  11  12
ENDBRANCH  10  11
ENDBRANCH   1  10
BRANCH   6  19
ATOM     19  C   UNL     1       3.357   3.859  17.125  0.00  0.00    +0.000 C 
BRANCH  19  20
ATOM     20  C   UNL     1       4.801   4.222  16.856  0.00  0.00    +0.000 A 
ATOM     21  C   UNL     1       5.300   4.317  15.553  0.00  0.00    +0.000 A 
ATOM     22  C   UNL     1       6.660   4.529  15.377  0.00  0.00    +0.000 A 
ATOM     23  N   UNL     1       7.540   4.670  16.391  0.00  0.00    +0.000 NA
ATOM     24  C   UNL     1       7.035   4.602  17.641  0.00  0.00    +0.000 A 
ATOM     25  C   UNL     1       5.694   4.391  17.919  0.00  0.00    +0.000 A 
ENDBRANCH  19  20
ENDBRANCH   6  19
TORSDOF 5
ENDMDL
MODEL 6
REMARK VINA RESULT:      -7.0      0.892      1.044
REMARK  Name = 
REMARK  6 active torsions:
REMARK  status: ('A' for Active; 'I' for Inactive)
REMARK    1  A    between atoms: C_1  and  C_2
REMARK    2  A    between atoms: C_2  and  C_3
REMARK    3  A    between atoms: C_2  and  N_11
REMARK    4  A    between atoms: C_3  and  C_4
REMARK    5  A    between atoms: N_16  and  C_17
REMARK    6  A    between atoms: C_17  and  C_18
REMARK                            x       y       z     vdW  Elec       q    Type
REMARK                         _______ _______ _______ _____ _____    ______ ____
ROOT
ATOM      1  N   UNL     1       3.268   4.312  19.684  0.00  0.00    +0.000 NA
ATOM      2  C   UNL     1       3.432   3.153  18.792  0.00  0.00    +0.000 C 
ATOM      3  C   UNL     1       3.480   3.420  17.291  0.00  0.00    +0.000 C 
ATOM      4  C   UNL     1       4.801   3.960  16.771  0.00  0.00    +0.000 C 
ATOM      5  O   UNL     1       5.452   3.301  15.965  0.00  0.00    +0.000 OA
ATOM      6  N   UNL     1       5.201   5.226  17.176  0.00  0.00    +0.000 N 
ATOM      7  C   UNL     1       4.536   5.989  18.230  0.00  0.00    +0.000 C 
ATOM      8  C   UNL     1       4.432   5.207  19.551  0.00  0.00    +0.000 C 
ENDROOT
BRANCH   1  10
ATOM      9  C   UNL     1       0.821   4.000  20.088  0.00  0.00    +0.000 C 
ATOM     10  C   UNL     1       1.930   4.980  19.652  0.00  0.00    +0.000 C 
BRANCH  10  11
ATOM     11  C   UNL     1       1.908   6.213  20.602  0.00  0.00    +0.000 C 
BRANCH  11  12
ATOM     12  C   UNL     1       1.752   7.603  20.031  0.00  0.00    +0.000 A 
ATOM     13  C   UNL     1       1.962   7.820  18.664  0.00  0.00    +0.000 A 
ATOM     14  C   UNL     1       1.595   9.032  18.076  0.00  0.00    +0.000 A 
ATOM     15  C   UNL     1       1.018  10.038  18.846  0.00  0.00    +0.000 A 
ATOM     16  C   UNL     1       0.826   9.840  20.218  0.00  0.00    +0.000 A 
ATOM     17  C   UNL     1       1.197   8.632  20.797  0.00  0.00    +0.000 A 
ATOM     18  F   UNL     1       0.933   8.425  22.096  0.00  0.00    +0.000 F 
ENDBRANCH  11  12
ENDBRANCH  10  11
ENDBRANCH   1  10
BRANCH   6  19
ATOM     19  C   UNL     1       6.278   5.894  16.446  0.00  0.00    +0.000 C 
BRANCH  19  20
ATOM     20  C   UNL     1       7.063   6.833  17.337  0.00  0.00    +0.000 A 
ATOM     21  C   UNL     1       7.174   8.196  17.045  0.00  0.00    +0.000 A 
ATOM     22  C   UNL     1       8.010   8.977  17.830  0.00  0.00    +0.000 A 
ATOM     23  N   UNL     1       8.715   8.507  18.881  0.00  0.00    +0.000 NA
ATOM     24  C   UNL     1       8.572   7.195  19.164  0.00  0.00    +0.000 A 
ATOM     25  C   UNL     1       7.766   6.334  18.437  0.00  0.00    +0.000 A 
ENDBRANCH  19  20
ENDBRANCH   6  19
TORSDOF 5
ENDMDL
MODEL 7
REMARK VINA RESULT:      -6.9      2.798      6.622
REMARK  Name = 
REMARK  6 active torsions:
REMARK  status: ('A' for Active; 'I' for Inactive)
REMARK    1  A    between atoms: C_1  and  C_2
REMARK    2  A    between atoms: C_2  and  C_3
REMARK    3  A    between atoms: C_2  and  N_11
REMARK    4  A    between atoms: C_3  and  C_4
REMARK    5  A    between atoms: N_16  and  C_17
REMARK    6  A    between atoms: C_17  and  C_18
REMARK                            x       y       z     vdW  Elec       q    Type
REMARK                         _______ _______ _______ _____ _____    ______ ____
ROOT
ATOM      1  N   UNL     1       6.665   6.870  16.763  0.00  0.00    +0.000 NA
ATOM      2  C   UNL     1       6.933   5.424  16.774  0.00  0.00    +0.000 C 
ATOM      3  C   UNL     1       6.248   4.587  17.851  0.00  0.00    +0.000 C 
ATOM      4  C   UNL     1       4.783   4.278  17.595  0.00  0.00    +0.000 C 
ATOM      5  O   UNL     1       4.425   3.111  17.452  0.00  0.00    +0.000 OA
ATOM      6  N   UNL     1       3.876   5.327  17.600  0.00  0.00    +0.000 N 
ATOM      7  C   UNL     1       4.264   6.736  17.631  0.00  0.00    +0.000 C 
ATOM      8  C   UNL     1       5.235   7.106  16.496  0.00  0.00    +0.000 C 
ENDROOT
BRANCH   1  10
ATOM      9  C   UNL     1       8.172   6.765  18.754  0.00  0.00    +0.000 C 
ATOM     10  C   UNL     1       7.251   7.654  17.894  0.00  0.00    +0.000 C 
BRANCH  10  11
ATOM     11  C   UNL     1       8.078   8.859  17.359  0.00  0.00    +0.000 C 
BRANCH  11  12
ATOM     12  C   UNL     1       8.476   9.976  18.294  0.00  0.00    +0.000 A 
ATOM     13  C   UNL     1       9.217   9.686  19.447  0.00  0.00    +0.000 A 
ATOM     14  C   UNL     1       9.794  10.716  20.193  0.00  0.00    +0.000 A 
ATOM     15  C   UNL     1       9.638  12.042  19.797  0.00  0.00    +0.000 A 
ATOM     16  C   UNL     1       8.879  12.343  18.661  0.00  0.00    +0.000 A 
ATOM     17  C   UNL     1       8.303  11.313  17.925  0.00  0.00    +0.000 A 
ATOM     18  F   UNL     1       7.647  11.610  16.793  0.00  0.00    +0.000 F 
ENDBRANCH  11  12
ENDBRANCH  10  11
ENDBRANCH   1  10
BRANCH   6  19
ATOM     19  C   UNL     1       2.447   5.027  17.690  0.00  0.00    +0.000 C 
BRANCH  19  20
ATOM     20  C   UNL     1       2.080   4.440  19.036  0.00  0.00    +0.000 A 
ATOM     21  C   UNL     1       2.523   5.017  20.230  0.00  0.00    +0.000 A 
ATOM     22  C   UNL     1       2.258   4.360  21.423  0.00  0.00    +0.000 A 
ATOM     23  N   UNL     1       1.576   3.199  21.511  0.00  0.00    +0.000 NA
ATOM     24  C   UNL     1       1.133   2.672  20.350  0.00  0.00    +0.000 A 
ATOM     25  C   UNL     1       1.350   3.250  19.109  0.00  0.00    +0.000 A 
ENDBRANCH  19  20
ENDBRANCH   6  19
TORSDOF 5
ENDMDL
MODEL 8
REMARK VINA RESULT:      -6.9      3.113      4.698
REMARK  Name = 
REMARK  6 active torsions:
REMARK  status: ('A' for Active; 'I' for Inactive)
REMARK    1  A    between atoms: C_1  and  C_2
REMARK    2  A    between atoms: C_2  and  C_3
REMARK    3  A    between atoms: C_2  and  N_11
REMARK    4  A    between atoms: C_3  and  C_4
REMARK    5  A    between atoms: N_16  and  C_17
REMARK    6  A    between atoms: C_17  and  C_18
REMARK                            x       y       z     vdW  Elec       q    Type
REMARK                         _______ _______ _______ _____ _____    ______ ____
ROOT
ATOM      1  N   UNL     1       1.699   8.744  19.727  0.00  0.00    +0.000 NA
ATOM      2  C   UNL     1       2.008   7.827  20.834  0.00  0.00    +0.000 C 
ATOM      3  C   UNL     1       1.620   6.361  20.665  0.00  0.00    +0.000 C 
ATOM      4  C   UNL     1       2.544   5.545  19.779  0.00  0.00    +0.000 C 
ATOM      5  O   UNL     1       3.164   4.598  20.257  0.00  0.00    +0.000 OA
ATOM      6  N   UNL     1       2.608   5.855  18.428  0.00  0.00    +0.000 N 
ATOM      7  C   UNL     1       2.000   7.046  17.839  0.00  0.00    +0.000 C 
ATOM      8  C   UNL     1       2.457   8.345  18.527  0.00  0.00    +0.000 C 
ENDROOT
BRANCH   1  10
ATOM      9  C   UNL     1      -0.444   9.386  20.842  0.00  0.00    +0.000 C 
ATOM     10  C   UNL     1       0.250   9.044  19.507  0.00  0.00    +0.000 C 
BRANCH  10  11
ATOM     11  C   UNL     1       0.077  10.245  18.532  0.00  0.00    +0.000 C 
BRANCH  11  12
ATOM     12  C   UNL     1      -1.288  10.573  17.974  0.00  0.00    +0.000 A 
ATOM     13  C   UNL     1      -1.833   9.779  16.958  0.00  0.00    +0.000 A 
ATOM     14  C   UNL     1      -3.174   9.916  16.598  0.00  0.00    +0.000 A 
ATOM     15  C   UNL     1      -3.984  10.846  17.245  0.00  0.00    +0.000 A 
ATOM     16  C   UNL     1      -3.442  11.662  18.244  0.00  0.00    +0.000 A 
ATOM     17  C   UNL     1      -2.104  11.523  18.596  0.00  0.00    +0.000 A 
ATOM     18  F   UNL     1      -1.619  12.253  19.611  0.00  0.00    +0.000 F 
ENDBRANCH  11  12
ENDBRANCH  10  11
ENDBRANCH   1  10
BRANCH   6  19
ATOM     19  C   UNL     1       3.219   4.894  17.510  0.00  0.00    +0.000 C 
BRANCH  19  20
ATOM     20  C   UNL     1       4.588   5.348  17.051  0.00  0.00    +0.000 A 
ATOM     21  C   UNL     1       5.122   4.937  15.827  0.00  0.00    +0.000 A 
ATOM     22  C   UNL     1       6.430   5.285  15.522  0.00  0.00    +0.000 A 
ATOM     23  N   UNL     1       7.223   6.019  16.330  0.00  0.00    +0.000 NA
ATOM     24  C   UNL     1       6.681   6.429  17.496  0.00  0.00    +0.000 A 
ATOM     25  C   UNL     1       5.386   6.130  17.891  0.00  0.00    +0.000 A 
ENDBRANCH  19  20
ENDBRANCH   6  19
TORSDOF 5
ENDMDL
MODEL 9
REMARK VINA RESULT:      -6.8      3.975      7.651
REMARK  Name = 
REMARK  6 active torsions:
REMARK  status: ('A' for Active; 'I' for Inactive)
REMARK    1  A    between atoms: C_1  and  C_2
REMARK    2  A    between atoms: C_2  and  C_3
REMARK    3  A    between atoms: C_2  and  N_11
REMARK    4  A    between atoms: C_3  and  C_4
REMARK    5  A    between atoms: N_16  and  C_17
REMARK    6  A    between atoms: C_17  and  C_18
REMARK                            x       y       z     vdW  Elec       q    Type
REMARK                         _______ _______ _______ _____ _____    ______ ____
ROOT
ATOM      1  N   UNL     1       6.256   4.112  15.656  0.00  0.00    +0.000 NA
ATOM      2  C   UNL     1       7.369   4.288  16.602  0.00  0.00    +0.000 C 
ATOM      3  C   UNL     1       7.339   5.516  17.506  0.00  0.00    +0.000 C 
ATOM      4  C   UNL     1       6.394   5.425  18.691  0.00  0.00    +0.000 C 
ATOM      5  O   UNL     1       6.846   5.464  19.833  0.00  0.00    +0.000 OA
ATOM      6  N   UNL     1       5.029   5.369  18.444  0.00  0.00    +0.000 N 
ATOM      7  C   UNL     1       4.452   5.185  17.114  0.00  0.00    +0.000 C 
ATOM      8  C   UNL     1       4.996   3.935  16.401  0.00  0.00    +0.000 C 
ENDROOT
BRANCH   1  10
ATOM      9  C   UNL     1       7.608   5.280  13.908  0.00  0.00    +0.000 C 
ATOM     10  C   UNL     1       6.205   5.079  14.516  0.00  0.00    +0.000 C 
BRANCH  10  11
ATOM     11  C   UNL     1       5.246   4.568  13.402  0.00  0.00    +0.000 C 
BRANCH  11  12
ATOM     12  C   UNL     1       5.742   3.577  12.375  0.00  0.00    +0.000 A 
ATOM     13  C   UNL     1       7.116   3.335  12.251  0.00  0.00    +0.000 A 
ATOM     14  C   UNL     1       7.577   2.262  11.486  0.00  0.00    +0.000 A 
ATOM     15  C   UNL     1       6.674   1.424  10.836  0.00  0.00    +0.000 A 
ATOM     16  C   UNL     1       5.301   1.674  10.933  0.00  0.00    +0.000 A 
ATOM     17  C   UNL     1       4.848   2.746  11.694  0.00  0.00    +0.000 A 
ATOM     18  F   UNL     1       3.528   2.925  11.845  0.00  0.00    +0.000 F 
ENDBRANCH  11  12
ENDBRANCH  10  11
ENDBRANCH   1  10
BRANCH   6  19
ATOM     19  C   UNL     1       4.101   5.616  19.547  0.00  0.00    +0.000 C 
BRANCH  19  20
ATOM     20  C   UNL     1       3.123   4.473  19.724  0.00  0.00    +0.000 A 
ATOM     21  C   UNL     1       3.542   3.140  19.684  0.00  0.00    +0.000 A 
ATOM     22  C   UNL     1       2.580   2.141  19.726  0.00  0.00    +0.000 A 
ATOM     23  N   UNL     1       1.254   2.373  19.824  0.00  0.00    +0.000 NA
ATOM     24  C   UNL     1       0.872   3.665  19.889  0.00  0.00    +0.000 A 
ATOM     25  C   UNL     1       1.755   4.733  19.851  0.00  0.00    +0.000 A 
ENDBRANCH  19  20
ENDBRANCH   6  19
TORSDOF 5
ENDMDL
