MODEL 1
REMARK VINA RESULT:      -7.1      0.000      0.000
REMARK  Name = 
REMARK  6 active torsions:
REMARK  status: ('A' for Active; 'I' for Inactive)
REMARK    1  A    between atoms: C_1  and  C_2
REMARK    2  A    between atoms: C_2  and  C_3
REMARK    3  A    between atoms: C_2  and  C_11
REMARK    4  A    between atoms: C_3  and  C_4
REMARK    5  A    between atoms: C_7  and  O_8
REMARK    6  A    between atoms: C_14  and  O_15
REMARK                            x       y       z     vdW  Elec       q    Type
REMARK                         _______ _______ _______ _____ _____    ______ ____
ROOT
ATOM      1  C   UNL     1       3.101   8.041  17.436  0.00  0.00    +0.000 C 
ATOM      2  C   UNL     1       3.262   6.748  18.250  0.00  0.00    +0.000 C 
ENDROOT
BRANCH   2   3
ATOM      3  C   UNL     1       4.562   6.044  17.869  0.00  0.00    +0.000 A 
ATOM      4  C   UNL     1       4.923   5.887  16.520  0.00  0.00    +0.000 A 
ATOM      5  C   UNL     1       6.119   5.251  16.168  0.00  0.00    +0.000 A 
ATOM      6  C   UNL     1       6.958   4.766  17.166  0.00  0.00    +0.000 A 
ATOM      7  C   UNL     1       6.614   4.896  18.504  0.00  0.00    +0.000 A 
ATOM      8  C   UNL     1       5.423   5.532  18.853  0.00  0.00    +0.000 A 
BRANCH   6   9
ATOM      9  O   UNL     1       8.138   4.150  16.873  0.00  0.00    +0.000 OA
ATOM     10  H   UNL     1       8.210   3.345  17.410  0.00  0.00    +0.000 HD
ENDBRANCH   6   9
ENDBRANCH   2   3
BRANCH   2  11
ATOM     11  C   UNL     1       2.050   5.796  18.084  0.00  0.00    +0.000 C 
BRANCH  11  12
ATOM     12  C   UNL     1       1.852   4.798  19.206  0.00  0.00    +0.000 A 
ATOM     13  C   UNL     1       1.304   3.534  18.943  0.00  0.00    +0.000 A 
ATOM     14  C   UNL     1       1.141   2.595  19.967  0.00  0.00    +0.000 A 
ATOM     15  C   UNL     1       1.528   2.923  21.262  0.00  0.00    +0.000 A 
ATOM     16  C   UNL     1       2.075   4.167  21.543  0.00  0.00    +0.000 A 
ATOM     17  C   UNL     1       2.245   5.101  20.520  0.00  0.00    +0.000 A 
BRANCH  15  18
ATOM     18  O   UNL     1       1.390   2.041  22.292  0.00  0.00    +0.000 OA
ATOM     19  H   UNL     1       2.229   1.997  22.777  0.00  0.00    +0.000 HD
ENDBRANCH  15  18
ENDBRANCH  11  12
ENDBRANCH   2  11
TORSDOF 5
ENDMDL
MODEL 2
REMARK VINA RESULT:      -7.0      0.084      1.170
REMARK  Name = 
REMARK  6 active torsions:
REMARK  status: ('A' for Active; 'I' for Inactive)
REMARK    1  A    between atoms: C_1  and  C_2
REMARK    2  A    between atoms: C_2  and  C_3
REMARK    3  A    between atoms: C_2  and  C_11
REMARK    4  A    between atoms: C_3  and  C_4
REMARK    5  A    between atoms: C_7  and  O_8
REMARK    6  A    between atoms: C_14  and  O_15
REMARK                            x       y       z     vdW  Elec       q    Type
REMARK                         _______ _______ _______ _____ _____    ______ ____
ROOT
ATOM      1  C   UNL     1       3.056   7.998  17.380  0.00  0.00    +0.000 C 
ATOM      2  C   UNL     1       3.228   6.720  18.214  0.00  0.00    +0.000 C 
ENDROOT
BRANCH   2   3
ATOM      3  C   UNL     1       4.540   6.028  17.854  0.00  0.00    +0.000 A 
ATOM      4  C   UNL     1       5.456   5.661  18.855  0.00  0.00    +0.000 A 
ATOM      5  C   UNL     1       6.655   5.018  18.528  0.00  0.00    +0.000 A 
ATOM      6  C   UNL     1       6.945   4.742  17.197  0.00  0.00    +0.000 A 
ATOM      7  C   UNL     1       6.063   5.108  16.190  0.00  0.00    +0.000 A 
ATOM      8  C   UNL     1       4.868   5.747  16.516  0.00  0.00    +0.000 A 
BRANCH   6   9
ATOM      9  O   UNL     1       8.094   4.107  16.831  0.00  0.00    +0.000 OA
ATOM     10  H   UNL     1       8.683   4.750  16.405  0.00  0.00    +0.000 HD
ENDBRANCH   6   9
ENDBRANCH   2   3
BRANCH   2  11
ATOM     11  C   UNL     1       2.030   5.749  18.052  0.00  0.00    +0.000 C 
BRANCH  11  12
ATOM     12  C   UNL     1       1.836   4.765  19.187  0.00  0.00    +0.000 A 
ATOM     13  C   UNL     1       1.242   3.516  18.950  0.00  0.00    +0.000 A 
ATOM     14  C   UNL     1       1.081   2.590  19.986  0.00  0.00    +0.000 A 
ATOM     15  C   UNL     1       1.517   2.915  21.266  0.00  0.00    +0.000 A 
ATOM     16  C   UNL     1       2.110   4.143  21.521  0.00  0.00    +0.000 A 
ATOM     17  C   UNL     1       2.278   5.065  20.486  0.00  0.00    +0.000 A 
BRANCH  15  18
ATOM     18  O   UNL     1       1.383   2.044  22.307  0.00  0.00    +0.000 OA
ATOM     19  H   UNL     1       1.346   2.551  23.133  0.00  0.00    +0.000 HD
ENDBRANCH  15  18
ENDBRANCH  11  12
ENDBRANCH   2  11
TORSDOF 5
ENDMDL
MODEL 3
REMARK VINA RESULT:      -7.0      0.110      1.174
REMARK  Name = 
REMARK  6 active torsions:
REMARK  status: ('A' for Active; 'I' for Inactive)
REMARK    1  A    between atoms: C_1  and  C_2
REMARK    2  A    between atoms: C_2  and  C_3
REMARK    3  A    between atoms: C_2  and  C_11
REMARK    4  A    between atoms: C_3  and  C_4
REMARK    5  A    between atoms: C_7  and  O_8
REMARK    6  A    between atoms: C_14  and  O_15
REMARK                            x       y       z     vdW  Elec       q    Type
REMARK                         _______ _______ _______ _____ _____    ______ ____
ROOT
ATOM      1  C   UNL     1       3.128   8.010  17.431  0.00  0.00    +0.000 C 
ATOM      2  C   UNL     1       3.294   6.727  18.258  0.00  0.00    +0.000 C 
ENDROOT
BRANCH   2   3
ATOM      3  C   UNL     1       4.591   6.019  17.876  0.00  0.00    +0.000 A 
ATOM      4  C   UNL     1       4.870   5.707  16.533  0.00  0.00    +0.000 A 
ATOM      5  C   UNL     1       6.063   5.067  16.179  0.00  0.00    +0.000 A 
ATOM      6  C   UNL     1       6.982   4.733  17.168  0.00  0.00    +0.000 A 
ATOM      7  C   UNL     1       6.721   5.016  18.501  0.00  0.00    +0.000 A 
ATOM      8  C   UNL     1       5.534   5.656  18.853  0.00  0.00    +0.000 A 
BRANCH   6   9
ATOM      9  O   UNL     1       8.162   4.119  16.871  0.00  0.00    +0.000 OA
ATOM     10  H   UNL     1       8.810   4.340  17.559  0.00  0.00    +0.000 HD
ENDBRANCH   6   9
ENDBRANCH   2   3
BRANCH   2  11
ATOM     11  C   UNL     1       2.081   5.773  18.111  0.00  0.00    +0.000 C 
BRANCH  11  12
ATOM     12  C   UNL     1       1.904   4.772  19.234  0.00  0.00    +0.000 A 
ATOM     13  C   UNL     1       2.367   5.064  20.526  0.00  0.00    +0.000 A 
ATOM     14  C   UNL     1       2.185   4.157  21.575  0.00  0.00    +0.000 A 
ATOM     15  C   UNL     1       1.536   2.952  21.331  0.00  0.00    +0.000 A 
ATOM     16  C   UNL     1       1.067   2.645  20.062  0.00  0.00    +0.000 A 
ATOM     17  C   UNL     1       1.242   3.553  19.016  0.00  0.00    +0.000 A 
BRANCH  15  18
ATOM     18  O   UNL     1       1.334   2.038  22.323  0.00  0.00    +0.000 OA
ATOM     19  H   UNL     1       0.478   2.218  22.741  0.00  0.00    +0.000 HD
ENDBRANCH  15  18
ENDBRANCH  11  12
ENDBRANCH   2  11
TORSDOF 5
ENDMDL
MODEL 4
REMARK VINA RESULT:      -7.0      1.473      5.853
REMARK  Name = 
REMARK  6 active torsions:
REMARK  status: ('A' for Active; 'I' for Inactive)
REMARK    1  A    between atoms: C_1  and  C_2
REMARK    2  A    between atoms: C_2  and  C_3
REMARK    3  A    between atoms: C_2  and  C_11
REMARK    4  A    between atoms: C_3  and  C_4
REMARK    5  A    between atoms: C_7  and  O_8
REMARK    6  A    between atoms: C_14  and  O_15
REMARK                            x       y       z     vdW  Elec       q    Type
REMARK                         _______ _______ _______ _____ _____    ______ ____
ROOT
ATOM      1  C   UNL     1       2.286   8.082  18.212  0.00  0.00    +0.000 C 
ATOM      2  C   UNL     1       2.815   6.702  17.798  0.00  0.00    +0.000 C 
ENDROOT
BRANCH   2   3
ATOM      3  C   UNL     1       2.286   5.629  18.745  0.00  0.00    +0.000 A 
ATOM      4  C   UNL     1       2.406   5.779  20.138  0.00  0.00    +0.000 A 
ATOM      5  C   UNL     1       1.912   4.801  21.009  0.00  0.00    +0.000 A 
ATOM      6  C   UNL     1       1.298   3.666  20.490  0.00  0.00    +0.000 A 
ATOM      7  C   UNL     1       1.183   3.489  19.119  0.00  0.00    +0.000 A 
ATOM      8  C   UNL     1       1.673   4.464  18.252  0.00  0.00    +0.000 A 
BRANCH   6   9
ATOM      9  O   UNL     1       0.792   2.693  21.299  0.00  0.00    +0.000 OA
ATOM     10  H   UNL     1       0.126   2.191  20.803  0.00  0.00    +0.000 HD
ENDBRANCH   6   9
ENDBRANCH   2   3
BRANCH   2  11
ATOM     11  C   UNL     1       4.363   6.662  17.730  0.00  0.00    +0.000 C 
BRANCH  11  12
ATOM     12  C   UNL     1       4.943   5.745  16.673  0.00  0.00    +0.000 A 
ATOM     13  C   UNL     1       5.129   4.381  16.942  0.00  0.00    +0.000 A 
ATOM     14  C   UNL     1       5.640   3.520  15.965  0.00  0.00    +0.000 A 
ATOM     15  C   UNL     1       5.966   4.027  14.711  0.00  0.00    +0.000 A 
ATOM     16  C   UNL     1       5.786   5.372  14.424  0.00  0.00    +0.000 A 
ATOM     17  C   UNL     1       5.269   6.230  15.397  0.00  0.00    +0.000 A 
BRANCH  15  18
ATOM     18  O   UNL     1       6.465   3.226  13.727  0.00  0.00    +0.000 OA
ATOM     19  H   UNL     1       6.250   3.621  12.867  0.00  0.00    +0.000 HD
ENDBRANCH  15  18
ENDBRANCH  11  12
ENDBRANCH   2  11
TORSDOF 5
ENDMDL
MODEL 5
REMARK VINA RESULT:      -7.0      1.451      5.765
REMARK  Name = 
REMARK  6 active torsions:
REMARK  status: ('A' for Active; 'I' for Inactive)
REMARK    1  A    between atoms: C_1  and  C_2
REMARK    2  A    between atoms: C_2  and  C_3
REMARK    3  A    between atoms: C_2  and  C_11
REMARK    4  A    between atoms: C_3  and  C_4
REMARK    5  A    between atoms: C_7  and  O_8
REMARK    6  A    between atoms: C_14  and  O_15
REMARK                            x       y       z     vdW  Elec       q    Type
REMARK                         _______ _______ _______ _____ _____    ______ ____
ROOT
ATOM      1  C   UNL     1       2.152   7.981  18.216  0.00  0.00    +0.000 C 
ATOM      2  C   UNL     1       2.727   6.613  17.824  0.00  0.00    +0.000 C 
ENDROOT
BRANCH   2   3
ATOM      3  C   UNL     1       2.225   5.536  18.782  0.00  0.00    +0.000 A 
ATOM      4  C   UNL     1       1.536   4.410  18.298  0.00  0.00    +0.000 A 
ATOM      5  C   UNL     1       1.083   3.416  19.174  0.00  0.00    +0.000 A 
ATOM      6  C   UNL     1       1.316   3.547  20.539  0.00  0.00    +0.000 A 
ATOM      7  C   UNL     1       1.980   4.657  21.041  0.00  0.00    +0.000 A 
ATOM      8  C   UNL     1       2.432   5.645  20.168  0.00  0.00    +0.000 A 
BRANCH   6   9
ATOM      9  O   UNL     1       0.904   2.600  21.429  0.00  0.00    +0.000 OA
ATOM     10  H   UNL     1       0.241   2.037  21.000  0.00  0.00    +0.000 HD
ENDBRANCH   6   9
ENDBRANCH   2   3
BRANCH   2  11
ATOM     11  C   UNL     1       4.276   6.622  17.767  0.00  0.00    +0.000 C 
BRANCH  11  12
ATOM     12  C   UNL     1       4.892   5.726  16.712  0.00  0.00    +0.000 A 
ATOM     13  C   UNL     1       5.109   4.365  16.975  0.00  0.00    +0.000 A 
ATOM     14  C   UNL     1       5.653   3.523  15.999  0.00  0.00    +0.000 A 
ATOM     15  C   UNL     1       5.982   4.046  14.753  0.00  0.00    +0.000 A 
ATOM     16  C   UNL     1       5.772   5.389  14.471  0.00  0.00    +0.000 A 
ATOM     17  C   UNL     1       5.222   6.227  15.443  0.00  0.00    +0.000 A 
BRANCH  15  18
ATOM     18  O   UNL     1       6.513   3.265  13.770  0.00  0.00    +0.000 OA
ATOM     19  H   UNL     1       5.800   2.742  13.371  0.00  0.00    +0.000 HD
ENDBRANCH  15  18
ENDBRANCH  11  12
ENDBRANCH   2  11
TORSDOF 5
ENDMDL
MODEL 6
REMARK VINA RESULT:      -6.9      1.381      5.758
REMARK  Name = 
REMARK  6 active torsions:
REMARK  status: ('A' for Active; 'I' for Inactive)
REMARK    1  A    between atoms: C_1  and  C_2
REMARK    2  A    between atoms: C_2  and  C_3
REMARK    3  A    between atoms: C_2  and  C_11
REMARK    4  A    between atoms: C_3  and  C_4
REMARK    5  A    between atoms: C_7  and  O_8
REMARK    6  A    between atoms: C_14  and  O_15
REMARK                            x       y       z     vdW  Elec       q    Type
REMARK                         _______ _______ _______ _____ _____    ______ ____
ROOT
ATOM      1  C   UNL     1       2.783   6.654  17.994  0.00  0.00    +0.000 C 
ATOM      2  C   UNL     1       2.707   5.148  17.701  0.00  0.00    +0.000 C 
ENDROOT
BRANCH   2   3
ATOM      3  C   UNL     1       2.298   4.387  18.959  0.00  0.00    +0.000 A 
ATOM      4  C   UNL     1       1.634   3.151  18.865  0.00  0.00    +0.000 A 
ATOM      5  C   UNL     1       1.267   2.446  20.018  0.00  0.00    +0.000 A 
ATOM      6  C   UNL     1       1.561   2.976  21.269  0.00  0.00    +0.000 A 
ATOM      7  C   UNL     1       2.201   4.201  21.386  0.00  0.00    +0.000 A 
ATOM      8  C   UNL     1       2.568   4.902  20.238  0.00  0.00    +0.000 A 
BRANCH   6   9
ATOM      9  O   UNL     1       1.234   2.321  22.419  0.00  0.00    +0.000 OA
ATOM     10  H   UNL     1       1.609   2.806  23.171  0.00  0.00    +0.000 HD
ENDBRANCH   6   9
ENDBRANCH   2   3
BRANCH   2  11
ATOM     11  C   UNL     1       4.036   4.594  17.127  0.00  0.00    +0.000 C 
BRANCH  11  12
ATOM     12  C   UNL     1       5.292   5.278  17.626  0.00  0.00    +0.000 A 
ATOM     13  C   UNL     1       5.904   6.284  16.864  0.00  0.00    +0.000 A 
ATOM     14  C   UNL     1       7.050   6.939  17.328  0.00  0.00    +0.000 A 
ATOM     15  C   UNL     1       7.587   6.585  18.561  0.00  0.00    +0.000 A 
ATOM     16  C   UNL     1       6.995   5.595  19.332  0.00  0.00    +0.000 A 
ATOM     17  C   UNL     1       5.847   4.946  18.873  0.00  0.00    +0.000 A 
BRANCH  15  18
ATOM     18  O   UNL     1       8.701   7.196  19.055  0.00  0.00    +0.000 OA
ATOM     19  H   UNL     1       8.914   7.955  18.489  0.00  0.00    +0.000 HD
ENDBRANCH  15  18
ENDBRANCH  11  12
ENDBRANCH   2  11
TORSDOF 5
ENDMDL
MODEL 7
REMARK VINA RESULT:      -6.9      1.480      5.877
REMARK  Name = 
REMARK  6 active torsions:
REMARK  status: ('A' for Active; 'I' for Inactive)
REMARK    1  A    between atoms: C_1  and  C_2
REMARK    2  A    between atoms: C_2  and  C_3
REMARK    3  A    between atoms: C_2  and  C_11
REMARK    4  A    between atoms: C_3  and  C_4
REMARK    5  A    between atoms: C_7  and  O_8
REMARK    6  A    between atoms: C_14  and  O_15
REMARK                            x       y       z     vdW  Elec       q    Type
REMARK                         _______ _______ _______ _____ _____    ______ ____
ROOT
ATOM      1  C   UNL     1       2.282   8.081  18.272  0.00  0.00    +0.000 C 
ATOM      2  C   UNL     1       2.792   6.700  17.836  0.00  0.00    +0.000 C 
ENDROOT
BRANCH   2   3
ATOM      3  C   UNL     1       2.271   5.623  18.784  0.00  0.00    +0.000 A 
ATOM      4  C   UNL     1       2.397   5.772  20.176  0.00  0.00    +0.000 A 
ATOM      5  C   UNL     1       1.911   4.790  21.049  0.00  0.00    +0.000 A 
ATOM      6  C   UNL     1       1.300   3.653  20.530  0.00  0.00    +0.000 A 
ATOM      7  C   UNL     1       1.179   3.478  19.160  0.00  0.00    +0.000 A 
ATOM      8  C   UNL     1       1.661   4.457  18.292  0.00  0.00    +0.000 A 
BRANCH   6   9
ATOM      9  O   UNL     1       0.802   2.677  21.340  0.00  0.00    +0.000 OA
ATOM     10  H   UNL     1      -0.004   3.008  21.768  0.00  0.00    +0.000 HD
ENDBRANCH   6   9
ENDBRANCH   2   3
BRANCH   2  11
ATOM     11  C   UNL     1       4.338   6.648  17.739  0.00  0.00    +0.000 C 
BRANCH  11  12
ATOM     12  C   UNL     1       4.890   5.738  16.662  0.00  0.00    +0.000 A 
ATOM     13  C   UNL     1       5.258   6.257  15.412  0.00  0.00    +0.000 A 
ATOM     14  C   UNL     1       5.794   5.428  14.420  0.00  0.00    +0.000 A 
ATOM     15  C   UNL     1       5.961   4.073  14.680  0.00  0.00    +0.000 A 
ATOM     16  C   UNL     1       5.607   3.539  15.911  0.00  0.00    +0.000 A 
ATOM     17  C   UNL     1       5.080   4.367  16.904  0.00  0.00    +0.000 A 
BRANCH  15  18
ATOM     18  O   UNL     1       6.481   3.227  13.745  0.00  0.00    +0.000 OA
ATOM     19  H   UNL     1       5.751   2.762  13.308  0.00  0.00    +0.000 HD
ENDBRANCH  15  18
ENDBRANCH  11  12
ENDBRANCH   2  11
TORSDOF 5
ENDMDL
MODEL 8
REMARK VINA RESULT:      -6.9      2.077      3.058
REMARK  Name = 
REMARK  6 active torsions:
REMARK  status: ('A' for Active; 'I' for Inactive)
REMARK    1  A    between atoms: C_1  and  C_2
REMARK    2  A    between atoms: C_2  and  C_3
REMARK    3  A    between atoms: C_2  and  C_11
REMARK    4  A    between atoms: C_3  and  C_4
REMARK    5  A    between atoms: C_7  and  O_8
REMARK    6  A    between atoms: C_14  and  O_15
REMARK                            x       y       z     vdW  Elec       q    Type
REMARK                         _______ _______ _______ _____ _____    ______ ____
ROOT
ATOM      1  C   UNL     1       5.565   4.494  14.630  0.00  0.00    +0.000 C 
ATOM      2  C   UNL     1       5.046   4.650  16.066  0.00  0.00    +0.000 C 
ENDROOT
BRANCH   2   3
ATOM      3  C   UNL     1       6.039   5.455  16.901  0.00  0.00    +0.000 A 
ATOM      4  C   UNL     1       6.823   4.829  17.885  0.00  0.00    +0.000 A 
ATOM      5  C   UNL     1       7.741   5.563  18.645  0.00  0.00    +0.000 A 
ATOM      6  C   UNL     1       7.876   6.930  18.424  0.00  0.00    +0.000 A 
ATOM      7  C   UNL     1       7.102   7.572  17.469  0.00  0.00    +0.000 A 
ATOM      8  C   UNL     1       6.189   6.839  16.711  0.00  0.00    +0.000 A 
BRANCH   6   9
ATOM      9  O   UNL     1       8.764   7.685  19.130  0.00  0.00    +0.000 OA
ATOM     10  H   UNL     1       8.892   8.528  18.668  0.00  0.00    +0.000 HD
ENDBRANCH   6   9
ENDBRANCH   2   3
BRANCH   2  11
ATOM     11  C   UNL     1       4.747   3.283  16.733  0.00  0.00    +0.000 C 
BRANCH  11  12
ATOM     12  C   UNL     1       3.583   3.276  17.703  0.00  0.00    +0.000 A 
ATOM     13  C   UNL     1       2.515   4.170  17.538  0.00  0.00    +0.000 A 
ATOM     14  C   UNL     1       1.424   4.153  18.413  0.00  0.00    +0.000 A 
ATOM     15  C   UNL     1       1.401   3.237  19.460  0.00  0.00    +0.000 A 
ATOM     16  C   UNL     1       2.446   2.342  19.638  0.00  0.00    +0.000 A 
ATOM     17  C   UNL     1       3.532   2.353  18.760  0.00  0.00    +0.000 A 
BRANCH  15  18
ATOM     18  O   UNL     1       0.359   3.183  20.336  0.00  0.00    +0.000 OA
ATOM     19  H   UNL     1      -0.469   3.153  19.832  0.00  0.00    +0.000 HD
ENDBRANCH  15  18
ENDBRANCH  11  12
ENDBRANCH   2  11
TORSDOF 5
ENDMDL
MODEL 9
REMARK VINA RESULT:      -6.9      1.591      2.263
REMARK  Name = 
REMARK  6 active torsions:
REMARK  status: ('A' for Active; 'I' for Inactive)
REMARK    1  A    between atoms: C_1  and  C_2
REMARK    2  A    between atoms: C_2  and  C_3
REMARK    3  A    between atoms: C_2  and  C_11
REMARK    4  A    between atoms: C_3  and  C_4
REMARK    5  A    between atoms: C_7  and  O_8
REMARK    6  A    between atoms: C_14  and  O_15
REMARK                            x       y       z     vdW  Elec       q    Type
REMARK                         _______ _______ _______ _____ _____    ______ ____
ROOT
ATOM      1  C   UNL     1       4.181   3.293  17.227  0.00  0.00    +0.000 C 
ATOM      2  C   UNL     1       4.044   4.811  17.044  0.00  0.00    +0.000 C 
ENDROOT
BRANCH   2   3
ATOM      3  C   UNL     1       5.302   5.518  17.541  0.00  0.00    +0.000 A 
ATOM      4  C   UNL     1       5.773   6.677  16.901  0.00  0.00    +0.000 A 
ATOM      5  C   UNL     1       6.922   7.333  17.360  0.00  0.00    +0.000 A 
ATOM      6  C   UNL     1       7.605   6.828  18.461  0.00  0.00    +0.000 A 
ATOM      7  C   UNL     1       7.168   5.676  19.099  0.00  0.00    +0.000 A 
ATOM      8  C   UNL     1       6.023   5.025  18.642  0.00  0.00    +0.000 A 
BRANCH   6   9
ATOM      9  O   UNL     1       8.721   7.438  18.952  0.00  0.00    +0.000 OA
ATOM     10  H   UNL     1       9.504   6.997  18.585  0.00  0.00    +0.000 HD
ENDBRANCH   6   9
ENDBRANCH   2   3
BRANCH   2  11
ATOM     11  C   UNL     1       2.781   5.374  17.745  0.00  0.00    +0.000 C 
BRANCH  11  12
ATOM     12  C   UNL     1       2.301   4.588  18.947  0.00  0.00    +0.000 A 
ATOM     13  C   UNL     1       2.793   4.876  20.228  0.00  0.00    +0.000 A 
ATOM     14  C   UNL     1       2.337   4.173  21.348  0.00  0.00    +0.000 A 
ATOM     15  C   UNL     1       1.383   3.174  21.184  0.00  0.00    +0.000 A 
ATOM     16  C   UNL     1       0.880   2.875  19.926  0.00  0.00    +0.000 A 
ATOM     17  C   UNL     1       1.330   3.583  18.809  0.00  0.00    +0.000 A 
BRANCH  15  18
ATOM     18  O   UNL     1       0.907   2.463  22.246  0.00  0.00    +0.000 OA
ATOM     19  H   UNL     1       0.182   2.963  22.653  0.00  0.00    +0.000 HD
ENDBRANCH  15  18
ENDBRANCH  11  12
ENDBRANCH   2  11
TORSDOF 5
ENDMDL
