MODEL 1
REMARK VINA RESULT:      -7.0      0.000      0.000
REMARK  Name = 
REMARK  6 active torsions:
REMARK  status: ('A' for Active; 'I' for Inactive)
REMARK    1  A    between atoms: C_1  and  C_2
REMARK    2  A    between atoms: C_2  and  C_3
REMARK    3  A    between atoms: C_2  and  N_9
REMARK    4  A    between atoms: N_9  and  C_10
REMARK    5  A    between atoms: C_11  and  C_13
REMARK    6  A    between atoms: C_18  and  C_19
REMARK                            x       y       z     vdW  Elec       q    Type
REMARK                         _______ _______ _______ _____ _____    ______ ____
ROOT
ATOM      1  N   UNL     1       3.763   5.928  18.570  0.00  0.00    +0.000 N 
ATOM      2  C   UNL     1       3.282   6.796  17.498  0.00  0.00    +0.000 C 
ATOM      3  C   UNL     1       4.758   4.949  18.424  0.00  0.00    +0.000 C 
ATOM      4  O   UNL     1       5.104   4.231  19.363  0.00  0.00    +0.000 OA
ENDROOT
BRANCH   3   5
ATOM      5  C   UNL     1       5.469   4.720  17.125  0.00  0.00    +0.000 A 
ATOM      6  C   UNL     1       4.850   4.012  16.080  0.00  0.00    +0.000 A 
ATOM      7  C   UNL     1       5.498   3.805  14.858  0.00  0.00    +0.000 A 
ATOM      8  C   UNL     1       6.739   4.384  14.623  0.00  0.00    +0.000 A 
ATOM      9  C   UNL     1       7.340   5.149  15.622  0.00  0.00    +0.000 A 
ATOM     10  C   UNL     1       6.731   5.306  16.880  0.00  0.00    +0.000 A 
BRANCH  10  11
ATOM     11  C   UNL     1       7.456   6.052  17.876  0.00  0.00    +0.000 C 
ATOM     12  N   UNL     1       7.958   6.703  18.690  0.00  0.00    +0.000 NA
ENDBRANCH  10  11
ENDBRANCH   3   5
BRANCH   1  14
ATOM     13  C   UNL     1       2.221   7.311  19.977  0.00  0.00    +0.000 C 
ATOM     14  C   UNL     1       3.101   6.054  19.894  0.00  0.00    +0.000 C 
BRANCH  14  15
ATOM     15  C   UNL     1       2.390   4.769  20.284  0.00  0.00    +0.000 A 
ATOM     16  C   UNL     1       1.529   4.140  19.378  0.00  0.00    +0.000 A 
ATOM     17  C   UNL     1       0.884   2.956  19.735  0.00  0.00    +0.000 A 
ATOM     18  C   UNL     1       1.105   2.442  21.000  0.00  0.00    +0.000 A 
ATOM     19  N   UNL     1       1.907   3.027  21.915  0.00  0.00    +0.000 NA
ATOM     20  C   UNL     1       2.526   4.167  21.535  0.00  0.00    +0.000 A 
ENDBRANCH  14  15
ENDBRANCH   1  14
TORSDOF 4
ENDMDL
MODEL 2
REMARK VINA RESULT:      -6.9      0.807      1.156
REMARK  Name = 
REMARK  6 active torsions:
REMARK  status: ('A' for Active; 'I' for Inactive)
REMARK    1  A    between atoms: C_1  and  C_2
REMARK    2  A    between atoms: C_2  and  C_3
REMARK    3  A    between atoms: C_2  and  N_9
REMARK    4  A    between atoms: N_9  and  C_10
REMARK    5  A    between atoms: C_11  and  C_13
REMARK    6  A    between atoms: C_18  and  C_19
REMARK                            x       y       z     vdW  Elec       q    Type
REMARK                         _______ _______ _______ _____ _____    ______ ____
ROOT
ATOM      1  N   UNL     1       3.856   5.919  18.400  0.00  0.00    +0.000 N 
ATOM      2  C   UNL     1       3.489   6.933  17.416  0.00  0.00    +0.000 C 
ATOM      3  C   UNL     1       4.811   4.909  18.195  0.00  0.00    +0.000 C 
ATOM      4  O   UNL     1       5.059   4.066  19.057  0.00  0.00    +0.000 OA
ENDROOT
BRANCH   3   5
ATOM      5  C   UNL     1       5.593   4.798  16.922  0.00  0.00    +0.000 A 
ATOM      6  C   UNL     1       5.065   4.125  15.807  0.00  0.00    +0.000 A 
ATOM      7  C   UNL     1       5.780   4.027  14.609  0.00  0.00    +0.000 A 
ATOM      8  C   UNL     1       6.996   4.683  14.471  0.00  0.00    +0.000 A 
ATOM      9  C   UNL     1       7.507   5.416  15.543  0.00  0.00    +0.000 A 
ATOM     10  C   UNL     1       6.832   5.463  16.775  0.00  0.00    +0.000 A 
BRANCH  10  11
ATOM     11  C   UNL     1       7.466   6.184  17.848  0.00  0.00    +0.000 C 
ATOM     12  N   UNL     1       8.009   6.824  18.645  0.00  0.00    +0.000 NA
ENDBRANCH  10  11
ENDBRANCH   3   5
BRANCH   1  14
ATOM     13  C   UNL     1       2.330   7.227  19.893  0.00  0.00    +0.000 C 
ATOM     14  C   UNL     1       3.116   5.922  19.688  0.00  0.00    +0.000 C 
BRANCH  14  15
ATOM     15  C   UNL     1       2.283   4.661  19.853  0.00  0.00    +0.000 A 
ATOM     16  C   UNL     1       2.193   4.037  21.102  0.00  0.00    +0.000 A 
ATOM     17  C   UNL     1       1.422   2.885  21.252  0.00  0.00    +0.000 A 
ATOM     18  C   UNL     1       0.774   2.377  20.140  0.00  0.00    +0.000 A 
ATOM     19  N   UNL     1       0.852   2.931  18.912  0.00  0.00    +0.000 NA
ATOM     20  C   UNL     1       1.599   4.053  18.800  0.00  0.00    +0.000 A 
ENDBRANCH  14  15
ENDBRANCH   1  14
TORSDOF 4
ENDMDL
MODEL 3
REMARK VINA RESULT:      -6.9      1.739      6.038
REMARK  Name = 
REMARK  6 active torsions:
REMARK  status: ('A' for Active; 'I' for Inactive)
REMARK    1  A    between atoms: C_1  and  C_2
REMARK    2  A    between atoms: C_2  and  C_3
REMARK    3  A    between atoms: C_2  and  N_9
REMARK    4  A    between atoms: N_9  and  C_10
REMARK    5  A    between atoms: C_11  and  C_13
REMARK    6  A    between atoms: C_18  and  C_19
REMARK                            x       y       z     vdW  Elec       q    Type
REMARK                         _______ _______ _______ _____ _____    ______ ____
ROOT
ATOM      1  N   UNL     1       4.881   4.031  17.545  0.00  0.00    +0.000 N 
ATOM      2  C   UNL     1       3.771   3.989  16.597  0.00  0.00    +0.000 C 
ATOM      3  C   UNL     1       4.749   3.940  18.940  0.00  0.00    +0.000 C 
ATOM      4  O   UNL     1       5.723   4.006  19.690  0.00  0.00    +0.000 OA
ENDROOT
BRANCH   3   5
ATOM      5  C   UNL     1       3.420   3.747  19.605  0.00  0.00    +0.000 A 
ATOM      6  C   UNL     1       3.063   2.506  20.158  0.00  0.00    +0.000 A 
ATOM      7  C   UNL     1       1.832   2.319  20.794  0.00  0.00    +0.000 A 
ATOM      8  C   UNL     1       0.973   3.395  20.974  0.00  0.00    +0.000 A 
ATOM      9  C   UNL     1       1.338   4.653  20.494  0.00  0.00    +0.000 A 
ATOM     10  C   UNL     1       2.541   4.839  19.792  0.00  0.00    +0.000 A 
BRANCH  10  11
ATOM     11  C   UNL     1       2.805   6.155  19.270  0.00  0.00    +0.000 C 
ATOM     12  N   UNL     1       2.969   7.187  18.772  0.00  0.00    +0.000 NA
ENDBRANCH  10  11
ENDBRANCH   3   5
BRANCH   1  14
ATOM     13  C   UNL     1       6.330   3.837  15.512  0.00  0.00    +0.000 C 
ATOM     14  C   UNL     1       6.242   4.250  16.990  0.00  0.00    +0.000 C 
BRANCH  14  15
ATOM     15  C   UNL     1       6.737   5.658  17.273  0.00  0.00    +0.000 A 
ATOM     16  C   UNL     1       7.743   5.872  18.222  0.00  0.00    +0.000 A 
ATOM     17  C   UNL     1       8.201   7.164  18.475  0.00  0.00    +0.000 A 
ATOM     18  C   UNL     1       7.625   8.214  17.781  0.00  0.00    +0.000 A 
ATOM     19  N   UNL     1       6.637   8.058  16.875  0.00  0.00    +0.000 NA
ATOM     20  C   UNL     1       6.221   6.792  16.645  0.00  0.00    +0.000 A 
ENDBRANCH  14  15
ENDBRANCH   1  14
TORSDOF 4
ENDMDL
MODEL 4
REMARK VINA RESULT:      -6.8      1.873      6.297
REMARK  Name = 
REMARK  6 active torsions:
REMARK  status: ('A' for Active; 'I' for Inactive)
REMARK    1  A    between atoms: C_1  and  C_2
REMARK    2  A    between atoms: C_2  and  C_3
REMARK    3  A    between atoms: C_2  and  N_9
REMARK    4  A    between atoms: N_9  and  C_10
REMARK    5  A    between atoms: C_11  and  C_13
REMARK    6  A    between atoms: C_18  and  C_19
REMARK                            x       y       z     vdW  Elec       q    Type
REMARK                         _______ _______ _______ _____ _____    ______ ____
ROOT
ATOM      1  N   UNL     1       5.281   4.616  17.736  0.00  0.00    +0.000 N 
ATOM      2  C   UNL     1       4.297   4.841  16.680  0.00  0.00    +0.000 C 
ATOM      3  C   UNL     1       4.970   4.355  19.081  0.00  0.00    +0.000 C 
ATOM      4  O   UNL     1       5.847   4.198  19.930  0.00  0.00    +0.000 OA
ENDROOT
BRANCH   3   5
ATOM      5  C   UNL     1       3.557   4.243  19.566  0.00  0.00    +0.000 A 
ATOM      6  C   UNL     1       2.888   5.356  20.102  0.00  0.00    +0.000 A 
ATOM      7  C   UNL     1       1.564   5.267  20.544  0.00  0.00    +0.000 A 
ATOM      8  C   UNL     1       0.852   4.087  20.371  0.00  0.00    +0.000 A 
ATOM      9  C   UNL     1       1.476   2.990  19.777  0.00  0.00    +0.000 A 
ATOM     10  C   UNL     1       2.827   3.045  19.392  0.00  0.00    +0.000 A 
BRANCH  10  11
ATOM     11  C   UNL     1       3.409   1.843  18.853  0.00  0.00    +0.000 C 
ATOM     12  N   UNL     1       3.892   0.926  18.338  0.00  0.00    +0.000 NA
ENDBRANCH  10  11
ENDBRANCH   3   5
BRANCH   1  14
ATOM     13  C   UNL     1       6.983   4.223  15.942  0.00  0.00    +0.000 C 
ATOM     14  C   UNL     1       6.715   4.735  17.366  0.00  0.00    +0.000 C 
BRANCH  14  15
ATOM     15  C   UNL     1       7.242   6.135  17.634  0.00  0.00    +0.000 A 
ATOM     16  C   UNL     1       8.075   6.373  18.733  0.00  0.00    +0.000 A 
ATOM     17  C   UNL     1       8.564   7.657  18.973  0.00  0.00    +0.000 A 
ATOM     18  C   UNL     1       8.191   8.674  18.112  0.00  0.00    +0.000 A 
ATOM     19  N   UNL     1       7.371   8.496  17.055  0.00  0.00    +0.000 NA
ATOM     20  C   UNL     1       6.922   7.239  16.843  0.00  0.00    +0.000 A 
ENDBRANCH  14  15
ENDBRANCH   1  14
TORSDOF 4
ENDMDL
MODEL 5
REMARK VINA RESULT:      -6.7      2.018      6.225
REMARK  Name = 
REMARK  6 active torsions:
REMARK  status: ('A' for Active; 'I' for Inactive)
REMARK    1  A    between atoms: C_1  and  C_2
REMARK    2  A    between atoms: C_2  and  C_3
REMARK    3  A    between atoms: C_2  and  N_9
REMARK    4  A    between atoms: N_9  and  C_10
REMARK    5  A    between atoms: C_11  and  C_13
REMARK    6  A    between atoms: C_18  and  C_19
REMARK                            x       y       z     vdW  Elec       q    Type
REMARK                         _______ _______ _______ _____ _____    ______ ____
ROOT
ATOM      1  N   UNL     1       4.794   5.315  18.154  0.00  0.00    +0.000 N 
ATOM      2  C   UNL     1       5.753   4.371  18.721  0.00  0.00    +0.000 C 
ATOM      3  C   UNL     1       3.422   5.340  18.450  0.00  0.00    +0.000 C 
ATOM      4  O   UNL     1       2.658   6.147  17.920  0.00  0.00    +0.000 OA
ENDROOT
BRANCH   3   5
ATOM      5  C   UNL     1       2.800   4.397  19.434  0.00  0.00    +0.000 A 
ATOM      6  C   UNL     1       2.639   4.763  20.782  0.00  0.00    +0.000 A 
ATOM      7  C   UNL     1       2.047   3.896  21.706  0.00  0.00    +0.000 A 
ATOM      8  C   UNL     1       1.517   2.684  21.281  0.00  0.00    +0.000 A 
ATOM      9  C   UNL     1       1.603   2.332  19.934  0.00  0.00    +0.000 A 
ATOM     10  C   UNL     1       2.259   3.162  19.008  0.00  0.00    +0.000 A 
BRANCH  10  11
ATOM     11  C   UNL     1       2.364   2.687  17.653  0.00  0.00    +0.000 C 
ATOM     12  N   UNL     1       2.543   2.306  16.575  0.00  0.00    +0.000 NA
ENDBRANCH  10  11
ENDBRANCH   3   5
BRANCH   1  14
ATOM     13  C   UNL     1       6.299   7.275  17.751  0.00  0.00    +0.000 C 
ATOM     14  C   UNL     1       5.303   6.276  17.142  0.00  0.00    +0.000 C 
BRANCH  14  15
ATOM     15  C   UNL     1       5.818   5.559  15.905  0.00  0.00    +0.000 A 
ATOM     16  C   UNL     1       4.988   4.673  15.209  0.00  0.00    +0.000 A 
ATOM     17  C   UNL     1       5.461   4.023  14.070  0.00  0.00    +0.000 A 
ATOM     18  C   UNL     1       6.763   4.263  13.668  0.00  0.00    +0.000 A 
ATOM     19  N   UNL     1       7.607   5.089  14.321  0.00  0.00    +0.000 NA
ATOM     20  C   UNL     1       7.116   5.713  15.416  0.00  0.00    +0.000 A 
ENDBRANCH  14  15
ENDBRANCH   1  14
TORSDOF 4
ENDMDL
MODEL 6
REMARK VINA RESULT:      -6.6      1.798      6.194
REMARK  Name = 
REMARK  6 active torsions:
REMARK  status: ('A' for Active; 'I' for Inactive)
REMARK    1  A    between atoms: C_1  and  C_2
REMARK    2  A    between atoms: C_2  and  C_3
REMARK    3  A    between atoms: C_2  and  N_9
REMARK    4  A    between atoms: N_9  and  C_10
REMARK    5  A    between atoms: C_11  and  C_13
REMARK    6  A    between atoms: C_18  and  C_19
REMARK                            x       y       z     vdW  Elec       q    Type
REMARK                         _______ _______ _______ _____ _____    ______ ____
ROOT
ATOM      1  N   UNL     1       5.197   4.686  17.675  0.00  0.00    +0.000 N 
ATOM      2  C   UNL     1       4.199   5.077  16.683  0.00  0.00    +0.000 C 
ATOM      3  C   UNL     1       4.909   4.298  18.993  0.00  0.00    +0.000 C 
ATOM      4  O   UNL     1       5.798   4.003  19.791  0.00  0.00    +0.000 OA
ENDROOT
BRANCH   3   5
ATOM      5  C   UNL     1       3.505   4.209  19.511  0.00  0.00    +0.000 A 
ATOM      6  C   UNL     1       2.880   5.325  20.093  0.00  0.00    +0.000 A 
ATOM      7  C   UNL     1       1.565   5.258  20.566  0.00  0.00    +0.000 A 
ATOM      8  C   UNL     1       0.818   4.102  20.379  0.00  0.00    +0.000 A 
ATOM      9  C   UNL     1       1.397   3.006  19.739  0.00  0.00    +0.000 A 
ATOM     10  C   UNL     1       2.739   3.036  19.323  0.00  0.00    +0.000 A 
BRANCH  10  11
ATOM     11  C   UNL     1       3.276   1.835  18.736  0.00  0.00    +0.000 C 
ATOM     12  N   UNL     1       3.793   0.899  18.295  0.00  0.00    +0.000 NA
ENDBRANCH  10  11
ENDBRANCH   3   5
BRANCH   1  14
ATOM     13  C   UNL     1       6.819   4.434  15.785  0.00  0.00    +0.000 C 
ATOM     14  C   UNL     1       6.624   4.769  17.272  0.00  0.00    +0.000 C 
BRANCH  14  15
ATOM     15  C   UNL     1       7.247   6.087  17.700  0.00  0.00    +0.000 A 
ATOM     16  C   UNL     1       7.035   7.244  16.942  0.00  0.00    +0.000 A 
ATOM     17  C   UNL     1       7.601   8.454  17.341  0.00  0.00    +0.000 A 
ATOM     18  C   UNL     1       8.381   8.470  18.484  0.00  0.00    +0.000 A 
ATOM     19  N   UNL     1       8.632   7.376  19.233  0.00  0.00    +0.000 NA
ATOM     20  C   UNL     1       8.061   6.220  18.825  0.00  0.00    +0.000 A 
ENDBRANCH  14  15
ENDBRANCH   1  14
TORSDOF 4
ENDMDL
MODEL 7
REMARK VINA RESULT:      -6.5      1.731      5.949
REMARK  Name = 
REMARK  6 active torsions:
REMARK  status: ('A' for Active; 'I' for Inactive)
REMARK    1  A    between atoms: C_1  and  C_2
REMARK    2  A    between atoms: C_2  and  C_3
REMARK    3  A    between atoms: C_2  and  N_9
REMARK    4  A    between atoms: N_9  and  C_10
REMARK    5  A    between atoms: C_11  and  C_13
REMARK    6  A    between atoms: C_18  and  C_19
REMARK                            x       y       z     vdW  Elec       q    Type
REMARK                         _______ _______ _______ _____ _____    ______ ____
ROOT
ATOM      1  N   UNL     1       4.590   5.528  18.939  0.00  0.00    +0.000 N 
ATOM      2  C   UNL     1       3.524   6.524  19.014  0.00  0.00    +0.000 C 
ATOM      3  C   UNL     1       4.466   4.189  19.344  0.00  0.00    +0.000 C 
ATOM      4  O   UNL     1       5.411   3.402  19.279  0.00  0.00    +0.000 OA
ENDROOT
BRANCH   3   5
ATOM      5  C   UNL     1       3.180   3.630  19.870  0.00  0.00    +0.000 A 
ATOM      6  C   UNL     1       2.920   3.595  21.251  0.00  0.00    +0.000 A 
ATOM      7  C   UNL     1       1.717   3.089  21.753  0.00  0.00    +0.000 A 
ATOM      8  C   UNL     1       0.711   2.696  20.879  0.00  0.00    +0.000 A 
ATOM      9  C   UNL     1       0.921   2.787  19.503  0.00  0.00    +0.000 A 
ATOM     10  C   UNL     1       2.152   3.228  18.987  0.00  0.00    +0.000 A 
BRANCH  10  11
ATOM     11  C   UNL     1       2.307   3.223  17.555  0.00  0.00    +0.000 C 
ATOM     12  N   UNL     1       2.507   3.277  16.416  0.00  0.00    +0.000 NA
ENDBRANCH  10  11
ENDBRANCH   3   5
BRANCH   1  14
ATOM     13  C   UNL     1       7.036   5.651  19.458  0.00  0.00    +0.000 C 
ATOM     14  C   UNL     1       5.918   5.988  18.459  0.00  0.00    +0.000 C 
BRANCH  14  15
ATOM     15  C   UNL     1       6.189   5.519  17.040  0.00  0.00    +0.000 A 
ATOM     16  C   UNL     1       5.214   5.677  16.048  0.00  0.00    +0.000 A 
ATOM     17  C   UNL     1       5.468   5.253  14.745  0.00  0.00    +0.000 A 
ATOM     18  C   UNL     1       6.689   4.662  14.472  0.00  0.00    +0.000 A 
ATOM     19  N   UNL     1       7.649   4.466  15.400  0.00  0.00    +0.000 NA
ATOM     20  C   UNL     1       7.377   4.898  16.652  0.00  0.00    +0.000 A 
ENDBRANCH  14  15
ENDBRANCH   1  14
TORSDOF 4
ENDMDL
MODEL 8
REMARK VINA RESULT:      -6.5      1.189      2.202
REMARK  Name = 
REMARK  6 active torsions:
REMARK  status: ('A' for Active; 'I' for Inactive)
REMARK    1  A    between atoms: C_1  and  C_2
REMARK    2  A    between atoms: C_2  and  C_3
REMARK    3  A    between atoms: C_2  and  N_9
REMARK    4  A    between atoms: N_9  and  C_10
REMARK    5  A    between atoms: C_11  and  C_13
REMARK    6  A    between atoms: C_18  and  C_19
REMARK                            x       y       z     vdW  Elec       q    Type
REMARK                         _______ _______ _______ _____ _____    ______ ____
ROOT
ATOM      1  N   UNL     1       3.410   6.232  18.888  0.00  0.00    +0.000 N 
ATOM      2  C   UNL     1       2.773   6.988  17.813  0.00  0.00    +0.000 C 
ATOM      3  C   UNL     1       4.545   5.420  18.735  0.00  0.00    +0.000 C 
ATOM      4  O   UNL     1       5.022   4.786  19.677  0.00  0.00    +0.000 OA
ENDROOT
BRANCH   3   5
ATOM      5  C   UNL     1       5.254   5.278  17.422  0.00  0.00    +0.000 A 
ATOM      6  C   UNL     1       6.443   5.981  17.165  0.00  0.00    +0.000 A 
ATOM      7  C   UNL     1       7.121   5.845  15.949  0.00  0.00    +0.000 A 
ATOM      8  C   UNL     1       6.674   4.930  15.004  0.00  0.00    +0.000 A 
ATOM      9  C   UNL     1       5.535   4.170  15.268  0.00  0.00    +0.000 A 
ATOM     10  C   UNL     1       4.805   4.348  16.456  0.00  0.00    +0.000 A 
BRANCH  10  11
ATOM     11  C   UNL     1       3.602   3.572  16.615  0.00  0.00    +0.000 C 
ATOM     12  N   UNL     1       2.637   2.972  16.835  0.00  0.00    +0.000 NA
ENDBRANCH  10  11
ENDBRANCH   3   5
BRANCH   1  14
ATOM     13  C   UNL     1       1.776   7.448  20.343  0.00  0.00    +0.000 C 
ATOM     14  C   UNL     1       2.767   6.280  20.226  0.00  0.00    +0.000 C 
BRANCH  14  15
ATOM     15  C   UNL     1       2.186   4.930  20.612  0.00  0.00    +0.000 A 
ATOM     16  C   UNL     1       1.221   4.322  19.801  0.00  0.00    +0.000 A 
ATOM     17  C   UNL     1       0.696   3.080  20.153  0.00  0.00    +0.000 A 
ATOM     18  C   UNL     1       1.139   2.485  21.322  0.00  0.00    +0.000 A 
ATOM     19  N   UNL     1       2.050   3.044  22.146  0.00  0.00    +0.000 NA
ATOM     20  C   UNL     1       2.548   4.244  21.772  0.00  0.00    +0.000 A 
ENDBRANCH  14  15
ENDBRANCH   1  14
TORSDOF 4
ENDMDL
MODEL 9
REMARK VINA RESULT:      -6.5      1.778      6.189
REMARK  Name = 
REMARK  6 active torsions:
REMARK  status: ('A' for Active; 'I' for Inactive)
REMARK    1  A    between atoms: C_1  and  C_2
REMARK    2  A    between atoms: C_2  and  C_3
REMARK    3  A    between atoms: C_2  and  N_9
REMARK    4  A    between atoms: N_9  and  C_10
REMARK    5  A    between atoms: C_11  and  C_13
REMARK    6  A    between atoms: C_18  and  C_19
REMARK                            x       y       z     vdW  Elec       q    Type
REMARK                         _______ _______ _______ _____ _____    ______ ____
ROOT
ATOM      1  N   UNL     1       4.535   4.918  18.417  0.00  0.00    +0.000 N 
ATOM      2  C   UNL     1       5.437   5.550  19.376  0.00  0.00    +0.000 C 
ATOM      3  C   UNL     1       3.206   5.308  18.187  0.00  0.00    +0.000 C 
ATOM      4  O   UNL     1       2.487   4.718  17.381  0.00  0.00    +0.000 OA
ENDROOT
BRANCH   3   5
ATOM      5  C   UNL     1       2.581   6.470  18.898  0.00  0.00    +0.000 A 
ATOM      6  C   UNL     1       2.467   7.722  18.272  0.00  0.00    +0.000 A 
ATOM      7  C   UNL     1       1.872   8.809  18.920  0.00  0.00    +0.000 A 
ATOM      8  C   UNL     1       1.294   8.640  20.172  0.00  0.00    +0.000 A 
ATOM      9  C   UNL     1       1.333   7.386  20.782  0.00  0.00    +0.000 A 
ATOM     10  C   UNL     1       1.990   6.303  20.172  0.00  0.00    +0.000 A 
BRANCH  10  11
ATOM     11  C   UNL     1       2.044   5.065  20.905  0.00  0.00    +0.000 C 
ATOM     12  N   UNL     1       2.183   4.083  21.502  0.00  0.00    +0.000 NA
ENDBRANCH  10  11
ENDBRANCH   3   5
BRANCH   1  14
ATOM     13  C   UNL     1       3.966   2.656  17.505  0.00  0.00    +0.000 C 
ATOM     14  C   UNL     1       5.048   3.734  17.680  0.00  0.00    +0.000 C 
BRANCH  14  15
ATOM     15  C   UNL     1       5.736   4.140  16.387  0.00  0.00    +0.000 A 
ATOM     16  C   UNL     1       5.179   3.787  15.153  0.00  0.00    +0.000 A 
ATOM     17  C   UNL     1       5.809   4.168  13.969  0.00  0.00    +0.000 A 
ATOM     18  C   UNL     1       6.993   4.879  14.053  0.00  0.00    +0.000 A 
ATOM     19  N   UNL     1       7.579   5.221  15.219  0.00  0.00    +0.000 NA
ATOM     20  C   UNL     1       6.939   4.846  16.350  0.00  0.00    +0.000 A 
ENDBRANCH  14  15
ENDBRANCH   1  14
TORSDOF 4
ENDMDL
