MODEL 1
REMARK VINA RESULT:      -6.7      0.000      0.000
REMARK  Name = 
REMARK  4 active torsions:
REMARK  status: ('A' for Active; 'I' for Inactive)
REMARK    1  A    between atoms: N_1  and  C_2
REMARK    2  A    between atoms: C_5  and  N_6
REMARK    3  A    between atoms: N_10  and  C_11
REMARK    4  A    between atoms: N_20  and  C_21
REMARK                            x       y       z     vdW  Elec       q    Type
REMARK                         _______ _______ _______ _____ _____    ______ ____
ROOT
ATOM      1  N   UNL     1       2.091  14.197  20.437  0.00  0.00    +0.000 N 
ATOM      2  C   UNL     1       1.175  13.430  21.125  0.00  0.00    +0.000 A 
ATOM      3  N   UNL     1       1.329  12.105  20.960  0.00  0.00    +0.000 NA
ATOM      4  C   UNL     1       0.455  11.225  21.522  0.00  0.00    +0.000 A 
ATOM      5  N   UNL     1       0.622   9.837  21.350  0.00  0.00    +0.000 N 
ATOM      6  C   UNL     1      -0.609  11.755  22.270  0.00  0.00    +0.000 A 
ATOM      7  N   UNL     1      -1.677  11.173  22.922  0.00  0.00    +0.000 NA
ATOM      8  C   UNL     1      -2.363  12.185  23.406  0.00  0.00    +0.000 A 
ATOM      9  N   UNL     1      -1.775  13.393  23.116  0.00  0.00    +0.000 N 
ATOM     10  C   UNL     1      -0.653  13.132  22.377  0.00  0.00    +0.000 A 
ATOM     11  N   UNL     1       0.210  14.018  21.849  0.00  0.00    +0.000 NA
ATOM     12  H   UNL     1       2.773  13.600  19.987  0.00  0.00    +0.000 HD
ATOM     13  H   UNL     1      -0.143   9.317  21.774  0.00  0.00    +0.000 HD
ENDROOT
BRANCH   1  17
ATOM     14  C   UNL     1       4.730  16.503  19.154  0.00  0.00    +0.000 C 
ATOM     15  C   UNL     1       4.953  15.455  20.252  0.00  0.00    +0.000 C 
ATOM     16  C   UNL     1       3.946  15.577  21.396  0.00  0.00    +0.000 C 
ATOM     17  C   UNL     1       2.488  15.509  20.922  0.00  0.00    +0.000 C 
ATOM     18  C   UNL     1       2.246  16.553  19.812  0.00  0.00    +0.000 C 
ATOM     19  C   UNL     1       3.277  16.483  18.676  0.00  0.00    +0.000 C 
BRANCH  14  20
ATOM     20  N   UNL     1       5.104  17.843  19.617  0.00  0.00    +0.000 NA
ATOM     21  H   UNL     1       5.994  18.112  19.200  0.00  0.00    +0.000 HD
ATOM     22  H   UNL     1       5.247  17.858  20.623  0.00  0.00    +0.000 HD
ENDBRANCH  14  20
ENDBRANCH   1  17
BRANCH   5  23
ATOM     23  C   UNL     1       1.129   9.220  20.189  0.00  0.00    +0.000 A 
ATOM     24  C   UNL     1       1.799   7.997  20.290  0.00  0.00    +0.000 A 
ATOM     25  C   UNL     1       2.322   7.376  19.151  0.00  0.00    +0.000 A 
ATOM     26  C   UNL     1       2.156   7.959  17.896  0.00  0.00    +0.000 A 
ATOM     27  C   UNL     1       1.467   9.164  17.778  0.00  0.00    +0.000 A 
ATOM     28  C   UNL     1       0.959   9.785  18.916  0.00  0.00    +0.000 A 
ENDBRANCH   5  23
BRANCH   9  29
ATOM     29  C   UNL     1      -2.274  14.682  23.529  0.00  0.00    +0.000 C 
ATOM     30  C   UNL     1      -3.760  14.693  23.888  0.00  0.00    +0.000 C 
ATOM     31  C   UNL     1      -3.947  16.000  24.646  0.00  0.00    +0.000 C 
ATOM     32  C   UNL     1      -2.603  16.301  25.308  0.00  0.00    +0.000 C 
ATOM     33  C   UNL     1      -1.604  15.280  24.766  0.00  0.00    +0.000 C 
ENDBRANCH   9  29
TORSDOF 4
ENDMDL
MODEL 2
REMARK VINA RESULT:      -6.7      3.507      6.560
REMARK  Name = 
REMARK  4 active torsions:
REMARK  status: ('A' for Active; 'I' for Inactive)
REMARK    1  A    between atoms: N_1  and  C_2
REMARK    2  A    between atoms: C_5  and  N_6
REMARK    3  A    between atoms: N_10  and  C_11
REMARK    4  A    between atoms: N_20  and  C_21
REMARK                            x       y       z     vdW  Elec       q    Type
REMARK                         _______ _______ _______ _____ _____    ______ ____
ROOT
ATOM      1  N   UNL     1      -1.308  11.735  21.511  0.00  0.00    +0.000 N 
ATOM      2  C   UNL     1      -2.131  12.589  22.214  0.00  0.00    +0.000 A 
ATOM      3  N   UNL     1      -3.433  12.492  21.892  0.00  0.00    +0.000 NA
ATOM      4  C   UNL     1      -4.355  13.321  22.454  0.00  0.00    +0.000 A 
ATOM      5  N   UNL     1      -5.719  13.213  22.117  0.00  0.00    +0.000 N 
ATOM      6  C   UNL     1      -3.893  14.279  23.371  0.00  0.00    +0.000 A 
ATOM      7  N   UNL     1      -4.526  15.283  24.074  0.00  0.00    +0.000 NA
ATOM      8  C   UNL     1      -3.562  15.883  24.739  0.00  0.00    +0.000 A 
ATOM      9  N   UNL     1      -2.339  15.298  24.514  0.00  0.00    +0.000 N 
ATOM     10  C   UNL     1      -2.535  14.273  23.627  0.00  0.00    +0.000 A 
ATOM     11  N   UNL     1      -1.611  13.451  23.102  0.00  0.00    +0.000 NA
ATOM     12  H   UNL     1      -1.863  11.125  20.924  0.00  0.00    +0.000 HD
ATOM     13  H   UNL     1      -6.269  13.939  22.567  0.00  0.00    +0.000 HD
ENDROOT
BRANCH   1  17
ATOM     14  C   UNL     1       0.479   8.512  20.922  0.00  0.00    +0.000 C 
ATOM     15  C   UNL     1      -0.549   8.742  22.036  0.00  0.00    +0.000 C 
ATOM     16  C   UNL     1      -0.220   9.960  22.900  0.00  0.00    +0.000 C 
ATOM     17  C   UNL     1      -0.063  11.250  22.085  0.00  0.00    +0.000 C 
ATOM     18  C   UNL     1       0.964  11.036  20.953  0.00  0.00    +0.000 C 
ATOM     19  C   UNL     1       0.682   9.789  20.104  0.00  0.00    +0.000 C 
BRANCH  14  20
ATOM     20  N   UNL     1       1.755   8.039  21.468  0.00  0.00    +0.000 NA
ATOM     21  H   UNL     1       2.202   8.791  21.991  0.00  0.00    +0.000 HD
ATOM     22  H   UNL     1       2.402   7.787  20.725  0.00  0.00    +0.000 HD
ENDBRANCH  14  20
ENDBRANCH   1  17
BRANCH   5  23
ATOM     23  C   UNL     1      -6.213  12.857  20.846  0.00  0.00    +0.000 A 
ATOM     24  C   UNL     1      -6.200  13.795  19.810  0.00  0.00    +0.000 A 
ATOM     25  C   UNL     1      -6.698  13.465  18.545  0.00  0.00    +0.000 A 
ATOM     26  C   UNL     1      -7.189  12.185  18.297  0.00  0.00    +0.000 A 
ATOM     27  C   UNL     1      -7.183  11.233  19.314  0.00  0.00    +0.000 A 
ATOM     28  C   UNL     1      -6.698  11.569  20.574  0.00  0.00    +0.000 A 
ENDBRANCH   5  23
BRANCH   9  29
ATOM     29  C   UNL     1      -1.095  15.711  25.116  0.00  0.00    +0.000 C 
ATOM     30  C   UNL     1      -0.313  16.737  24.294  0.00  0.00    +0.000 C 
ATOM     31  C   UNL     1       0.707  17.295  25.277  0.00  0.00    +0.000 C 
ATOM     32  C   UNL     1       0.071  17.175  26.661  0.00  0.00    +0.000 C 
ATOM     33  C   UNL     1      -1.217  16.371  26.489  0.00  0.00    +0.000 C 
ENDBRANCH   9  29
TORSDOF 4
ENDMDL
MODEL 3
REMARK VINA RESULT:      -6.5      3.929      5.453
REMARK  Name = 
REMARK  4 active torsions:
REMARK  status: ('A' for Active; 'I' for Inactive)
REMARK    1  A    between atoms: N_1  and  C_2
REMARK    2  A    between atoms: C_5  and  N_6
REMARK    3  A    between atoms: N_10  and  C_11
REMARK    4  A    between atoms: N_20  and  C_21
REMARK                            x       y       z     vdW  Elec       q    Type
REMARK                         _______ _______ _______ _____ _____    ______ ____
ROOT
ATOM      1  N   UNL     1      -1.089  10.201  17.779  0.00  0.00    +0.000 N 
ATOM      2  C   UNL     1      -0.607  10.120  19.069  0.00  0.00    +0.000 A 
ATOM      3  N   UNL     1       0.364   9.207  19.239  0.00  0.00    +0.000 NA
ATOM      4  C   UNL     1       0.887   8.966  20.473  0.00  0.00    +0.000 A 
ATOM      5  N   UNL     1       1.908   8.010  20.647  0.00  0.00    +0.000 N 
ATOM      6  C   UNL     1       0.370   9.700  21.552  0.00  0.00    +0.000 A 
ATOM      7  N   UNL     1       0.627   9.679  22.908  0.00  0.00    +0.000 NA
ATOM      8  C   UNL     1      -0.203  10.564  23.417  0.00  0.00    +0.000 A 
ATOM      9  N   UNL     1      -0.968  11.171  22.450  0.00  0.00    +0.000 N 
ATOM     10  C   UNL     1      -0.618  10.617  21.248  0.00  0.00    +0.000 A 
ATOM     11  N   UNL     1      -1.134  10.887  20.036  0.00  0.00    +0.000 NA
ATOM     12  H   UNL     1      -0.552   9.595  17.171  0.00  0.00    +0.000 HD
ATOM     13  H   UNL     1       2.147   7.900  21.629  0.00  0.00    +0.000 HD
ENDROOT
BRANCH   1  17
ATOM     14  C   UNL     1      -4.648  11.151  17.179  0.00  0.00    +0.000 C 
ATOM     15  C   UNL     1      -3.732  10.510  16.129  0.00  0.00    +0.000 C 
ATOM     16  C   UNL     1      -2.419  11.271  15.948  0.00  0.00    +0.000 C 
ATOM     17  C   UNL     1      -1.640  11.443  17.259  0.00  0.00    +0.000 C 
ATOM     18  C   UNL     1      -2.548  12.080  18.332  0.00  0.00    +0.000 C 
ATOM     19  C   UNL     1      -3.894  11.362  18.493  0.00  0.00    +0.000 C 
BRANCH  14  20
ATOM     20  N   UNL     1      -5.207  12.416  16.693  0.00  0.00    +0.000 NA
ATOM     21  H   UNL     1      -4.458  13.094  16.566  0.00  0.00    +0.000 HD
ATOM     22  H   UNL     1      -5.844  12.822  17.375  0.00  0.00    +0.000 HD
ENDBRANCH  14  20
ENDBRANCH   1  17
BRANCH   5  23
ATOM     23  C   UNL     1       2.031   6.814  19.913  0.00  0.00    +0.000 A 
ATOM     24  C   UNL     1       1.575   5.613  20.464  0.00  0.00    +0.000 A 
ATOM     25  C   UNL     1       1.700   4.413  19.757  0.00  0.00    +0.000 A 
ATOM     26  C   UNL     1       2.257   4.406  18.479  0.00  0.00    +0.000 A 
ATOM     27  C   UNL     1       2.691   5.600  17.908  0.00  0.00    +0.000 A 
ATOM     28  C   UNL     1       2.576   6.790  18.621  0.00  0.00    +0.000 A 
ENDBRANCH   5  23
BRANCH   9  29
ATOM     29  C   UNL     1      -1.950  12.200  22.689  0.00  0.00    +0.000 C 
ATOM     30  C   UNL     1      -3.033  11.808  23.695  0.00  0.00    +0.000 C 
ATOM     31  C   UNL     1      -3.684  13.132  24.070  0.00  0.00    +0.000 C 
ATOM     32  C   UNL     1      -2.601  14.198  23.904  0.00  0.00    +0.000 C 
ATOM     33  C   UNL     1      -1.404  13.514  23.247  0.00  0.00    +0.000 C 
ENDBRANCH   9  29
TORSDOF 4
ENDMDL
MODEL 4
REMARK VINA RESULT:      -6.5      6.130      9.925
REMARK  Name = 
REMARK  4 active torsions:
REMARK  status: ('A' for Active; 'I' for Inactive)
REMARK    1  A    between atoms: N_1  and  C_2
REMARK    2  A    between atoms: C_5  and  N_6
REMARK    3  A    between atoms: N_10  and  C_11
REMARK    4  A    between atoms: N_20  and  C_21
REMARK                            x       y       z     vdW  Elec       q    Type
REMARK                         _______ _______ _______ _____ _____    ______ ____
ROOT
ATOM      1  N   UNL     1       6.607  15.687  21.346  0.00  0.00    +0.000 N 
ATOM      2  C   UNL     1       7.376  14.546  21.252  0.00  0.00    +0.000 A 
ATOM      3  N   UNL     1       7.154  13.648  22.227  0.00  0.00    +0.000 NA
ATOM      4  C   UNL     1       7.890  12.505  22.304  0.00  0.00    +0.000 A 
ATOM      5  N   UNL     1       7.652  11.564  23.325  0.00  0.00    +0.000 N 
ATOM      6  C   UNL     1       8.886  12.308  21.333  0.00  0.00    +0.000 A 
ATOM      7  N   UNL     1       9.823  11.313  21.143  0.00  0.00    +0.000 NA
ATOM      8  C   UNL     1      10.511  11.701  20.090  0.00  0.00    +0.000 A 
ATOM      9  N   UNL     1      10.047  12.890  19.581  0.00  0.00    +0.000 N 
ATOM     10  C   UNL     1       9.010  13.297  20.377  0.00  0.00    +0.000 A 
ATOM     11  N   UNL     1       8.281  14.422  20.269  0.00  0.00    +0.000 NA
ATOM     12  H   UNL     1       5.947  15.597  22.109  0.00  0.00    +0.000 HD
ATOM     13  H   UNL     1       8.321  10.800  23.286  0.00  0.00    +0.000 HD
ENDROOT
BRANCH   1  17
ATOM     14  C   UNL     1       3.257  16.917  20.253  0.00  0.00    +0.000 C 
ATOM     15  C   UNL     1       3.864  15.572  19.839  0.00  0.00    +0.000 C 
ATOM     16  C   UNL     1       5.261  15.716  19.235  0.00  0.00    +0.000 C 
ATOM     17  C   UNL     1       6.242  16.448  20.161  0.00  0.00    +0.000 C 
ATOM     18  C   UNL     1       5.645  17.803  20.596  0.00  0.00    +0.000 C 
ATOM     19  C   UNL     1       4.221  17.688  21.157  0.00  0.00    +0.000 C 
BRANCH  14  20
ATOM     20  N   UNL     1       2.894  17.720  19.081  0.00  0.00    +0.000 NA
ATOM     21  H   UNL     1       1.937  18.056  19.181  0.00  0.00    +0.000 HD
ATOM     22  H   UNL     1       2.910  17.159  18.233  0.00  0.00    +0.000 HD
ENDBRANCH  14  20
ENDBRANCH   1  17
BRANCH   5  23
ATOM     23  C   UNL     1       7.253  11.880  24.639  0.00  0.00    +0.000 A 
ATOM     24  C   UNL     1       6.023  11.420  25.118  0.00  0.00    +0.000 A 
ATOM     25  C   UNL     1       5.602  11.734  26.415  0.00  0.00    +0.000 A 
ATOM     26  C   UNL     1       6.420  12.489  27.254  0.00  0.00    +0.000 A 
ATOM     27  C   UNL     1       7.659  12.930  26.798  0.00  0.00    +0.000 A 
ATOM     28  C   UNL     1       8.069  12.626  25.502  0.00  0.00    +0.000 A 
ENDBRANCH   5  23
BRANCH   9  29
ATOM     29  C   UNL     1      10.576  13.561  18.418  0.00  0.00    +0.000 C 
ATOM     30  C   UNL     1      11.688  14.564  18.728  0.00  0.00    +0.000 C 
ATOM     31  C   UNL     1      12.333  14.827  17.374  0.00  0.00    +0.000 C 
ATOM     32  C   UNL     1      12.129  13.555  16.553  0.00  0.00    +0.000 C 
ATOM     33  C   UNL     1      11.200  12.651  17.361  0.00  0.00    +0.000 C 
ENDBRANCH   9  29
TORSDOF 4
ENDMDL
MODEL 5
REMARK VINA RESULT:      -6.4      6.423     10.063
REMARK  Name = 
REMARK  4 active torsions:
REMARK  status: ('A' for Active; 'I' for Inactive)
REMARK    1  A    between atoms: N_1  and  C_2
REMARK    2  A    between atoms: C_5  and  N_6
REMARK    3  A    between atoms: N_10  and  C_11
REMARK    4  A    between atoms: N_20  and  C_21
REMARK                            x       y       z     vdW  Elec       q    Type
REMARK                         _______ _______ _______ _____ _____    ______ ____
ROOT
ATOM      1  N   UNL     1       6.951  15.699  20.847  0.00  0.00    +0.000 N 
ATOM      2  C   UNL     1       7.899  14.699  20.804  0.00  0.00    +0.000 A 
ATOM      3  N   UNL     1       7.693  13.705  21.685  0.00  0.00    +0.000 NA
ATOM      4  C   UNL     1       8.586  12.683  21.806  0.00  0.00    +0.000 A 
ATOM      5  N   UNL     1       8.364  11.641  22.728  0.00  0.00    +0.000 N 
ATOM      6  C   UNL     1       9.723  12.714  20.983  0.00  0.00    +0.000 A 
ATOM      7  N   UNL     1      10.824  11.889  20.877  0.00  0.00    +0.000 NA
ATOM      8  C   UNL     1      11.578  12.457  19.960  0.00  0.00    +0.000 A 
ATOM      9  N   UNL     1      11.003  13.598  19.455  0.00  0.00    +0.000 N 
ATOM     10  C   UNL     1       9.816  13.782  20.111  0.00  0.00    +0.000 A 
ATOM     11  N   UNL     1       8.938  14.789  19.960  0.00  0.00    +0.000 NA
ATOM     12  H   UNL     1       6.217  15.452  21.499  0.00  0.00    +0.000 HD
ATOM     13  H   UNL     1       9.146  10.991  22.746  0.00  0.00    +0.000 HD
ENDROOT
BRANCH   1  17
ATOM     14  C   UNL     1       3.640  16.377  19.265  0.00  0.00    +0.000 C 
ATOM     15  C   UNL     1       4.562  15.214  18.881  0.00  0.00    +0.000 C 
ATOM     16  C   UNL     1       5.980  15.674  18.540  0.00  0.00    +0.000 C 
ATOM     17  C   UNL     1       6.634  16.486  19.666  0.00  0.00    +0.000 C 
ATOM     18  C   UNL     1       5.717  17.658  20.071  0.00  0.00    +0.000 C 
ATOM     19  C   UNL     1       4.274  17.227  20.368  0.00  0.00    +0.000 C 
BRANCH  14  20
ATOM     20  N   UNL     1       3.314  17.203  18.098  0.00  0.00    +0.000 NA
ATOM     21  H   UNL     1       4.113  17.232  17.467  0.00  0.00    +0.000 HD
ATOM     22  H   UNL     1       3.132  18.166  18.369  0.00  0.00    +0.000 HD
ENDBRANCH  14  20
ENDBRANCH   1  17
BRANCH   5  23
ATOM     23  C   UNL     1       7.744  11.790  23.985  0.00  0.00    +0.000 A 
ATOM     24  C   UNL     1       8.440  12.403  25.032  0.00  0.00    +0.000 A 
ATOM     25  C   UNL     1       7.847  12.548  26.290  0.00  0.00    +0.000 A 
ATOM     26  C   UNL     1       6.542  12.106  26.506  0.00  0.00    +0.000 A 
ATOM     27  C   UNL     1       5.830  11.518  25.464  0.00  0.00    +0.000 A 
ATOM     28  C   UNL     1       6.429  11.364  24.217  0.00  0.00    +0.000 A 
ENDBRANCH   5  23
BRANCH   9  29
ATOM     29  C   UNL     1      11.571  14.429  18.421  0.00  0.00    +0.000 C 
ATOM     30  C   UNL     1      10.566  14.887  17.364  0.00  0.00    +0.000 C 
ATOM     31  C   UNL     1      11.278  16.026  16.648  0.00  0.00    +0.000 C 
ATOM     32  C   UNL     1      12.228  16.644  17.673  0.00  0.00    +0.000 C 
ATOM     33  C   UNL     1      12.203  15.736  18.902  0.00  0.00    +0.000 C 
ENDBRANCH   9  29
TORSDOF 4
ENDMDL
MODEL 6
REMARK VINA RESULT:      -6.4      5.743      7.493
REMARK  Name = 
REMARK  4 active torsions:
REMARK  status: ('A' for Active; 'I' for Inactive)
REMARK    1  A    between atoms: N_1  and  C_2
REMARK    2  A    between atoms: C_5  and  N_6
REMARK    3  A    between atoms: N_10  and  C_11
REMARK    4  A    between atoms: N_20  and  C_21
REMARK                            x       y       z     vdW  Elec       q    Type
REMARK                         _______ _______ _______ _____ _____    ______ ____
ROOT
ATOM      1  N   UNL     1       5.866  14.801  21.104  0.00  0.00    +0.000 N 
ATOM      2  C   UNL     1       6.562  14.141  22.093  0.00  0.00    +0.000 A 
ATOM      3  N   UNL     1       7.747  13.645  21.698  0.00  0.00    +0.000 NA
ATOM      4  C   UNL     1       8.514  12.908  22.549  0.00  0.00    +0.000 A 
ATOM      5  N   UNL     1       9.757  12.392  22.132  0.00  0.00    +0.000 N 
ATOM      6  C   UNL     1       8.017  12.684  23.843  0.00  0.00    +0.000 A 
ATOM      7  N   UNL     1       8.495  11.963  24.917  0.00  0.00    +0.000 NA
ATOM      8  C   UNL     1       7.567  12.088  25.841  0.00  0.00    +0.000 A 
ATOM      9  N   UNL     1       6.522  12.874  25.420  0.00  0.00    +0.000 N 
ATOM     10  C   UNL     1       6.792  13.255  24.133  0.00  0.00    +0.000 A 
ATOM     11  N   UNL     1       6.029  14.003  23.317  0.00  0.00    +0.000 NA
ATOM     12  H   UNL     1       6.428  14.856  20.263  0.00  0.00    +0.000 HD
ATOM     13  H   UNL     1      10.178  11.814  22.854  0.00  0.00    +0.000 HD
ENDROOT
BRANCH   1  17
ATOM     14  C   UNL     1       3.501  16.641  18.878  0.00  0.00    +0.000 C 
ATOM     15  C   UNL     1       4.937  17.089  19.176  0.00  0.00    +0.000 C 
ATOM     16  C   UNL     1       5.226  17.183  20.675  0.00  0.00    +0.000 C 
ATOM     17  C   UNL     1       4.939  15.876  21.425  0.00  0.00    +0.000 C 
ATOM     18  C   UNL     1       3.499  15.405  21.131  0.00  0.00    +0.000 C 
ATOM     19  C   UNL     1       3.171  15.352  19.633  0.00  0.00    +0.000 C 
BRANCH  14  20
ATOM     20  N   UNL     1       2.537  17.696  19.208  0.00  0.00    +0.000 NA
ATOM     21  H   UNL     1       1.604  17.294  19.281  0.00  0.00    +0.000 HD
ATOM     22  H   UNL     1       2.489  18.394  18.470  0.00  0.00    +0.000 HD
ENDBRANCH  14  20
ENDBRANCH   1  17
BRANCH   5  23
ATOM     23  C   UNL     1      10.053  11.947  20.828  0.00  0.00    +0.000 A 
ATOM     24  C   UNL     1      11.132  12.503  20.135  0.00  0.00    +0.000 A 
ATOM     25  C   UNL     1      11.434  12.085  18.834  0.00  0.00    +0.000 A 
ATOM     26  C   UNL     1      10.675  11.087  18.225  0.00  0.00    +0.000 A 
ATOM     27  C   UNL     1       9.613  10.507  18.915  0.00  0.00    +0.000 A 
ATOM     28  C   UNL     1       9.309  10.935  20.205  0.00  0.00    +0.000 A 
ENDBRANCH   5  23
BRANCH   9  29
ATOM     29  C   UNL     1       5.365  13.218  26.211  0.00  0.00    +0.000 C 
ATOM     30  C   UNL     1       4.925  12.123  27.183  0.00  0.00    +0.000 C 
ATOM     31  C   UNL     1       3.988  12.839  28.145  0.00  0.00    +0.000 C 
ATOM     32  C   UNL     1       4.456  14.293  28.189  0.00  0.00    +0.000 C 
ATOM     33  C   UNL     1       5.524  14.447  27.107  0.00  0.00    +0.000 C 
ENDBRANCH   9  29
TORSDOF 4
ENDMDL
MODEL 7
REMARK VINA RESULT:      -6.3      2.885      3.352
REMARK  Name = 
REMARK  4 active torsions:
REMARK  status: ('A' for Active; 'I' for Inactive)
REMARK    1  A    between atoms: N_1  and  C_2
REMARK    2  A    between atoms: C_5  and  N_6
REMARK    3  A    between atoms: N_10  and  C_11
REMARK    4  A    between atoms: N_20  and  C_21
REMARK                            x       y       z     vdW  Elec       q    Type
REMARK                         _______ _______ _______ _____ _____    ______ ____
ROOT
ATOM      1  N   UNL     1       0.413  14.310  19.111  0.00  0.00    +0.000 N 
ATOM      2  C   UNL     1      -0.665  13.839  19.829  0.00  0.00    +0.000 A 
ATOM      3  N   UNL     1      -1.283  12.785  19.270  0.00  0.00    +0.000 NA
ATOM      4  C   UNL     1      -2.406  12.256  19.831  0.00  0.00    +0.000 A 
ATOM      5  N   UNL     1      -3.049  11.148  19.244  0.00  0.00    +0.000 N 
ATOM      6  C   UNL     1      -2.890  12.857  21.004  0.00  0.00    +0.000 A 
ATOM      7  N   UNL     1      -3.999  12.616  21.790  0.00  0.00    +0.000 NA
ATOM      8  C   UNL     1      -3.945  13.534  22.730  0.00  0.00    +0.000 A 
ATOM      9  N   UNL     1      -2.842  14.343  22.599  0.00  0.00    +0.000 N 
ATOM     10  C   UNL     1      -2.161  13.926  21.487  0.00  0.00    +0.000 A 
ATOM     11  N   UNL     1      -1.040  14.451  20.963  0.00  0.00    +0.000 NA
ATOM     12  H   UNL     1       0.588  13.709  18.315  0.00  0.00    +0.000 HD
ATOM     13  H   UNL     1      -3.904  10.912  19.740  0.00  0.00    +0.000 HD
ENDROOT
BRANCH   1  17
ATOM     14  C   UNL     1       3.120  16.427  17.653  0.00  0.00    +0.000 C 
ATOM     15  C   UNL     1       3.222  14.912  17.862  0.00  0.00    +0.000 C 
ATOM     16  C   UNL     1       2.903  14.492  19.298  0.00  0.00    +0.000 C 
ATOM     17  C   UNL     1       1.526  14.974  19.772  0.00  0.00    +0.000 C 
ATOM     18  C   UNL     1       1.400  16.498  19.562  0.00  0.00    +0.000 C 
ATOM     19  C   UNL     1       1.766  16.948  18.141  0.00  0.00    +0.000 C 
BRANCH  14  20
ATOM     20  N   UNL     1       4.218  17.131  18.324  0.00  0.00    +0.000 NA
ATOM     21  H   UNL     1       4.330  18.057  17.914  0.00  0.00    +0.000 HD
ATOM     22  H   UNL     1       5.102  16.649  18.183  0.00  0.00    +0.000 HD
ENDBRANCH  14  20
ENDBRANCH   1  17
BRANCH   5  23
ATOM     23  C   UNL     1      -3.130  10.900  17.859  0.00  0.00    +0.000 A 
ATOM     24  C   UNL     1      -2.237  10.004  17.263  0.00  0.00    +0.000 A 
ATOM     25  C   UNL     1      -2.292   9.754  15.888  0.00  0.00    +0.000 A 
ATOM     26  C   UNL     1      -3.258  10.377  15.100  0.00  0.00    +0.000 A 
ATOM     27  C   UNL     1      -4.171  11.251  15.686  0.00  0.00    +0.000 A 
ATOM     28  C   UNL     1      -4.104  11.506  17.053  0.00  0.00    +0.000 A 
ENDBRANCH   5  23
BRANCH   9  29
ATOM     29  C   UNL     1      -2.493  15.425  23.487  0.00  0.00    +0.000 C 
ATOM     30  C   UNL     1      -3.689  16.074  24.184  0.00  0.00    +0.000 C 
ATOM     31  C   UNL     1      -3.066  16.873  25.319  0.00  0.00    +0.000 C 
ATOM     32  C   UNL     1      -1.776  16.144  25.693  0.00  0.00    +0.000 C 
ATOM     33  C   UNL     1      -1.565  15.053  24.644  0.00  0.00    +0.000 C 
ENDBRANCH   9  29
TORSDOF 4
ENDMDL
MODEL 8
REMARK VINA RESULT:      -6.3      1.030      1.396
REMARK  Name = 
REMARK  4 active torsions:
REMARK  status: ('A' for Active; 'I' for Inactive)
REMARK    1  A    between atoms: N_1  and  C_2
REMARK    2  A    between atoms: C_5  and  N_6
REMARK    3  A    between atoms: N_10  and  C_11
REMARK    4  A    between atoms: N_20  and  C_21
REMARK                            x       y       z     vdW  Elec       q    Type
REMARK                         _______ _______ _______ _____ _____    ______ ____
ROOT
ATOM      1  N   UNL     1       1.634  14.152  20.117  0.00  0.00    +0.000 N 
ATOM      2  C   UNL     1       0.852  13.350  20.920  0.00  0.00    +0.000 A 
ATOM      3  N   UNL     1       1.146  12.040  20.848  0.00  0.00    +0.000 NA
ATOM      4  C   UNL     1       0.411  11.121  21.532  0.00  0.00    +0.000 A 
ATOM      5  N   UNL     1       0.725   9.749  21.457  0.00  0.00    +0.000 N 
ATOM      6  C   UNL     1      -0.662  11.593  22.305  0.00  0.00    +0.000 A 
ATOM      7  N   UNL     1      -1.618  10.954  23.068  0.00  0.00    +0.000 NA
ATOM      8  C   UNL     1      -2.387  11.923  23.517  0.00  0.00    +0.000 A 
ATOM      9  N   UNL     1      -1.958  13.159  23.096  0.00  0.00    +0.000 N 
ATOM     10  C   UNL     1      -0.857  12.961  22.307  0.00  0.00    +0.000 A 
ATOM     11  N   UNL     1      -0.132  13.888  21.658  0.00  0.00    +0.000 NA
ATOM     12  H   UNL     1       2.353  13.597  19.669  0.00  0.00    +0.000 HD
ATOM     13  H   UNL     1       0.050   9.187  21.968  0.00  0.00    +0.000 HD
ENDROOT
BRANCH   1  17
ATOM     14  C   UNL     1       1.410  17.230  18.018  0.00  0.00    +0.000 C 
ATOM     15  C   UNL     1       2.681  16.390  18.192  0.00  0.00    +0.000 C 
ATOM     16  C   UNL     1       3.045  16.169  19.661  0.00  0.00    +0.000 C 
ATOM     17  C   UNL     1       1.906  15.536  20.472  0.00  0.00    +0.000 C 
ATOM     18  C   UNL     1       0.615  16.363  20.303  0.00  0.00    +0.000 C 
ATOM     19  C   UNL     1       0.259  16.642  18.836  0.00  0.00    +0.000 C 
BRANCH  14  20
ATOM     20  N   UNL     1       1.645  18.630  18.386  0.00  0.00    +0.000 NA
ATOM     21  H   UNL     1       0.752  19.098  18.532  0.00  0.00    +0.000 HD
ATOM     22  H   UNL     1       2.110  19.134  17.636  0.00  0.00    +0.000 HD
ENDBRANCH  14  20
ENDBRANCH   1  17
BRANCH   5  23
ATOM     23  C   UNL     1       1.232   9.097  20.315  0.00  0.00    +0.000 A 
ATOM     24  C   UNL     1       1.815   7.832  20.442  0.00  0.00    +0.000 A 
ATOM     25  C   UNL     1       2.337   7.174  19.324  0.00  0.00    +0.000 A 
ATOM     26  C   UNL     1       2.257   7.762  18.063  0.00  0.00    +0.000 A 
ATOM     27  C   UNL     1       1.656   9.011  17.919  0.00  0.00    +0.000 A 
ATOM     28  C   UNL     1       1.149   9.667  19.037  0.00  0.00    +0.000 A 
ENDBRANCH   5  23
BRANCH   9  29
ATOM     29  C   UNL     1      -2.576  14.416  23.441  0.00  0.00    +0.000 C 
ATOM     30  C   UNL     1      -4.032  14.295  23.891  0.00  0.00    +0.000 C 
ATOM     31  C   UNL     1      -4.324  15.632  24.557  0.00  0.00    +0.000 C 
ATOM     32  C   UNL     1      -2.989  16.131  25.108  0.00  0.00    +0.000 C 
ATOM     33  C   UNL     1      -1.912  15.183  24.584  0.00  0.00    +0.000 C 
ENDBRANCH   9  29
TORSDOF 4
ENDMDL
MODEL 9
REMARK VINA RESULT:      -6.3      6.012     10.376
REMARK  Name = 
REMARK  4 active torsions:
REMARK  status: ('A' for Active; 'I' for Inactive)
REMARK    1  A    between atoms: N_1  and  C_2
REMARK    2  A    between atoms: C_5  and  N_6
REMARK    3  A    between atoms: N_10  and  C_11
REMARK    4  A    between atoms: N_20  and  C_21
REMARK                            x       y       z     vdW  Elec       q    Type
REMARK                         _______ _______ _______ _____ _____    ______ ____
ROOT
ATOM      1  N   UNL     1       7.059  13.521  22.279  0.00  0.00    +0.000 N 
ATOM      2  C   UNL     1       7.468  14.250  21.183  0.00  0.00    +0.000 A 
ATOM      3  N   UNL     1       6.599  15.199  20.794  0.00  0.00    +0.000 NA
ATOM      4  C   UNL     1       6.837  15.951  19.684  0.00  0.00    +0.000 A 
ATOM      5  N   UNL     1       5.926  16.948  19.282  0.00  0.00    +0.000 N 
ATOM      6  C   UNL     1       8.015  15.692  18.965  0.00  0.00    +0.000 A 
ATOM      7  N   UNL     1       8.534  16.217  17.799  0.00  0.00    +0.000 NA
ATOM      8  C   UNL     1       9.646  15.543  17.597  0.00  0.00    +0.000 A 
ATOM      9  N   UNL     1       9.879  14.623  18.591  0.00  0.00    +0.000 N 
ATOM     10  C   UNL     1       8.833  14.700  19.470  0.00  0.00    +0.000 A 
ATOM     11  N   UNL     1       8.629  13.961  20.575  0.00  0.00    +0.000 NA
ATOM     12  H   UNL     1       6.192  13.900  22.641  0.00  0.00    +0.000 HD
ATOM     13  H   UNL     1       6.210  17.376  18.405  0.00  0.00    +0.000 HD
ENDROOT
BRANCH   1  17
ATOM     14  C   UNL     1       6.649  12.524  25.852  0.00  0.00    +0.000 C 
ATOM     15  C   UNL     1       7.153  13.896  25.387  0.00  0.00    +0.000 C 
ATOM     16  C   UNL     1       8.331  13.793  24.417  0.00  0.00    +0.000 C 
ATOM     17  C   UNL     1       8.024  12.926  23.189  0.00  0.00    +0.000 C 
ATOM     18  C   UNL     1       7.508  11.542  23.637  0.00  0.00    +0.000 C 
ATOM     19  C   UNL     1       6.358  11.621  24.652  0.00  0.00    +0.000 C 
BRANCH  14  20
ATOM     20  N   UNL     1       7.609  11.886  26.759  0.00  0.00    +0.000 NA
ATOM     21  H   UNL     1       7.870  12.540  27.495  0.00  0.00    +0.000 HD
ATOM     22  H   UNL     1       8.470  11.647  26.274  0.00  0.00    +0.000 HD
ENDBRANCH  14  20
ENDBRANCH   1  17
BRANCH   5  23
ATOM     23  C   UNL     1       4.526  16.872  19.430  0.00  0.00    +0.000 A 
ATOM     24  C   UNL     1       3.774  16.116  18.525  0.00  0.00    +0.000 A 
ATOM     25  C   UNL     1       2.383  16.040  18.646  0.00  0.00    +0.000 A 
ATOM     26  C   UNL     1       1.733  16.696  19.691  0.00  0.00    +0.000 A 
ATOM     27  C   UNL     1       2.473  17.430  20.614  0.00  0.00    +0.000 A 
ATOM     28  C   UNL     1       3.857  17.514  20.481  0.00  0.00    +0.000 A 
ENDBRANCH   5  23
BRANCH   9  29
ATOM     29  C   UNL     1      11.026  13.750  18.666  0.00  0.00    +0.000 C 
ATOM     30  C   UNL     1      11.342  13.254  20.077  0.00  0.00    +0.000 C 
ATOM     31  C   UNL     1      12.291  12.085  19.852  0.00  0.00    +0.000 C 
ATOM     32  C   UNL     1      11.934  11.507  18.484  0.00  0.00    +0.000 C 
ATOM     33  C   UNL     1      10.926  12.463  17.848  0.00  0.00    +0.000 C 
ENDBRANCH   9  29
TORSDOF 4
ENDMDL
