MODEL 1
REMARK VINA RESULT:      -7.5      0.000      0.000
REMARK  Name = 
REMARK  3 active torsions:
REMARK  status: ('A' for Active; 'I' for Inactive)
REMARK    1  A    between atoms: C_1  and  N_2
REMARK    2  A    between atoms: C_6  and  O_7
REMARK    3  A    between atoms: N_16  and  C_17
REMARK                            x       y       z     vdW  Elec       q    Type
REMARK                         _______ _______ _______ _____ _____    ______ ____
ROOT
ATOM      1  C   UNL     1       1.121   3.107  21.001  0.00  0.00    +0.000 C 
ATOM      2  N   UNL     1       1.914   3.867  20.051  0.00  0.00    +0.000 N 
ATOM      3  C   UNL     1       2.728   3.180  19.174  0.00  0.00    +0.000 A 
ATOM      4  O   UNL     1       2.838   1.955  19.133  0.00  0.00    +0.000 OA
ATOM      5  C   UNL     1       3.513   3.969  18.226  0.00  0.00    +0.000 A 
ATOM      6  C   UNL     1       4.368   3.373  17.291  0.00  0.00    +0.000 A 
ATOM      7  C   UNL     1       5.107   4.141  16.395  0.00  0.00    +0.000 A 
ATOM      8  N   UNL     1       5.935   3.562  15.490  0.00  0.00    +0.000 NA
ATOM      9  C   UNL     1       6.595   4.392  14.680  0.00  0.00    +0.000 A 
ATOM     10  N   UNL     1       6.483   5.723  14.719  0.00  0.00    +0.000 NA
ATOM     11  N   UNL     1       5.637   6.288  15.646  0.00  0.00    +0.000 NA
ATOM     12  C   UNL     1       4.939   5.530  16.493  0.00  0.00    +0.000 A 
ATOM     13  N   UNL     1       4.118   6.108  17.390  0.00  0.00    +0.000 NA
ATOM     14  C   UNL     1       3.411   5.341  18.248  0.00  0.00    +0.000 A 
ATOM     15  N   UNL     1       2.555   5.963  19.179  0.00  0.00    +0.000 N 
ATOM     16  C   UNL     1       2.445   7.413  19.203  0.00  0.00    +0.000 C 
ATOM     17  C   UNL     1       1.796   5.249  20.091  0.00  0.00    +0.000 A 
ATOM     18  O   UNL     1       1.054   5.812  20.899  0.00  0.00    +0.000 OA
ENDROOT
BRANCH   6  19
ATOM     19  O   UNL     1       4.510   2.000  17.222  0.00  0.00    +0.000 OA
ATOM     20  H   UNL     1       4.214   1.680  16.341  0.00  0.00    +0.000 HD
ENDBRANCH   6  19
TORSDOF 1
ENDMDL
MODEL 2
REMARK VINA RESULT:      -6.6      2.327      5.179
REMARK  Name = 
REMARK  3 active torsions:
REMARK  status: ('A' for Active; 'I' for Inactive)
REMARK    1  A    between atoms: C_1  and  N_2
REMARK    2  A    between atoms: C_6  and  O_7
REMARK    3  A    between atoms: N_16  and  C_17
REMARK                            x       y       z     vdW  Elec       q    Type
REMARK                         _______ _______ _______ _____ _____    ______ ____
ROOT
ATOM      1  C   UNL     1       4.459   2.721  19.384  0.00  0.00    +0.000 C 
ATOM      2  N   UNL     1       4.137   4.056  18.910  0.00  0.00    +0.000 N 
ATOM      3  C   UNL     1       3.294   4.839  19.672  0.00  0.00    +0.000 A 
ATOM      4  O   UNL     1       2.786   4.491  20.738  0.00  0.00    +0.000 OA
ATOM      5  C   UNL     1       2.988   6.179  19.174  0.00  0.00    +0.000 A 
ATOM      6  C   UNL     1       2.149   7.057  19.869  0.00  0.00    +0.000 A 
ATOM      7  C   UNL     1       1.869   8.331  19.379  0.00  0.00    +0.000 A 
ATOM      8  N   UNL     1       1.056   9.180  20.054  0.00  0.00    +0.000 NA
ATOM      9  C   UNL     1       0.857  10.375  19.493  0.00  0.00    +0.000 A 
ATOM     10  N   UNL     1       1.403  10.759  18.336  0.00  0.00    +0.000 NA
ATOM     11  N   UNL     1       2.225   9.880  17.670  0.00  0.00    +0.000 NA
ATOM     12  C   UNL     1       2.477   8.666  18.160  0.00  0.00    +0.000 A 
ATOM     13  N   UNL     1       3.286   7.825  17.487  0.00  0.00    +0.000 NA
ATOM     14  C   UNL     1       3.542   6.596  17.984  0.00  0.00    +0.000 A 
ATOM     15  N   UNL     1       4.392   5.729  17.267  0.00  0.00    +0.000 N 
ATOM     16  C   UNL     1       4.978   6.169  16.011  0.00  0.00    +0.000 C 
ATOM     17  C   UNL     1       4.704   4.455  17.708  0.00  0.00    +0.000 A 
ATOM     18  O   UNL     1       5.449   3.710  17.067  0.00  0.00    +0.000 OA
ENDROOT
BRANCH   6  19
ATOM     19  O   UNL     1       1.566   6.694  21.068  0.00  0.00    +0.000 OA
ATOM     20  H   UNL     1       2.180   6.118  21.575  0.00  0.00    +0.000 HD
ENDBRANCH   6  19
TORSDOF 1
ENDMDL
MODEL 3
REMARK VINA RESULT:      -6.6      1.824      2.958
REMARK  Name = 
REMARK  3 active torsions:
REMARK  status: ('A' for Active; 'I' for Inactive)
REMARK    1  A    between atoms: C_1  and  N_2
REMARK    2  A    between atoms: C_6  and  O_7
REMARK    3  A    between atoms: N_16  and  C_17
REMARK                            x       y       z     vdW  Elec       q    Type
REMARK                         _______ _______ _______ _____ _____    ______ ____
ROOT
ATOM      1  C   UNL     1       1.248   6.023  20.987  0.00  0.00    +0.000 C 
ATOM      2  N   UNL     1       2.056   5.345  19.988  0.00  0.00    +0.000 N 
ATOM      3  C   UNL     1       2.802   6.110  19.115  0.00  0.00    +0.000 A 
ATOM      4  O   UNL     1       2.839   7.340  19.115  0.00  0.00    +0.000 OA
ATOM      5  C   UNL     1       3.608   5.402  18.122  0.00  0.00    +0.000 A 
ATOM      6  C   UNL     1       4.405   6.079  17.191  0.00  0.00    +0.000 A 
ATOM      7  C   UNL     1       5.168   5.388  16.253  0.00  0.00    +0.000 A 
ATOM      8  N   UNL     1       5.939   6.046  15.352  0.00  0.00    +0.000 NA
ATOM      9  C   UNL     1       6.628   5.284  14.499  0.00  0.00    +0.000 A 
ATOM     10  N   UNL     1       6.592   3.948  14.491  0.00  0.00    +0.000 NA
ATOM     11  N   UNL     1       5.802   3.303  15.414  0.00  0.00    +0.000 NA
ATOM     12  C   UNL     1       5.082   3.989  16.304  0.00  0.00    +0.000 A 
ATOM     13  N   UNL     1       4.317   3.332  17.196  0.00  0.00    +0.000 NA
ATOM     14  C   UNL     1       3.587   4.026  18.097  0.00  0.00    +0.000 A 
ATOM     15  N   UNL     1       2.794   3.322  19.025  0.00  0.00    +0.000 N 
ATOM     16  C   UNL     1       2.772   1.868  19.001  0.00  0.00    +0.000 C 
ATOM     17  C   UNL     1       2.018   3.958  19.980  0.00  0.00    +0.000 A 
ATOM     18  O   UNL     1       1.330   3.325  20.784  0.00  0.00    +0.000 OA
ENDROOT
BRANCH   6  19
ATOM     19  O   UNL     1       4.466   7.459  17.169  0.00  0.00    +0.000 OA
ATOM     20  H   UNL     1       5.320   7.748  16.776  0.00  0.00    +0.000 HD
ENDBRANCH   6  19
TORSDOF 1
ENDMDL
MODEL 4
REMARK VINA RESULT:      -6.5      1.226      1.407
REMARK  Name = 
REMARK  3 active torsions:
REMARK  status: ('A' for Active; 'I' for Inactive)
REMARK    1  A    between atoms: C_1  and  N_2
REMARK    2  A    between atoms: C_6  and  O_7
REMARK    3  A    between atoms: N_16  and  C_17
REMARK                            x       y       z     vdW  Elec       q    Type
REMARK                         _______ _______ _______ _____ _____    ______ ____
ROOT
ATOM      1  C   UNL     1       1.567   5.389  21.153  0.00  0.00    +0.000 C 
ATOM      2  N   UNL     1       2.330   5.711  19.960  0.00  0.00    +0.000 N 
ATOM      3  C   UNL     1       3.065   4.710  19.358  0.00  0.00    +0.000 A 
ATOM      4  O   UNL     1       3.126   3.548  19.759  0.00  0.00    +0.000 OA
ATOM      5  C   UNL     1       3.822   5.060  18.158  0.00  0.00    +0.000 A 
ATOM      6  C   UNL     1       4.597   4.121  17.467  0.00  0.00    +0.000 A 
ATOM      7  C   UNL     1       5.311   4.473  16.324  0.00  0.00    +0.000 A 
ATOM      8  N   UNL     1       6.062   3.562  15.656  0.00  0.00    +0.000 NA
ATOM      9  C   UNL     1       6.703   4.008  14.574  0.00  0.00    +0.000 A 
ATOM     10  N   UNL     1       6.644   5.268  14.134  0.00  0.00    +0.000 NA
ATOM     11  N   UNL     1       5.876   6.174  14.828  0.00  0.00    +0.000 NA
ATOM     12  C   UNL     1       5.201   5.812  15.920  0.00  0.00    +0.000 A 
ATOM     13  N   UNL     1       4.457   6.719  16.580  0.00  0.00    +0.000 NA
ATOM     14  C   UNL     1       3.773   6.353  17.686  0.00  0.00    +0.000 A 
ATOM     15  N   UNL     1       2.997   7.315  18.364  0.00  0.00    +0.000 N 
ATOM     16  C   UNL     1       2.944   8.680  17.866  0.00  0.00    +0.000 C 
ATOM     17  C   UNL     1       2.267   7.020  19.503  0.00  0.00    +0.000 A 
ATOM     18  O   UNL     1       1.595   7.876  20.083  0.00  0.00    +0.000 OA
ENDROOT
BRANCH   6  19
ATOM     19  O   UNL     1       4.683   2.810  17.893  0.00  0.00    +0.000 OA
ATOM     20  H   UNL     1       4.480   2.758  18.854  0.00  0.00    +0.000 HD
ENDBRANCH   6  19
TORSDOF 1
ENDMDL
MODEL 5
REMARK VINA RESULT:      -6.4      1.746      5.084
REMARK  Name = 
REMARK  3 active torsions:
REMARK  status: ('A' for Active; 'I' for Inactive)
REMARK    1  A    between atoms: C_1  and  N_2
REMARK    2  A    between atoms: C_6  and  O_7
REMARK    3  A    between atoms: N_16  and  C_17
REMARK                            x       y       z     vdW  Elec       q    Type
REMARK                         _______ _______ _______ _____ _____    ______ ____
ROOT
ATOM      1  C   UNL     1       6.285   5.004  14.558  0.00  0.00    +0.000 C 
ATOM      2  N   UNL     1       5.408   5.111  15.710  0.00  0.00    +0.000 N 
ATOM      3  C   UNL     1       5.095   3.963  16.409  0.00  0.00    +0.000 A 
ATOM      4  O   UNL     1       5.506   2.838  16.128  0.00  0.00    +0.000 OA
ATOM      5  C   UNL     1       4.212   4.100  17.566  0.00  0.00    +0.000 A 
ATOM      6  C   UNL     1       3.834   3.001  18.347  0.00  0.00    +0.000 A 
ATOM      7  C   UNL     1       2.993   3.151  19.447  0.00  0.00    +0.000 A 
ATOM      8  N   UNL     1       2.628   2.085  20.202  0.00  0.00    +0.000 NA
ATOM      9  C   UNL     1       1.819   2.343  21.232  0.00  0.00    +0.000 A 
ATOM     10  N   UNL     1       1.366   3.561  21.542  0.00  0.00    +0.000 NA
ATOM     11  N   UNL     1       1.750   4.627  20.761  0.00  0.00    +0.000 NA
ATOM     12  C   UNL     1       2.558   4.457  19.713  0.00  0.00    +0.000 A 
ATOM     13  N   UNL     1       2.918   5.518  18.965  0.00  0.00    +0.000 NA
ATOM     14  C   UNL     1       3.736   5.346  17.904  0.00  0.00    +0.000 A 
ATOM     15  N   UNL     1       4.105   6.468  17.134  0.00  0.00    +0.000 N 
ATOM     16  C   UNL     1       3.603   7.785  17.491  0.00  0.00    +0.000 C 
ATOM     17  C   UNL     1       4.939   6.377  16.032  0.00  0.00    +0.000 A 
ATOM     18  O   UNL     1       5.249   7.369  15.370  0.00  0.00    +0.000 OA
ENDROOT
BRANCH   6  19
ATOM     19  O   UNL     1       4.282   1.727  18.056  0.00  0.00    +0.000 OA
ATOM     20  H   UNL     1       5.208   1.766  17.728  0.00  0.00    +0.000 HD
ENDBRANCH   6  19
TORSDOF 1
ENDMDL
MODEL 6
REMARK VINA RESULT:      -6.3      2.766      5.916
REMARK  Name = 
REMARK  3 active torsions:
REMARK  status: ('A' for Active; 'I' for Inactive)
REMARK    1  A    between atoms: C_1  and  N_2
REMARK    2  A    between atoms: C_6  and  O_7
REMARK    3  A    between atoms: N_16  and  C_17
REMARK                            x       y       z     vdW  Elec       q    Type
REMARK                         _______ _______ _______ _____ _____    ______ ____
ROOT
ATOM      1  C   UNL     1       4.856   3.977  17.312  0.00  0.00    +0.000 C 
ATOM      2  N   UNL     1       3.972   4.693  18.215  0.00  0.00    +0.000 N 
ATOM      3  C   UNL     1       3.629   5.993  17.907  0.00  0.00    +0.000 A 
ATOM      4  O   UNL     1       4.019   6.604  16.912  0.00  0.00    +0.000 OA
ATOM      5  C   UNL     1       2.736   6.690  18.832  0.00  0.00    +0.000 A 
ATOM      6  C   UNL     1       2.322   8.010  18.613  0.00  0.00    +0.000 A 
ATOM      7  C   UNL     1       1.470   8.657  19.505  0.00  0.00    +0.000 A 
ATOM      8  N   UNL     1       1.070   9.935  19.291  0.00  0.00    +0.000 NA
ATOM      9  C   UNL     1       0.254  10.457  20.209  0.00  0.00    +0.000 A 
ATOM     10  N   UNL     1      -0.172   9.802  21.293  0.00  0.00    +0.000 NA
ATOM     11  N   UNL     1       0.247   8.506  21.487  0.00  0.00    +0.000 NA
ATOM     12  C   UNL     1       1.063   7.908  20.618  0.00  0.00    +0.000 A 
ATOM     13  N   UNL     1       1.458   6.639  20.833  0.00  0.00    +0.000 NA
ATOM     14  C   UNL     1       2.285   6.032  19.953  0.00  0.00    +0.000 A 
ATOM     15  N   UNL     1       2.686   4.703  20.193  0.00  0.00    +0.000 N 
ATOM     16  C   UNL     1       2.208   4.007  21.377  0.00  0.00    +0.000 C 
ATOM     17  C   UNL     1       3.530   4.011  19.340  0.00  0.00    +0.000 A 
ATOM     18  O   UNL     1       3.871   2.848  19.567  0.00  0.00    +0.000 OA
ENDROOT
BRANCH   6  19
ATOM     19  O   UNL     1       2.743   8.719  17.505  0.00  0.00    +0.000 OA
ATOM     20  H   UNL     1       2.276   8.391  16.704  0.00  0.00    +0.000 HD
ENDBRANCH   6  19
TORSDOF 1
ENDMDL
MODEL 7
REMARK VINA RESULT:      -6.2      2.831      4.999
REMARK  Name = 
REMARK  3 active torsions:
REMARK  status: ('A' for Active; 'I' for Inactive)
REMARK    1  A    between atoms: C_1  and  N_2
REMARK    2  A    between atoms: C_6  and  O_7
REMARK    3  A    between atoms: N_16  and  C_17
REMARK                            x       y       z     vdW  Elec       q    Type
REMARK                         _______ _______ _______ _____ _____    ______ ____
ROOT
ATOM      1  C   UNL     1       8.402   6.862  18.868  0.00  0.00    +0.000 C 
ATOM      2  N   UNL     1       7.099   6.366  18.462  0.00  0.00    +0.000 N 
ATOM      3  C   UNL     1       6.541   5.323  19.172  0.00  0.00    +0.000 A 
ATOM      4  O   UNL     1       7.069   4.770  20.136  0.00  0.00    +0.000 OA
ATOM      5  C   UNL     1       5.227   4.844  18.744  0.00  0.00    +0.000 A 
ATOM      6  C   UNL     1       4.570   3.794  19.396  0.00  0.00    +0.000 A 
ATOM      7  C   UNL     1       3.318   3.353  18.975  0.00  0.00    +0.000 A 
ATOM      8  N   UNL     1       2.683   2.335  19.608  0.00  0.00    +0.000 NA
ATOM      9  C   UNL     1       1.488   1.994  19.121  0.00  0.00    +0.000 A 
ATOM     10  N   UNL     1       0.909   2.588  18.073  0.00  0.00    +0.000 NA
ATOM     11  N   UNL     1       1.572   3.618  17.447  0.00  0.00    +0.000 NA
ATOM     12  C   UNL     1       2.771   4.022  17.870  0.00  0.00    +0.000 A 
ATOM     13  N   UNL     1       3.399   5.033  17.240  0.00  0.00    +0.000 NA
ATOM     14  C   UNL     1       4.612   5.443  17.668  0.00  0.00    +0.000 A 
ATOM     15  N   UNL     1       5.254   6.504  16.997  0.00  0.00    +0.000 N 
ATOM     16  C   UNL     1       4.605   7.138  15.861  0.00  0.00    +0.000 C 
ATOM     17  C   UNL     1       6.497   6.984  17.374  0.00  0.00    +0.000 A 
ATOM     18  O   UNL     1       7.044   7.912  16.774  0.00  0.00    +0.000 OA
ENDROOT
BRANCH   6  19
ATOM     19  O   UNL     1       5.138   3.157  20.482  0.00  0.00    +0.000 OA
ATOM     20  H   UNL     1       5.656   3.802  21.013  0.00  0.00    +0.000 HD
ENDBRANCH   6  19
TORSDOF 1
ENDMDL
MODEL 8
REMARK VINA RESULT:      -6.2      2.650      3.549
REMARK  Name = 
REMARK  3 active torsions:
REMARK  status: ('A' for Active; 'I' for Inactive)
REMARK    1  A    between atoms: C_1  and  N_2
REMARK    2  A    between atoms: C_6  and  O_7
REMARK    3  A    between atoms: N_16  and  C_17
REMARK                            x       y       z     vdW  Elec       q    Type
REMARK                         _______ _______ _______ _____ _____    ______ ____
ROOT
ATOM      1  C   UNL     1       0.461   2.873  18.624  0.00  0.00    +0.000 C 
ATOM      2  N   UNL     1       1.858   3.224  18.812  0.00  0.00    +0.000 N 
ATOM      3  C   UNL     1       2.336   4.368  18.206  0.00  0.00    +0.000 A 
ATOM      4  O   UNL     1       1.664   5.126  17.508  0.00  0.00    +0.000 OA
ATOM      5  C   UNL     1       3.745   4.699  18.414  0.00  0.00    +0.000 A 
ATOM      6  C   UNL     1       4.332   5.837  17.848  0.00  0.00    +0.000 A 
ATOM      7  C   UNL     1       5.676   6.137  18.058  0.00  0.00    +0.000 A 
ATOM      8  N   UNL     1       6.243   7.240  17.510  0.00  0.00    +0.000 NA
ATOM      9  C   UNL     1       7.537   7.431  17.776  0.00  0.00    +0.000 A 
ATOM     10  N   UNL     1       8.275   6.612  18.531  0.00  0.00    +0.000 NA
ATOM     11  N   UNL     1       7.678   5.499  19.076  0.00  0.00    +0.000 NA
ATOM     12  C   UNL     1       6.389   5.234  18.861  0.00  0.00    +0.000 A 
ATOM     13  N   UNL     1       5.829   4.138  19.407  0.00  0.00    +0.000 NA
ATOM     14  C   UNL     1       4.523   3.869  19.189  0.00  0.00    +0.000 A 
ATOM     15  N   UNL     1       3.953   2.718  19.770  0.00  0.00    +0.000 N 
ATOM     16  C   UNL     1       4.773   1.842  20.591  0.00  0.00    +0.000 C 
ATOM     17  C   UNL     1       2.624   2.373  19.597  0.00  0.00    +0.000 A 
ATOM     18  O   UNL     1       2.143   1.361  20.112  0.00  0.00    +0.000 OA
ENDROOT
BRANCH   6  19
ATOM     19  O   UNL     1       3.601   6.706  17.062  0.00  0.00    +0.000 OA
ATOM     20  H   UNL     1       3.291   6.241  16.253  0.00  0.00    +0.000 HD
ENDBRANCH   6  19
TORSDOF 1
ENDMDL
MODEL 9
REMARK VINA RESULT:      -6.2      2.172      5.410
REMARK  Name = 
REMARK  3 active torsions:
REMARK  status: ('A' for Active; 'I' for Inactive)
REMARK    1  A    between atoms: C_1  and  N_2
REMARK    2  A    between atoms: C_6  and  O_7
REMARK    3  A    between atoms: N_16  and  C_17
REMARK                            x       y       z     vdW  Elec       q    Type
REMARK                         _______ _______ _______ _____ _____    ______ ____
ROOT
ATOM      1  C   UNL     1       6.934   4.936  14.750  0.00  0.00    +0.000 C 
ATOM      2  N   UNL     1       6.250   4.827  16.026  0.00  0.00    +0.000 N 
ATOM      3  C   UNL     1       4.987   4.272  16.050  0.00  0.00    +0.000 A 
ATOM      4  O   UNL     1       4.385   3.856  15.061  0.00  0.00    +0.000 OA
ATOM      5  C   UNL     1       4.321   4.172  17.348  0.00  0.00    +0.000 A 
ATOM      6  C   UNL     1       3.041   3.622  17.487  0.00  0.00    +0.000 A 
ATOM      7  C   UNL     1       2.424   3.534  18.733  0.00  0.00    +0.000 A 
ATOM      8  N   UNL     1       1.184   3.001  18.865  0.00  0.00    +0.000 NA
ATOM      9  C   UNL     1       0.687   2.966  20.103  0.00  0.00    +0.000 A 
ATOM     10  N   UNL     1       1.334   3.417  21.182  0.00  0.00    +0.000 NA
ATOM     11  N   UNL     1       2.591   3.953  21.023  0.00  0.00    +0.000 NA
ATOM     12  C   UNL     1       3.161   4.026  19.819  0.00  0.00    +0.000 A 
ATOM     13  N   UNL     1       4.392   4.556  19.691  0.00  0.00    +0.000 NA
ATOM     14  C   UNL     1       4.970   4.630  18.473  0.00  0.00    +0.000 A 
ATOM     15  N   UNL     1       6.261   5.185  18.358  0.00  0.00    +0.000 N 
ATOM     16  C   UNL     1       6.948   5.667  19.545  0.00  0.00    +0.000 C 
ATOM     17  C   UNL     1       6.922   5.296  17.146  0.00  0.00    +0.000 A 
ATOM     18  O   UNL     1       8.051   5.786  17.065  0.00  0.00    +0.000 OA
ENDROOT
BRANCH   6  19
ATOM     19  O   UNL     1       2.343   3.147  16.394  0.00  0.00    +0.000 OA
ATOM     20  H   UNL     1       2.314   3.835  15.693  0.00  0.00    +0.000 HD
ENDBRANCH   6  19
TORSDOF 1
ENDMDL
