MODEL 1
REMARK VINA RESULT:      -7.2      0.000      0.000
REMARK  Name = 
REMARK  8 active torsions:
REMARK  status: ('A' for Active; 'I' for Inactive)
REMARK    1  A    between atoms: C_2  and  C_3
REMARK    2  A    between atoms: C_3  and  O_4
REMARK    3  A    between atoms: O_4  and  C_5
REMARK    4  A    between atoms: C_8  and  C_9
REMARK    5  A    between atoms: N_14  and  N_15
REMARK    6  A    between atoms: N_15  and  S_16
REMARK    7  A    between atoms: S_16  and  C_19
REMARK    8  A    between atoms: C_22  and  C_23
REMARK                            x       y       z     vdW  Elec       q    Type
REMARK                         _______ _______ _______ _____ _____    ______ ____
ROOT
ATOM      1  C   UNL     1       2.472   8.043  18.113  0.00  0.00    +0.000 C 
ATOM      2  C   UNL     1       1.833   8.665  19.117  0.00  0.00    +0.000 C 
ATOM      3  S   UNL     1       1.333   7.928  20.595  0.00  0.00    +0.000 S 
ATOM      4  C   UNL     1       0.654   9.417  21.248  0.00  0.00    +0.000 C 
ATOM      5  S   UNL     1       0.113   9.489  22.818  0.00  0.00    +0.000 S 
ATOM      6  N   UNL     1       0.761  10.412  20.291  0.00  0.00    +0.000 N 
ATOM      7  C   UNL     1       1.441  10.109  19.115  0.00  0.00    +0.000 C 
ATOM      8  O   UNL     1       1.703  10.908  18.224  0.00  0.00    +0.000 OA
ENDROOT
BRANCH   1  12
ATOM      9  C   UNL     1       3.528   3.883  18.132  0.00  0.00    +0.000 A 
ATOM     10  C   UNL     1       4.494   4.866  18.362  0.00  0.00    +0.000 A 
ATOM     11  C   UNL     1       4.139   6.219  18.371  0.00  0.00    +0.000 A 
ATOM     12  C   UNL     1       2.821   6.610  18.118  0.00  0.00    +0.000 A 
ATOM     13  C   UNL     1       1.867   5.628  17.825  0.00  0.00    +0.000 A 
ATOM     14  C   UNL     1       2.223   4.270  17.825  0.00  0.00    +0.000 A 
BRANCH   9  15
ATOM     15  O   UNL     1       3.765   2.533  18.190  0.00  0.00    +0.000 OA
BRANCH  15  16
ATOM     16  C   UNL     1       3.025   1.845  19.204  0.00  0.00    +0.000 C 
BRANCH  16  18
ATOM     17  C   UNL     1       2.432   2.782  21.450  0.00  0.00    +0.000 C 
ATOM     18  C   UNL     1       3.356   2.433  20.544  0.00  0.00    +0.000 C 
ENDBRANCH  16  18
ENDBRANCH  15  16
ENDBRANCH   9  15
ENDBRANCH   1  12
BRANCH   6  19
ATOM     19  N   UNL     1       0.297  11.839  20.490  0.00  0.00    +0.000 NA
ATOM     20  H   UNL     1       1.017  12.487  20.145  0.00  0.00    +0.000 HD
BRANCH  19  21
ATOM     21  S   UNL     1      -1.183  12.208  19.693  0.00  0.00    +0.000 S 
ATOM     22  O   UNL     1      -0.945  13.424  18.944  0.00  0.00    +0.000 OA
ATOM     23  O   UNL     1      -1.702  11.025  19.047  0.00  0.00    +0.000 OA
BRANCH  21  24
ATOM     24  C   UNL     1      -2.308  12.601  21.024  0.00  0.00    +0.000 A 
ATOM     25  C   UNL     1      -3.676  12.722  20.765  0.00  0.00    +0.000 A 
ATOM     26  C   UNL     1      -4.580  12.798  21.833  0.00  0.00    +0.000 A 
ATOM     27  C   UNL     1      -4.131  12.742  23.157  0.00  0.00    +0.000 A 
ATOM     28  C   UNL     1      -5.103  12.727  24.304  0.00  0.00    +0.000 C 
ATOM     29  C   UNL     1      -2.756  12.640  23.406  0.00  0.00    +0.000 A 
ATOM     30  C   UNL     1      -1.845  12.565  22.345  0.00  0.00    +0.000 A 
ENDBRANCH  21  24
ENDBRANCH  19  21
ENDBRANCH   6  19
TORSDOF 7
ENDMDL
MODEL 2
REMARK VINA RESULT:      -7.2      2.924      4.097
REMARK  Name = 
REMARK  8 active torsions:
REMARK  status: ('A' for Active; 'I' for Inactive)
REMARK    1  A    between atoms: C_2  and  C_3
REMARK    2  A    between atoms: C_3  and  O_4
REMARK    3  A    between atoms: O_4  and  C_5
REMARK    4  A    between atoms: C_8  and  C_9
REMARK    5  A    between atoms: N_14  and  N_15
REMARK    6  A    between atoms: N_15  and  S_16
REMARK    7  A    between atoms: S_16  and  C_19
REMARK    8  A    between atoms: C_22  and  C_23
REMARK                            x       y       z     vdW  Elec       q    Type
REMARK                         _______ _______ _______ _____ _____    ______ ____
ROOT
ATOM      1  C   UNL     1       3.411   5.783  19.385  0.00  0.00    +0.000 C 
ATOM      2  C   UNL     1       2.638   6.881  19.335  0.00  0.00    +0.000 C 
ATOM      3  S   UNL     1       2.666   8.070  18.085  0.00  0.00    +0.000 S 
ATOM      4  C   UNL     1       1.390   9.041  18.816  0.00  0.00    +0.000 C 
ATOM      5  S   UNL     1       0.741  10.340  18.006  0.00  0.00    +0.000 S 
ATOM      6  N   UNL     1       1.034   8.471  20.026  0.00  0.00    +0.000 N 
ATOM      7  C   UNL     1       1.624   7.257  20.369  0.00  0.00    +0.000 C 
ATOM      8  O   UNL     1       1.338   6.586  21.352  0.00  0.00    +0.000 OA
ENDROOT
BRANCH   1  12
ATOM      9  C   UNL     1       6.348   4.772  16.423  0.00  0.00    +0.000 A 
ATOM     10  C   UNL     1       5.036   4.307  16.314  0.00  0.00    +0.000 A 
ATOM     11  C   UNL     1       4.080   4.655  17.275  0.00  0.00    +0.000 A 
ATOM     12  C   UNL     1       4.430   5.445  18.374  0.00  0.00    +0.000 A 
ATOM     13  C   UNL     1       5.761   5.857  18.515  0.00  0.00    +0.000 A 
ATOM     14  C   UNL     1       6.716   5.514  17.546  0.00  0.00    +0.000 A 
BRANCH   9  15
ATOM     15  O   UNL     1       7.329   4.555  15.489  0.00  0.00    +0.000 OA
BRANCH  15  16
ATOM     16  C   UNL     1       6.964   4.915  14.153  0.00  0.00    +0.000 C 
BRANCH  16  18
ATOM     17  C   UNL     1       6.379   3.509  12.163  0.00  0.00    +0.000 C 
ATOM     18  C   UNL     1       6.317   3.739  13.482  0.00  0.00    +0.000 C 
ENDBRANCH  16  18
ENDBRANCH  15  16
ENDBRANCH   9  15
ENDBRANCH   1  12
BRANCH   6  19
ATOM     19  N   UNL     1      -0.041   9.016  20.941  0.00  0.00    +0.000 NA
ATOM     20  H   UNL     1      -0.406   8.260  21.534  0.00  0.00    +0.000 HD
BRANCH  19  21
ATOM     21  S   UNL     1       0.496  10.289  21.967  0.00  0.00    +0.000 S 
ATOM     22  O   UNL     1       0.686   9.698  23.276  0.00  0.00    +0.000 OA
ATOM     23  O   UNL     1       1.557  11.027  21.322  0.00  0.00    +0.000 OA
BRANCH  21  24
ATOM     24  C   UNL     1      -0.907  11.389  22.066  0.00  0.00    +0.000 A 
ATOM     25  C   UNL     1      -1.401  11.994  20.907  0.00  0.00    +0.000 A 
ATOM     26  C   UNL     1      -2.630  12.666  20.943  0.00  0.00    +0.000 A 
ATOM     27  C   UNL     1      -3.377  12.728  22.124  0.00  0.00    +0.000 A 
ATOM     28  C   UNL     1      -4.740  13.364  22.145  0.00  0.00    +0.000 C 
ATOM     29  C   UNL     1      -2.866  12.136  23.286  0.00  0.00    +0.000 A 
ATOM     30  C   UNL     1      -1.637  11.464  23.260  0.00  0.00    +0.000 A 
ENDBRANCH  21  24
ENDBRANCH  19  21
ENDBRANCH   6  19
TORSDOF 7
ENDMDL
MODEL 3
REMARK VINA RESULT:      -7.0      2.851      3.646
REMARK  Name = 
REMARK  8 active torsions:
REMARK  status: ('A' for Active; 'I' for Inactive)
REMARK    1  A    between atoms: C_2  and  C_3
REMARK    2  A    between atoms: C_3  and  O_4
REMARK    3  A    between atoms: O_4  and  C_5
REMARK    4  A    between atoms: C_8  and  C_9
REMARK    5  A    between atoms: N_14  and  N_15
REMARK    6  A    between atoms: N_15  and  S_16
REMARK    7  A    between atoms: S_16  and  C_19
REMARK    8  A    between atoms: C_22  and  C_23
REMARK                            x       y       z     vdW  Elec       q    Type
REMARK                         _______ _______ _______ _____ _____    ______ ____
ROOT
ATOM      1  C   UNL     1       2.246   8.101  18.309  0.00  0.00    +0.000 C 
ATOM      2  C   UNL     1       1.569   8.768  19.259  0.00  0.00    +0.000 C 
ATOM      3  S   UNL     1       1.156   8.151  20.816  0.00  0.00    +0.000 S 
ATOM      4  C   UNL     1       0.359   9.637  21.326  0.00  0.00    +0.000 C 
ATOM      5  S   UNL     1      -0.164   9.827  22.893  0.00  0.00    +0.000 S 
ATOM      6  N   UNL     1       0.365  10.530  20.269  0.00  0.00    +0.000 N 
ATOM      7  C   UNL     1       1.052  10.165  19.115  0.00  0.00    +0.000 C 
ATOM      8  O   UNL     1       1.230  10.885  18.141  0.00  0.00    +0.000 OA
ENDROOT
BRANCH   1  12
ATOM      9  C   UNL     1       3.662   4.073  18.747  0.00  0.00    +0.000 A 
ATOM     10  C   UNL     1       4.447   5.154  19.156  0.00  0.00    +0.000 A 
ATOM     11  C   UNL     1       3.971   6.463  19.025  0.00  0.00    +0.000 A 
ATOM     12  C   UNL     1       2.719   6.712  18.455  0.00  0.00    +0.000 A 
ATOM     13  C   UNL     1       1.960   5.632  17.989  0.00  0.00    +0.000 A 
ATOM     14  C   UNL     1       2.436   4.319  18.128  0.00  0.00    +0.000 A 
BRANCH   9  15
ATOM     15  O   UNL     1       4.006   2.755  18.915  0.00  0.00    +0.000 OA
BRANCH  15  16
ATOM     16  C   UNL     1       3.048   1.980  19.642  0.00  0.00    +0.000 C 
BRANCH  16  18
ATOM     17  C   UNL     1       1.573   2.638  21.556  0.00  0.00    +0.000 C 
ATOM     18  C   UNL     1       2.773   2.642  20.960  0.00  0.00    +0.000 C 
ENDBRANCH  16  18
ENDBRANCH  15  16
ENDBRANCH   9  15
ENDBRANCH   1  12
BRANCH   6  19
ATOM     19  N   UNL     1      -0.220  11.926  20.330  0.00  0.00    +0.000 NA
ATOM     20  H   UNL     1      -1.088  11.913  20.880  0.00  0.00    +0.000 HD
BRANCH  19  21
ATOM     21  S   UNL     1       0.837  13.095  21.022  0.00  0.00    +0.000 S 
ATOM     22  O   UNL     1       0.159  13.606  22.195  0.00  0.00    +0.000 OA
ATOM     23  O   UNL     1       2.175  12.558  21.109  0.00  0.00    +0.000 OA
BRANCH  21  24
ATOM     24  C   UNL     1       0.889  14.406  19.810  0.00  0.00    +0.000 A 
ATOM     25  C   UNL     1      -0.302  14.987  19.362  0.00  0.00    +0.000 A 
ATOM     26  C   UNL     1      -0.256  16.159  18.596  0.00  0.00    +0.000 A 
ATOM     27  C   UNL     1       0.965  16.763  18.283  0.00  0.00    +0.000 A 
ATOM     28  C   UNL     1       1.015  18.072  17.544  0.00  0.00    +0.000 C 
ATOM     29  C   UNL     1       2.154  16.163  18.719  0.00  0.00    +0.000 A 
ATOM     30  C   UNL     1       2.119  14.991  19.484  0.00  0.00    +0.000 A 
ENDBRANCH  21  24
ENDBRANCH  19  21
ENDBRANCH   6  19
TORSDOF 7
ENDMDL
MODEL 4
REMARK VINA RESULT:      -6.9      2.730      3.842
REMARK  Name = 
REMARK  8 active torsions:
REMARK  status: ('A' for Active; 'I' for Inactive)
REMARK    1  A    between atoms: C_2  and  C_3
REMARK    2  A    between atoms: C_3  and  O_4
REMARK    3  A    between atoms: O_4  and  C_5
REMARK    4  A    between atoms: C_8  and  C_9
REMARK    5  A    between atoms: N_14  and  N_15
REMARK    6  A    between atoms: N_15  and  S_16
REMARK    7  A    between atoms: S_16  and  C_19
REMARK    8  A    between atoms: C_22  and  C_23
REMARK                            x       y       z     vdW  Elec       q    Type
REMARK                         _______ _______ _______ _____ _____    ______ ____
ROOT
ATOM      1  C   UNL     1       1.743   8.848  18.050  0.00  0.00    +0.000 C 
ATOM      2  C   UNL     1       1.145   9.239  19.188  0.00  0.00    +0.000 C 
ATOM      3  S   UNL     1       1.246   8.423  20.705  0.00  0.00    +0.000 S 
ATOM      4  C   UNL     1       0.236   9.600  21.541  0.00  0.00    +0.000 C 
ATOM      5  S   UNL     1       0.036   9.530  23.190  0.00  0.00    +0.000 S 
ATOM      6  N   UNL     1      -0.209  10.536  20.624  0.00  0.00    +0.000 N 
ATOM      7  C   UNL     1       0.280  10.453  19.323  0.00  0.00    +0.000 C 
ATOM      8  O   UNL     1       0.059  11.262  18.431  0.00  0.00    +0.000 OA
ENDROOT
BRANCH   1  12
ATOM      9  C   UNL     1       4.106   5.281  17.709  0.00  0.00    +0.000 A 
ATOM     10  C   UNL     1       2.793   5.225  18.182  0.00  0.00    +0.000 A 
ATOM     11  C   UNL     1       2.024   6.389  18.274  0.00  0.00    +0.000 A 
ATOM     12  C   UNL     1       2.566   7.630  17.927  0.00  0.00    +0.000 A 
ATOM     13  C   UNL     1       3.902   7.693  17.512  0.00  0.00    +0.000 A 
ATOM     14  C   UNL     1       4.670   6.523  17.412  0.00  0.00    +0.000 A 
BRANCH   9  15
ATOM     15  O   UNL     1       4.906   4.185  17.502  0.00  0.00    +0.000 OA
BRANCH  15  16
ATOM     16  C   UNL     1       6.098   4.453  16.758  0.00  0.00    +0.000 C 
BRANCH  16  18
ATOM     17  C   UNL     1       5.920   4.287  14.264  0.00  0.00    +0.000 C 
ATOM     18  C   UNL     1       6.053   3.700  15.461  0.00  0.00    +0.000 C 
ENDBRANCH  16  18
ENDBRANCH  15  16
ENDBRANCH   9  15
ENDBRANCH   1  12
BRANCH   6  19
ATOM     19  N   UNL     1      -1.093  11.715  20.970  0.00  0.00    +0.000 NA
ATOM     20  H   UNL     1      -1.798  11.427  21.661  0.00  0.00    +0.000 HD
BRANCH  19  21
ATOM     21  S   UNL     1      -0.236  13.065  21.608  0.00  0.00    +0.000 S 
ATOM     22  O   UNL     1      -0.818  13.332  22.907  0.00  0.00    +0.000 OA
ATOM     23  O   UNL     1       1.185  12.862  21.456  0.00  0.00    +0.000 OA
BRANCH  21  24
ATOM     24  C   UNL     1      -0.681  14.414  20.525  0.00  0.00    +0.000 A 
ATOM     25  C   UNL     1      -1.644  15.343  20.931  0.00  0.00    +0.000 A 
ATOM     26  C   UNL     1      -1.825  16.520  20.194  0.00  0.00    +0.000 A 
ATOM     27  C   UNL     1      -1.046  16.785  19.063  0.00  0.00    +0.000 A 
ATOM     28  C   UNL     1      -1.170  18.089  18.324  0.00  0.00    +0.000 C 
ATOM     29  C   UNL     1      -0.098  15.839  18.652  0.00  0.00    +0.000 A 
ATOM     30  C   UNL     1       0.090  14.658  19.382  0.00  0.00    +0.000 A 
ENDBRANCH  21  24
ENDBRANCH  19  21
ENDBRANCH   6  19
TORSDOF 7
ENDMDL
MODEL 5
REMARK VINA RESULT:      -6.9      3.012      4.103
REMARK  Name = 
REMARK  8 active torsions:
REMARK  status: ('A' for Active; 'I' for Inactive)
REMARK    1  A    between atoms: C_2  and  C_3
REMARK    2  A    between atoms: C_3  and  O_4
REMARK    3  A    between atoms: O_4  and  C_5
REMARK    4  A    between atoms: C_8  and  C_9
REMARK    5  A    between atoms: N_14  and  N_15
REMARK    6  A    between atoms: N_15  and  S_16
REMARK    7  A    between atoms: S_16  and  C_19
REMARK    8  A    between atoms: C_22  and  C_23
REMARK                            x       y       z     vdW  Elec       q    Type
REMARK                         _______ _______ _______ _____ _____    ______ ____
ROOT
ATOM      1  C   UNL     1       3.351   6.005  19.192  0.00  0.00    +0.000 C 
ATOM      2  C   UNL     1       2.506   7.049  19.218  0.00  0.00    +0.000 C 
ATOM      3  S   UNL     1       2.320   8.219  17.963  0.00  0.00    +0.000 S 
ATOM      4  C   UNL     1       1.069   9.115  18.820  0.00  0.00    +0.000 C 
ATOM      5  S   UNL     1       0.252  10.358  18.076  0.00  0.00    +0.000 S 
ATOM      6  N   UNL     1       0.885   8.542  20.066  0.00  0.00    +0.000 N 
ATOM      7  C   UNL     1       1.587   7.374  20.352  0.00  0.00    +0.000 C 
ATOM      8  O   UNL     1       1.454   6.700  21.366  0.00  0.00    +0.000 OA
ENDROOT
BRANCH   1  12
ATOM      9  C   UNL     1       6.063   5.206  15.962  0.00  0.00    +0.000 A 
ATOM     10  C   UNL     1       6.282   6.279  16.829  0.00  0.00    +0.000 A 
ATOM     11  C   UNL     1       5.404   6.523  17.890  0.00  0.00    +0.000 A 
ATOM     12  C   UNL     1       4.275   5.719  18.079  0.00  0.00    +0.000 A 
ATOM     13  C   UNL     1       4.023   4.682  17.171  0.00  0.00    +0.000 A 
ATOM     14  C   UNL     1       4.910   4.435  16.113  0.00  0.00    +0.000 A 
BRANCH   9  15
ATOM     15  O   UNL     1       6.913   4.838  14.950  0.00  0.00    +0.000 OA
BRANCH  15  16
ATOM     16  C   UNL     1       6.317   4.010  13.947  0.00  0.00    +0.000 C 
BRANCH  16  18
ATOM     17  C   UNL     1       7.727   5.288  12.316  0.00  0.00    +0.000 C 
ATOM     18  C   UNL     1       7.072   4.170  12.660  0.00  0.00    +0.000 C 
ENDBRANCH  16  18
ENDBRANCH  15  16
ENDBRANCH   9  15
ENDBRANCH   1  12
BRANCH   6  19
ATOM     19  N   UNL     1      -0.120   9.029  21.089  0.00  0.00    +0.000 NA
ATOM     20  H   UNL     1      -0.372   8.257  21.720  0.00  0.00    +0.000 HD
BRANCH  19  21
ATOM     21  S   UNL     1       0.443  10.343  22.047  0.00  0.00    +0.000 S 
ATOM     22  O   UNL     1       0.672   9.806  23.372  0.00  0.00    +0.000 OA
ATOM     23  O   UNL     1       1.482  11.057  21.342  0.00  0.00    +0.000 OA
BRANCH  21  24
ATOM     24  C   UNL     1      -0.961  11.444  22.142  0.00  0.00    +0.000 A 
ATOM     25  C   UNL     1      -1.406  12.104  20.993  0.00  0.00    +0.000 A 
ATOM     26  C   UNL     1      -2.634  12.779  21.013  0.00  0.00    +0.000 A 
ATOM     27  C   UNL     1      -3.427  12.789  22.165  0.00  0.00    +0.000 A 
ATOM     28  C   UNL     1      -4.788  13.430  22.162  0.00  0.00    +0.000 C 
ATOM     29  C   UNL     1      -2.964  12.142  23.318  0.00  0.00    +0.000 A 
ATOM     30  C   UNL     1      -1.737  11.466  23.308  0.00  0.00    +0.000 A 
ENDBRANCH  21  24
ENDBRANCH  19  21
ENDBRANCH   6  19
TORSDOF 7
ENDMDL
MODEL 6
REMARK VINA RESULT:      -6.8      2.903      4.100
REMARK  Name = 
REMARK  8 active torsions:
REMARK  status: ('A' for Active; 'I' for Inactive)
REMARK    1  A    between atoms: C_2  and  C_3
REMARK    2  A    between atoms: C_3  and  O_4
REMARK    3  A    between atoms: O_4  and  C_5
REMARK    4  A    between atoms: C_8  and  C_9
REMARK    5  A    between atoms: N_14  and  N_15
REMARK    6  A    between atoms: N_15  and  S_16
REMARK    7  A    between atoms: S_16  and  C_19
REMARK    8  A    between atoms: C_22  and  C_23
REMARK                            x       y       z     vdW  Elec       q    Type
REMARK                         _______ _______ _______ _____ _____    ______ ____
ROOT
ATOM      1  C   UNL     1       3.238   5.789  19.455  0.00  0.00    +0.000 C 
ATOM      2  C   UNL     1       2.524   6.925  19.382  0.00  0.00    +0.000 C 
ATOM      3  S   UNL     1       2.617   8.086  18.109  0.00  0.00    +0.000 S 
ATOM      4  C   UNL     1       1.394   9.138  18.818  0.00  0.00    +0.000 C 
ATOM      5  S   UNL     1       0.816  10.454  17.982  0.00  0.00    +0.000 S 
ATOM      6  N   UNL     1       1.007   8.612  20.038  0.00  0.00    +0.000 N 
ATOM      7  C   UNL     1       1.530   7.375  20.406  0.00  0.00    +0.000 C 
ATOM      8  O   UNL     1       1.208   6.739  21.401  0.00  0.00    +0.000 OA
ENDROOT
BRANCH   1  12
ATOM      9  C   UNL     1       6.120   4.566  16.519  0.00  0.00    +0.000 A 
ATOM     10  C   UNL     1       4.775   4.213  16.389  0.00  0.00    +0.000 A 
ATOM     11  C   UNL     1       3.838   4.630  17.341  0.00  0.00    +0.000 A 
ATOM     12  C   UNL     1       4.238   5.377  18.453  0.00  0.00    +0.000 A 
ATOM     13  C   UNL     1       5.597   5.677  18.615  0.00  0.00    +0.000 A 
ATOM     14  C   UNL     1       6.533   5.265  17.654  0.00  0.00    +0.000 A 
BRANCH   9  15
ATOM     15  O   UNL     1       7.092   4.278  15.594  0.00  0.00    +0.000 OA
BRANCH  15  16
ATOM     16  C   UNL     1       6.837   4.799  14.286  0.00  0.00    +0.000 C 
BRANCH  16  18
ATOM     17  C   UNL     1       6.470   3.516  12.165  0.00  0.00    +0.000 C 
ATOM     18  C   UNL     1       6.174   3.742  13.453  0.00  0.00    +0.000 C 
ENDBRANCH  16  18
ENDBRANCH  15  16
ENDBRANCH   9  15
ENDBRANCH   1  12
BRANCH   6  19
ATOM     19  N   UNL     1      -0.039   9.231  20.940  0.00  0.00    +0.000 NA
ATOM     20  H   UNL     1      -0.500   8.495  21.490  0.00  0.00    +0.000 HD
BRANCH  19  21
ATOM     21  S   UNL     1       0.589  10.403  22.033  0.00  0.00    +0.000 S 
ATOM     22  O   UNL     1       0.805   9.709  23.286  0.00  0.00    +0.000 OA
ATOM     23  O   UNL     1       1.652  11.147  21.400  0.00  0.00    +0.000 OA
BRANCH  21  24
ATOM     24  C   UNL     1      -0.764  11.545  22.271  0.00  0.00    +0.000 A 
ATOM     25  C   UNL     1      -1.803  11.219  23.148  0.00  0.00    +0.000 A 
ATOM     26  C   UNL     1      -2.736  12.199  23.511  0.00  0.00    +0.000 A 
ATOM     27  C   UNL     1      -2.635  13.503  23.018  0.00  0.00    +0.000 A 
ATOM     28  C   UNL     1      -3.576  14.581  23.479  0.00  0.00    +0.000 C 
ATOM     29  C   UNL     1      -1.602  13.816  22.123  0.00  0.00    +0.000 A 
ATOM     30  C   UNL     1      -0.665  12.842  21.753  0.00  0.00    +0.000 A 
ENDBRANCH  21  24
ENDBRANCH  19  21
ENDBRANCH   6  19
TORSDOF 7
ENDMDL
MODEL 7
REMARK VINA RESULT:      -6.8      3.287     10.077
REMARK  Name = 
REMARK  8 active torsions:
REMARK  status: ('A' for Active; 'I' for Inactive)
REMARK    1  A    between atoms: C_2  and  C_3
REMARK    2  A    between atoms: C_3  and  O_4
REMARK    3  A    between atoms: O_4  and  C_5
REMARK    4  A    between atoms: C_8  and  C_9
REMARK    5  A    between atoms: N_14  and  N_15
REMARK    6  A    between atoms: N_15  and  S_16
REMARK    7  A    between atoms: S_16  and  C_19
REMARK    8  A    between atoms: C_22  and  C_23
REMARK                            x       y       z     vdW  Elec       q    Type
REMARK                         _______ _______ _______ _____ _____    ______ ____
ROOT
ATOM      1  C   UNL     1       2.243   9.132  17.803  0.00  0.00    +0.000 C 
ATOM      2  C   UNL     1       2.482   7.980  18.452  0.00  0.00    +0.000 C 
ATOM      3  S   UNL     1       1.625   7.413  19.838  0.00  0.00    +0.000 S 
ATOM      4  C   UNL     1       2.561   5.925  19.956  0.00  0.00    +0.000 C 
ATOM      5  S   UNL     1       2.135   4.737  21.038  0.00  0.00    +0.000 S 
ATOM      6  N   UNL     1       3.546   5.940  18.984  0.00  0.00    +0.000 N 
ATOM      7  C   UNL     1       3.547   6.997  18.079  0.00  0.00    +0.000 C 
ATOM      8  O   UNL     1       4.288   7.097  17.109  0.00  0.00    +0.000 OA
ENDROOT
BRANCH   1  12
ATOM      9  C   UNL     1      -0.791  11.942  18.954  0.00  0.00    +0.000 A 
ATOM     10  C   UNL     1      -1.134  10.726  18.358  0.00  0.00    +0.000 A 
ATOM     11  C   UNL     1      -0.140   9.808  18.001  0.00  0.00    +0.000 A 
ATOM     12  C   UNL     1       1.210  10.106  18.205  0.00  0.00    +0.000 A 
ATOM     13  C   UNL     1       1.555  11.351  18.745  0.00  0.00    +0.000 A 
ATOM     14  C   UNL     1       0.557  12.267  19.110  0.00  0.00    +0.000 A 
BRANCH   9  15
ATOM     15  O   UNL     1      -1.697  12.863  19.416  0.00  0.00    +0.000 OA
BRANCH  15  16
ATOM     16  C   UNL     1      -2.660  12.339  20.335  0.00  0.00    +0.000 C 
BRANCH  16  18
ATOM     17  C   UNL     1      -2.807  12.366  22.836  0.00  0.00    +0.000 C 
ATOM     18  C   UNL     1      -2.072  12.328  21.716  0.00  0.00    +0.000 C 
ENDBRANCH  16  18
ENDBRANCH  15  16
ENDBRANCH   9  15
ENDBRANCH   1  12
BRANCH   6  19
ATOM     19  N   UNL     1       4.543   4.822  18.764  0.00  0.00    +0.000 NA
ATOM     20  H   UNL     1       4.689   4.311  19.644  0.00  0.00    +0.000 HD
BRANCH  19  21
ATOM     21  S   UNL     1       4.066   3.690  17.559  0.00  0.00    +0.000 S 
ATOM     22  O   UNL     1       4.285   2.378  18.130  0.00  0.00    +0.000 OA
ATOM     23  O   UNL     1       2.780   4.061  17.016  0.00  0.00    +0.000 OA
BRANCH  21  24
ATOM     24  C   UNL     1       5.260   3.920  16.250  0.00  0.00    +0.000 A 
ATOM     25  C   UNL     1       4.871   3.758  14.917  0.00  0.00    +0.000 A 
ATOM     26  C   UNL     1       5.734   4.159  13.889  0.00  0.00    +0.000 A 
ATOM     27  C   UNL     1       6.976   4.733  14.179  0.00  0.00    +0.000 A 
ATOM     28  C   UNL     1       7.864   5.254  13.083  0.00  0.00    +0.000 C 
ATOM     29  C   UNL     1       7.366   4.874  15.518  0.00  0.00    +0.000 A 
ATOM     30  C   UNL     1       6.511   4.473  16.552  0.00  0.00    +0.000 A 
ENDBRANCH  21  24
ENDBRANCH  19  21
ENDBRANCH   6  19
TORSDOF 7
ENDMDL
MODEL 8
REMARK VINA RESULT:      -6.8      0.505      1.028
REMARK  Name = 
REMARK  8 active torsions:
REMARK  status: ('A' for Active; 'I' for Inactive)
REMARK    1  A    between atoms: C_2  and  C_3
REMARK    2  A    between atoms: C_3  and  O_4
REMARK    3  A    between atoms: O_4  and  C_5
REMARK    4  A    between atoms: C_8  and  C_9
REMARK    5  A    between atoms: N_14  and  N_15
REMARK    6  A    between atoms: N_15  and  S_16
REMARK    7  A    between atoms: S_16  and  C_19
REMARK    8  A    between atoms: C_22  and  C_23
REMARK                            x       y       z     vdW  Elec       q    Type
REMARK                         _______ _______ _______ _____ _____    ______ ____
ROOT
ATOM      1  C   UNL     1       2.296   8.199  18.355  0.00  0.00    +0.000 C 
ATOM      2  C   UNL     1       1.637   8.832  19.340  0.00  0.00    +0.000 C 
ATOM      3  S   UNL     1       1.063   8.100  20.793  0.00  0.00    +0.000 S 
ATOM      4  C   UNL     1       0.399   9.603  21.429  0.00  0.00    +0.000 C 
ATOM      5  S   UNL     1      -0.197   9.680  22.980  0.00  0.00    +0.000 S 
ATOM      6  N   UNL     1       0.567  10.600  20.484  0.00  0.00    +0.000 N 
ATOM      7  C   UNL     1       1.283  10.286  19.332  0.00  0.00    +0.000 C 
ATOM      8  O   UNL     1       1.598  11.083  18.457  0.00  0.00    +0.000 OA
ENDROOT
BRANCH   1  12
ATOM      9  C   UNL     1       3.241   4.013  18.395  0.00  0.00    +0.000 A 
ATOM     10  C   UNL     1       4.150   4.954  18.882  0.00  0.00    +0.000 A 
ATOM     11  C   UNL     1       3.828   6.315  18.882  0.00  0.00    +0.000 A 
ATOM     12  C   UNL     1       2.607   6.758  18.364  0.00  0.00    +0.000 A 
ATOM     13  C   UNL     1       1.723   5.819  17.818  0.00  0.00    +0.000 A 
ATOM     14  C   UNL     1       2.045   4.453  17.827  0.00  0.00    +0.000 A 
BRANCH   9  15
ATOM     15  O   UNL     1       3.432   2.654  18.434  0.00  0.00    +0.000 OA
BRANCH  15  16
ATOM     16  C   UNL     1       2.407   1.932  19.123  0.00  0.00    +0.000 C 
BRANCH  16  18
ATOM     17  C   UNL     1       1.358   2.813  21.220  0.00  0.00    +0.000 C 
ATOM     18  C   UNL     1       2.421   2.314  20.574  0.00  0.00    +0.000 C 
ENDBRANCH  16  18
ENDBRANCH  15  16
ENDBRANCH   9  15
ENDBRANCH   1  12
BRANCH   6  19
ATOM     19  N   UNL     1       0.133  12.037  20.675  0.00  0.00    +0.000 NA
ATOM     20  H   UNL     1       0.893  12.668  20.389  0.00  0.00    +0.000 HD
BRANCH  19  21
ATOM     21  S   UNL     1      -1.278  12.463  19.786  0.00  0.00    +0.000 S 
ATOM     22  O   UNL     1      -1.079  13.827  19.343  0.00  0.00    +0.000 OA
ATOM     23  O   UNL     1      -1.604  11.415  18.848  0.00  0.00    +0.000 OA
BRANCH  21  24
ATOM     24  C   UNL     1      -2.577  12.475  21.013  0.00  0.00    +0.000 A 
ATOM     25  C   UNL     1      -2.250  12.496  22.372  0.00  0.00    +0.000 A 
ATOM     26  C   UNL     1      -3.250  12.738  23.323  0.00  0.00    +0.000 A 
ATOM     27  C   UNL     1      -4.571  12.973  22.929  0.00  0.00    +0.000 A 
ATOM     28  C   UNL     1      -5.629  13.327  23.937  0.00  0.00    +0.000 C 
ATOM     29  C   UNL     1      -4.894  12.930  21.566  0.00  0.00    +0.000 A 
ATOM     30  C   UNL     1      -3.901  12.686  20.608  0.00  0.00    +0.000 A 
ENDBRANCH  21  24
ENDBRANCH  19  21
ENDBRANCH   6  19
TORSDOF 7
ENDMDL
MODEL 9
REMARK VINA RESULT:      -6.8      3.267     10.165
REMARK  Name = 
REMARK  8 active torsions:
REMARK  status: ('A' for Active; 'I' for Inactive)
REMARK    1  A    between atoms: C_2  and  C_3
REMARK    2  A    between atoms: C_3  and  O_4
REMARK    3  A    between atoms: O_4  and  C_5
REMARK    4  A    between atoms: C_8  and  C_9
REMARK    5  A    between atoms: N_14  and  N_15
REMARK    6  A    between atoms: N_15  and  S_16
REMARK    7  A    between atoms: S_16  and  C_19
REMARK    8  A    between atoms: C_22  and  C_23
REMARK                            x       y       z     vdW  Elec       q    Type
REMARK                         _______ _______ _______ _____ _____    ______ ____
ROOT
ATOM      1  C   UNL     1       1.847   9.170  17.902  0.00  0.00    +0.000 C 
ATOM      2  C   UNL     1       2.208   8.037  18.526  0.00  0.00    +0.000 C 
ATOM      3  S   UNL     1       1.418   7.354  19.900  0.00  0.00    +0.000 S 
ATOM      4  C   UNL     1       2.504   5.969  19.986  0.00  0.00    +0.000 C 
ATOM      5  S   UNL     1       2.208   4.721  21.043  0.00  0.00    +0.000 S 
ATOM      6  N   UNL     1       3.480   6.108  19.015  0.00  0.00    +0.000 N 
ATOM      7  C   UNL     1       3.369   7.179  18.132  0.00  0.00    +0.000 C 
ATOM      8  O   UNL     1       4.093   7.376  17.165  0.00  0.00    +0.000 OA
ENDROOT
BRANCH   1  12
ATOM      9  C   UNL     1      -1.409  11.669  19.159  0.00  0.00    +0.000 A 
ATOM     10  C   UNL     1      -0.121  11.868  19.662  0.00  0.00    +0.000 A 
ATOM     11  C   UNL     1       0.938  11.061  19.234  0.00  0.00    +0.000 A 
ATOM     12  C   UNL     1       0.720  10.022  18.324  0.00  0.00    +0.000 A 
ATOM     13  C   UNL     1      -0.583   9.783  17.869  0.00  0.00    +0.000 A 
ATOM     14  C   UNL     1      -1.643  10.599  18.293  0.00  0.00    +0.000 A 
BRANCH   9  15
ATOM     15  O   UNL     1      -2.489  12.462  19.452  0.00  0.00    +0.000 OA
BRANCH  15  16
ATOM     16  C   UNL     1      -2.620  12.797  20.837  0.00  0.00    +0.000 C 
BRANCH  16  18
ATOM     17  C   UNL     1      -5.094  12.941  20.471  0.00  0.00    +0.000 C 
ATOM     18  C   UNL     1      -4.051  12.631  21.254  0.00  0.00    +0.000 C 
ENDBRANCH  16  18
ENDBRANCH  15  16
ENDBRANCH   9  15
ENDBRANCH   1  12
BRANCH   6  19
ATOM     19  N   UNL     1       4.589   5.106  18.771  0.00  0.00    +0.000 NA
ATOM     20  H   UNL     1       4.872   4.681  19.663  0.00  0.00    +0.000 HD
BRANCH  19  21
ATOM     21  S   UNL     1       4.158   3.840  17.687  0.00  0.00    +0.000 S 
ATOM     22  O   UNL     1       4.455   2.602  18.376  0.00  0.00    +0.000 OA
ATOM     23  O   UNL     1       2.846   4.089  17.136  0.00  0.00    +0.000 OA
BRANCH  21  24
ATOM     24  C   UNL     1       5.320   4.006  16.341  0.00  0.00    +0.000 A 
ATOM     25  C   UNL     1       4.904   3.760  15.029  0.00  0.00    +0.000 A 
ATOM     26  C   UNL     1       5.739   4.111  13.960  0.00  0.00    +0.000 A 
ATOM     27  C   UNL     1       6.978   4.717  14.187  0.00  0.00    +0.000 A 
ATOM     28  C   UNL     1       7.835   5.182  13.043  0.00  0.00    +0.000 C 
ATOM     29  C   UNL     1       7.395   4.942  15.506  0.00  0.00    +0.000 A 
ATOM     30  C   UNL     1       6.569   4.593  16.582  0.00  0.00    +0.000 A 
ENDBRANCH  21  24
ENDBRANCH  19  21
ENDBRANCH   6  19
TORSDOF 7
ENDMDL
