MODEL 1
REMARK VINA RESULT:      -7.2      0.000      0.000
REMARK  Name = 
REMARK  11 active torsions:
REMARK  status: ('A' for Active; 'I' for Inactive)
REMARK    1  A    between atoms: C_1  and  O_2
REMARK    2  A    between atoms: O_2  and  C_3
REMARK    3  A    between atoms: C_6  and  C_7
REMARK    4  A    between atoms: C_7  and  O_8
REMARK    5  A    between atoms: C_12  and  C_13
REMARK    6  A    between atoms: C_22  and  C_23
REMARK    7  A    between atoms: C_23  and  C_24
REMARK    8  A    between atoms: C_28  and  O_29
REMARK    9  A    between atoms: O_29  and  C_30
REMARK   10  A    between atoms: C_31  and  O_32
REMARK   11  A    between atoms: O_32  and  C_33
REMARK                            x       y       z     vdW  Elec       q    Type
REMARK                         _______ _______ _______ _____ _____    ______ ____
ROOT
ATOM      1  C   UNL     1      -2.862  12.494  22.867  0.00  0.00    +0.000 C 
ATOM      2  O   UNL     1      -2.332  11.406  23.625  0.00  0.00    +0.000 OA
ATOM      3  C   UNL     1      -1.176  10.991  23.050  0.00  0.00    +0.000 C 
ATOM      4  O   UNL     1      -0.369  10.238  23.566  0.00  0.00    +0.000 OA
ATOM      5  C   UNL     1      -1.082  11.581  21.711  0.00  0.00    +0.000 C 
ATOM      6  C   UNL     1      -2.130  12.409  21.565  0.00  0.00    +0.000 C 
ENDROOT
BRANCH   5   7
ATOM      7  C   UNL     1       0.075  11.485  20.833  0.00  0.00    +0.000 A 
ATOM      8  C   UNL     1       0.240  10.462  19.877  0.00  0.00    +0.000 A 
ATOM      9  C   UNL     1       1.197  10.594  18.862  0.00  0.00    +0.000 A 
ATOM     10  C   UNL     1       1.907  11.774  18.808  0.00  0.00    +0.000 A 
ATOM     11  C   UNL     1       1.801  12.730  19.792  0.00  0.00    +0.000 A 
ATOM     12  C   UNL     1       0.945  12.585  20.850  0.00  0.00    +0.000 A 
ATOM     13  O   UNL     1       2.512  13.855  19.506  0.00  0.00    +0.000 OA
ATOM     14  C   UNL     1       2.751  13.611  18.106  0.00  0.00    +0.000 C 
ATOM     15  O   UNL     1       2.693  12.205  17.781  0.00  0.00    +0.000 OA
ENDBRANCH   5   7
BRANCH   1  19
ATOM     16  C   UNL     1      -2.290  16.249  25.073  0.00  0.00    +0.000 A 
ATOM     17  C   UNL     1      -3.564  15.714  24.891  0.00  0.00    +0.000 A 
ATOM     18  C   UNL     1      -3.748  14.503  24.218  0.00  0.00    +0.000 A 
ATOM     19  C   UNL     1      -2.661  13.794  23.670  0.00  0.00    +0.000 A 
ATOM     20  C   UNL     1      -1.381  14.348  23.864  0.00  0.00    +0.000 A 
ATOM     21  C   UNL     1      -1.195  15.553  24.568  0.00  0.00    +0.000 A 
BRANCH  16  23
ATOM     22  C   UNL     1      -3.335  18.358  25.444  0.00  0.00    +0.000 C 
ATOM     23  O   UNL     1      -2.264  17.461  25.703  0.00  0.00    +0.000 OA
ENDBRANCH  16  23
ENDBRANCH   1  19
BRANCH   1  24
ATOM     24  O   UNL     1      -4.243  12.254  22.669  0.00  0.00    +0.000 OA
ATOM     25  H   UNL     1      -4.696  12.849  23.290  0.00  0.00    +0.000 HD
ENDBRANCH   1  24
BRANCH   6  26
ATOM     26  C   UNL     1      -2.582  13.123  20.297  0.00  0.00    +0.000 C 
BRANCH  26  27
ATOM     27  C   UNL     1      -3.223  12.300  19.179  0.00  0.00    +0.000 A 
ATOM     28  C   UNL     1      -2.421  11.762  18.164  0.00  0.00    +0.000 A 
ATOM     29  C   UNL     1      -2.944  10.961  17.165  0.00  0.00    +0.000 A 
ATOM     30  C   UNL     1      -4.298  10.668  17.146  0.00  0.00    +0.000 A 
ATOM     31  C   UNL     1      -5.154  11.204  18.122  0.00  0.00    +0.000 A 
ATOM     32  C   UNL     1      -4.627  12.042  19.140  0.00  0.00    +0.000 A 
BRANCH  31  33
ATOM     33  O   UNL     1      -6.487  10.873  18.135  0.00  0.00    +0.000 OA
ATOM     34  C   UNL     1      -6.905   9.897  19.087  0.00  0.00    +0.000 C 
ENDBRANCH  31  33
BRANCH  32  35
ATOM     35  O   UNL     1      -5.360  12.661  20.135  0.00  0.00    +0.000 OA
ATOM     36  C   UNL     1      -6.098  13.838  19.814  0.00  0.00    +0.000 C 
ENDBRANCH  32  35
ENDBRANCH  26  27
ENDBRANCH   6  26
TORSDOF 8
ENDMDL
MODEL 2
REMARK VINA RESULT:      -6.9      2.971      5.826
REMARK  Name = 
REMARK  11 active torsions:
REMARK  status: ('A' for Active; 'I' for Inactive)
REMARK    1  A    between atoms: C_1  and  O_2
REMARK    2  A    between atoms: O_2  and  C_3
REMARK    3  A    between atoms: C_6  and  C_7
REMARK    4  A    between atoms: C_7  and  O_8
REMARK    5  A    between atoms: C_12  and  C_13
REMARK    6  A    between atoms: C_22  and  C_23
REMARK    7  A    between atoms: C_23  and  C_24
REMARK    8  A    between atoms: C_28  and  O_29
REMARK    9  A    between atoms: O_29  and  C_30
REMARK   10  A    between atoms: C_31  and  O_32
REMARK   11  A    between atoms: O_32  and  C_33
REMARK                            x       y       z     vdW  Elec       q    Type
REMARK                         _______ _______ _______ _____ _____    ______ ____
ROOT
ATOM      1  C   UNL     1      -1.680  12.641  19.637  0.00  0.00    +0.000 C 
ATOM      2  O   UNL     1      -2.245  11.785  18.644  0.00  0.00    +0.000 OA
ATOM      3  C   UNL     1      -1.523  10.638  18.589  0.00  0.00    +0.000 C 
ATOM      4  O   UNL     1      -1.865   9.622  18.012  0.00  0.00    +0.000 OA
ATOM      5  C   UNL     1      -0.265  10.843  19.316  0.00  0.00    +0.000 C 
ATOM      6  C   UNL     1      -0.318  12.068  19.868  0.00  0.00    +0.000 C 
ENDROOT
BRANCH   5   7
ATOM      7  C   UNL     1       0.718   9.807  19.599  0.00  0.00    +0.000 A 
ATOM      8  C   UNL     1       0.723   9.047  20.785  0.00  0.00    +0.000 A 
ATOM      9  C   UNL     1       1.481   7.872  20.866  0.00  0.00    +0.000 A 
ATOM     10  C   UNL     1       2.154   7.471  19.731  0.00  0.00    +0.000 A 
ATOM     11  C   UNL     1       2.213   8.261  18.606  0.00  0.00    +0.000 A 
ATOM     12  C   UNL     1       1.562   9.462  18.533  0.00  0.00    +0.000 A 
ATOM     13  O   UNL     1       2.846   7.646  17.570  0.00  0.00    +0.000 OA
ATOM     14  C   UNL     1       2.833   6.298  18.076  0.00  0.00    +0.000 C 
ATOM     15  O   UNL     1       2.738   6.258  19.517  0.00  0.00    +0.000 OA
ENDBRANCH   5   7
BRANCH   1  19
ATOM     16  C   UNL     1      -4.389  12.604  23.095  0.00  0.00    +0.000 A 
ATOM     17  C   UNL     1      -3.049  12.245  23.232  0.00  0.00    +0.000 A 
ATOM     18  C   UNL     1      -2.176  12.286  22.142  0.00  0.00    +0.000 A 
ATOM     19  C   UNL     1      -2.620  12.660  20.858  0.00  0.00    +0.000 A 
ATOM     20  C   UNL     1      -3.976  13.021  20.737  0.00  0.00    +0.000 A 
ATOM     21  C   UNL     1      -4.847  13.007  21.844  0.00  0.00    +0.000 A 
BRANCH  16  23
ATOM     22  C   UNL     1      -6.539  12.661  24.122  0.00  0.00    +0.000 C 
ATOM     23  O   UNL     1      -5.136  12.467  24.231  0.00  0.00    +0.000 OA
ENDBRANCH  16  23
ENDBRANCH   1  19
BRANCH   1  24
ATOM     24  O   UNL     1      -1.577  13.940  19.083  0.00  0.00    +0.000 OA
ATOM     25  H   UNL     1      -0.636  14.173  19.157  0.00  0.00    +0.000 HD
ENDBRANCH   1  24
BRANCH   6  26
ATOM     26  C   UNL     1       0.804  12.820  20.570  0.00  0.00    +0.000 C 
BRANCH  26  27
ATOM     27  C   UNL     1       1.658  13.793  19.758  0.00  0.00    +0.000 A 
ATOM     28  C   UNL     1       2.735  13.310  19.003  0.00  0.00    +0.000 A 
ATOM     29  C   UNL     1       3.501  14.140  18.203  0.00  0.00    +0.000 A 
ATOM     30  C   UNL     1       3.213  15.493  18.131  0.00  0.00    +0.000 A 
ATOM     31  C   UNL     1       2.163  16.038  18.888  0.00  0.00    +0.000 A 
ATOM     32  C   UNL     1       1.385  15.195  19.725  0.00  0.00    +0.000 A 
BRANCH  31  33
ATOM     33  O   UNL     1       1.843  17.369  18.778  0.00  0.00    +0.000 OA
ATOM     34  C   UNL     1       1.403  17.828  17.502  0.00  0.00    +0.000 C 
ENDBRANCH  31  33
BRANCH  32  35
ATOM     35  O   UNL     1       0.351  15.605  20.547  0.00  0.00    +0.000 OA
ATOM     36  C   UNL     1       0.667  16.273  21.766  0.00  0.00    +0.000 C 
ENDBRANCH  32  35
ENDBRANCH  26  27
ENDBRANCH   6  26
TORSDOF 8
ENDMDL
MODEL 3
REMARK VINA RESULT:      -6.9      7.965     11.614
REMARK  Name = 
REMARK  11 active torsions:
REMARK  status: ('A' for Active; 'I' for Inactive)
REMARK    1  A    between atoms: C_1  and  O_2
REMARK    2  A    between atoms: O_2  and  C_3
REMARK    3  A    between atoms: C_6  and  C_7
REMARK    4  A    between atoms: C_7  and  O_8
REMARK    5  A    between atoms: C_12  and  C_13
REMARK    6  A    between atoms: C_22  and  C_23
REMARK    7  A    between atoms: C_23  and  C_24
REMARK    8  A    between atoms: C_28  and  O_29
REMARK    9  A    between atoms: O_29  and  C_30
REMARK   10  A    between atoms: C_31  and  O_32
REMARK   11  A    between atoms: O_32  and  C_33
REMARK                            x       y       z     vdW  Elec       q    Type
REMARK                         _______ _______ _______ _____ _____    ______ ____
ROOT
ATOM      1  C   UNL     1       5.435   5.638  18.460  0.00  0.00    +0.000 C 
ATOM      2  O   UNL     1       6.565   6.503  18.342  0.00  0.00    +0.000 OA
ATOM      3  C   UNL     1       7.006   6.481  17.060  0.00  0.00    +0.000 C 
ATOM      4  O   UNL     1       7.803   7.266  16.580  0.00  0.00    +0.000 OA
ATOM      5  C   UNL     1       6.379   5.347  16.370  0.00  0.00    +0.000 C 
ATOM      6  C   UNL     1       5.508   4.790  17.229  0.00  0.00    +0.000 C 
ENDROOT
BRANCH   5   7
ATOM      7  C   UNL     1       6.492   5.067  14.947  0.00  0.00    +0.000 A 
ATOM      8  C   UNL     1       7.706   5.144  14.235  0.00  0.00    +0.000 A 
ATOM      9  C   UNL     1       7.815   4.567  12.963  0.00  0.00    +0.000 A 
ATOM     10  C   UNL     1       6.721   3.881  12.481  0.00  0.00    +0.000 A 
ATOM     11  C   UNL     1       5.514   3.883  13.143  0.00  0.00    +0.000 A 
ATOM     12  C   UNL     1       5.350   4.521  14.342  0.00  0.00    +0.000 A 
ATOM     13  O   UNL     1       4.593   3.075  12.551  0.00  0.00    +0.000 OA
ATOM     14  C   UNL     1       5.478   2.327  11.695  0.00  0.00    +0.000 C 
ATOM     15  O   UNL     1       6.692   3.052  11.399  0.00  0.00    +0.000 OA
ENDBRANCH   5   7
BRANCH   1  19
ATOM     16  C   UNL     1       1.878   8.170  18.939  0.00  0.00    +0.000 A 
ATOM     17  C   UNL     1       2.713   8.312  17.832  0.00  0.00    +0.000 A 
ATOM     18  C   UNL     1       3.828   7.487  17.659  0.00  0.00    +0.000 A 
ATOM     19  C   UNL     1       4.169   6.504  18.609  0.00  0.00    +0.000 A 
ATOM     20  C   UNL     1       3.315   6.373  19.720  0.00  0.00    +0.000 A 
ATOM     21  C   UNL     1       2.176   7.186  19.878  0.00  0.00    +0.000 A 
BRANCH  16  23
ATOM     22  C   UNL     1       1.105  10.295  19.689  0.00  0.00    +0.000 C 
ATOM     23  O   UNL     1       0.858   9.076  19.005  0.00  0.00    +0.000 OA
ENDBRANCH  16  23
ENDBRANCH   1  19
BRANCH   1  24
ATOM     24  O   UNL     1       5.617   4.840  19.615  0.00  0.00    +0.000 OA
ATOM     25  H   UNL     1       6.132   5.392  20.227  0.00  0.00    +0.000 HD
ENDBRANCH   1  24
BRANCH   6  26
ATOM     26  C   UNL     1       4.740   3.486  17.059  0.00  0.00    +0.000 C 
BRANCH  26  27
ATOM     27  C   UNL     1       3.378   3.340  17.738  0.00  0.00    +0.000 A 
ATOM     28  C   UNL     1       2.224   3.795  17.087  0.00  0.00    +0.000 A 
ATOM     29  C   UNL     1       0.963   3.632  17.631  0.00  0.00    +0.000 A 
ATOM     30  C   UNL     1       0.811   3.003  18.857  0.00  0.00    +0.000 A 
ATOM     31  C   UNL     1       1.936   2.553  19.568  0.00  0.00    +0.000 A 
ATOM     32  C   UNL     1       3.234   2.734  19.023  0.00  0.00    +0.000 A 
BRANCH  31  33
ATOM     33  O   UNL     1       1.784   1.883  20.757  0.00  0.00    +0.000 OA
ATOM     34  C   UNL     1       1.708   2.671  21.942  0.00  0.00    +0.000 C 
ENDBRANCH  31  33
BRANCH  32  35
ATOM     35  O   UNL     1       4.422   2.372  19.631  0.00  0.00    +0.000 OA
ATOM     36  C   UNL     1       4.761   0.990  19.710  0.00  0.00    +0.000 C 
ENDBRANCH  32  35
ENDBRANCH  26  27
ENDBRANCH   6  26
TORSDOF 8
ENDMDL
MODEL 4
REMARK VINA RESULT:      -6.8      2.994      6.166
REMARK  Name = 
REMARK  11 active torsions:
REMARK  status: ('A' for Active; 'I' for Inactive)
REMARK    1  A    between atoms: C_1  and  O_2
REMARK    2  A    between atoms: O_2  and  C_3
REMARK    3  A    between atoms: C_6  and  C_7
REMARK    4  A    between atoms: C_7  and  O_8
REMARK    5  A    between atoms: C_12  and  C_13
REMARK    6  A    between atoms: C_22  and  C_23
REMARK    7  A    between atoms: C_23  and  C_24
REMARK    8  A    between atoms: C_28  and  O_29
REMARK    9  A    between atoms: O_29  and  C_30
REMARK   10  A    between atoms: C_31  and  O_32
REMARK   11  A    between atoms: O_32  and  C_33
REMARK                            x       y       z     vdW  Elec       q    Type
REMARK                         _______ _______ _______ _____ _____    ______ ____
ROOT
ATOM      1  C   UNL     1      -1.686  12.730  19.920  0.00  0.00    +0.000 C 
ATOM      2  O   UNL     1      -2.222  11.952  18.849  0.00  0.00    +0.000 OA
ATOM      3  C   UNL     1      -1.521  10.795  18.752  0.00  0.00    +0.000 C 
ATOM      4  O   UNL     1      -1.857   9.826  18.096  0.00  0.00    +0.000 OA
ATOM      5  C   UNL     1      -0.294  10.924  19.547  0.00  0.00    +0.000 C 
ATOM      6  C   UNL     1      -0.348  12.111  20.174  0.00  0.00    +0.000 C 
ENDROOT
BRANCH   5   7
ATOM      7  C   UNL     1       0.653   9.849  19.805  0.00  0.00    +0.000 A 
ATOM      8  C   UNL     1       0.627   9.056  20.970  0.00  0.00    +0.000 A 
ATOM      9  C   UNL     1       1.346   7.856  21.022  0.00  0.00    +0.000 A 
ATOM     10  C   UNL     1       2.012   7.465  19.880  0.00  0.00    +0.000 A 
ATOM     11  C   UNL     1       2.103   8.284  18.778  0.00  0.00    +0.000 A 
ATOM     12  C   UNL     1       1.492   9.507  18.735  0.00  0.00    +0.000 A 
ATOM     13  O   UNL     1       2.723   7.678  17.728  0.00  0.00    +0.000 OA
ATOM     14  C   UNL     1       2.664   6.317  18.196  0.00  0.00    +0.000 C 
ATOM     15  O   UNL     1       2.558   6.240  19.635  0.00  0.00    +0.000 OA
ENDBRANCH   5   7
BRANCH   1  19
ATOM     16  C   UNL     1      -4.493  12.715  23.299  0.00  0.00    +0.000 A 
ATOM     17  C   UNL     1      -4.909  13.099  22.025  0.00  0.00    +0.000 A 
ATOM     18  C   UNL     1      -4.028  13.076  20.941  0.00  0.00    +0.000 A 
ATOM     19  C   UNL     1      -2.681  12.693  21.096  0.00  0.00    +0.000 A 
ATOM     20  C   UNL     1      -2.277  12.308  22.389  0.00  0.00    +0.000 A 
ATOM     21  C   UNL     1      -3.174  12.305  23.474  0.00  0.00    +0.000 A 
BRANCH  16  23
ATOM     22  C   UNL     1      -6.804  12.720  23.878  0.00  0.00    +0.000 C 
ATOM     23  O   UNL     1      -5.444  12.838  24.271  0.00  0.00    +0.000 OA
ENDBRANCH  16  23
ENDBRANCH   1  19
BRANCH   1  24
ATOM     24  O   UNL     1      -1.530  14.059  19.457  0.00  0.00    +0.000 OA
ATOM     25  H   UNL     1      -1.052  14.521  20.166  0.00  0.00    +0.000 HD
ENDBRANCH   1  24
BRANCH   6  26
ATOM     26  C   UNL     1       0.756  12.791  20.973  0.00  0.00    +0.000 C 
BRANCH  26  27
ATOM     27  C   UNL     1       1.882  13.498  20.219  0.00  0.00    +0.000 A 
ATOM     28  C   UNL     1       2.128  13.177  18.878  0.00  0.00    +0.000 A 
ATOM     29  C   UNL     1       3.095  13.831  18.134  0.00  0.00    +0.000 A 
ATOM     30  C   UNL     1       3.854  14.836  18.711  0.00  0.00    +0.000 A 
ATOM     31  C   UNL     1       3.669  15.180  20.060  0.00  0.00    +0.000 A 
ATOM     32  C   UNL     1       2.692  14.500  20.834  0.00  0.00    +0.000 A 
BRANCH  31  33
ATOM     33  O   UNL     1       4.384  16.211  20.619  0.00  0.00    +0.000 OA
ATOM     34  C   UNL     1       5.116  17.052  19.731  0.00  0.00    +0.000 C 
ENDBRANCH  31  33
BRANCH  32  35
ATOM     35  O   UNL     1       2.434  14.713  22.176  0.00  0.00    +0.000 OA
ATOM     36  C   UNL     1       1.703  15.876  22.558  0.00  0.00    +0.000 C 
ENDBRANCH  32  35
ENDBRANCH  26  27
ENDBRANCH   6  26
TORSDOF 8
ENDMDL
MODEL 5
REMARK VINA RESULT:      -6.5      2.315      6.693
REMARK  Name = 
REMARK  11 active torsions:
REMARK  status: ('A' for Active; 'I' for Inactive)
REMARK    1  A    between atoms: C_1  and  O_2
REMARK    2  A    between atoms: O_2  and  C_3
REMARK    3  A    between atoms: C_6  and  C_7
REMARK    4  A    between atoms: C_7  and  O_8
REMARK    5  A    between atoms: C_12  and  C_13
REMARK    6  A    between atoms: C_22  and  C_23
REMARK    7  A    between atoms: C_23  and  C_24
REMARK    8  A    between atoms: C_28  and  O_29
REMARK    9  A    between atoms: O_29  and  C_30
REMARK   10  A    between atoms: C_31  and  O_32
REMARK   11  A    between atoms: O_32  and  C_33
REMARK                            x       y       z     vdW  Elec       q    Type
REMARK                         _______ _______ _______ _____ _____    ______ ____
ROOT
ATOM      1  C   UNL     1      -0.759  12.495  18.634  0.00  0.00    +0.000 C 
ATOM      2  O   UNL     1       0.251  13.446  18.296  0.00  0.00    +0.000 OA
ATOM      3  C   UNL     1       0.223  14.458  19.198  0.00  0.00    +0.000 C 
ATOM      4  O   UNL     1       1.087  15.307  19.325  0.00  0.00    +0.000 OA
ATOM      5  C   UNL     1      -1.024  14.364  19.966  0.00  0.00    +0.000 C 
ATOM      6  C   UNL     1      -1.652  13.244  19.571  0.00  0.00    +0.000 C 
ENDROOT
BRANCH   5   7
ATOM      7  C   UNL     1      -1.361  15.187  21.119  0.00  0.00    +0.000 A 
ATOM      8  C   UNL     1      -2.438  16.096  21.134  0.00  0.00    +0.000 A 
ATOM      9  C   UNL     1      -2.903  16.618  22.347  0.00  0.00    +0.000 A 
ATOM     10  C   UNL     1      -2.311  16.158  23.505  0.00  0.00    +0.000 A 
ATOM     11  C   UNL     1      -1.207  15.338  23.478  0.00  0.00    +0.000 A 
ATOM     12  C   UNL     1      -0.669  14.890  22.302  0.00  0.00    +0.000 A 
ATOM     13  O   UNL     1      -0.833  14.925  24.719  0.00  0.00    +0.000 OA
ATOM     14  C   UNL     1      -2.028  15.286  25.438  0.00  0.00    +0.000 C 
ATOM     15  O   UNL     1      -2.762  16.341  24.778  0.00  0.00    +0.000 OA
ENDBRANCH   5   7
BRANCH   1  19
ATOM     16  C   UNL     1       1.112   8.864  20.249  0.00  0.00    +0.000 A 
ATOM     17  C   UNL     1       1.423   9.320  18.969  0.00  0.00    +0.000 A 
ATOM     18  C   UNL     1       0.855  10.492  18.463  0.00  0.00    +0.000 A 
ATOM     19  C   UNL     1      -0.075  11.240  19.211  0.00  0.00    +0.000 A 
ATOM     20  C   UNL     1      -0.377  10.766  20.502  0.00  0.00    +0.000 A 
ATOM     21  C   UNL     1       0.219   9.601  21.021  0.00  0.00    +0.000 A 
BRANCH  16  23
ATOM     22  C   UNL     1       2.348   6.945  19.563  0.00  0.00    +0.000 C 
ATOM     23  O   UNL     1       1.701   7.680  20.592  0.00  0.00    +0.000 OA
ENDBRANCH  16  23
ENDBRANCH   1  19
BRANCH   1  24
ATOM     24  O   UNL     1      -1.459  12.165  17.449  0.00  0.00    +0.000 OA
ATOM     25  H   UNL     1      -2.391  12.368  17.639  0.00  0.00    +0.000 HD
ENDBRANCH   1  24
BRANCH   6  26
ATOM     26  C   UNL     1      -3.060  12.790  19.935  0.00  0.00    +0.000 C 
BRANCH  26  27
ATOM     27  C   UNL     1      -3.458  12.740  21.410  0.00  0.00    +0.000 A 
ATOM     28  C   UNL     1      -2.630  12.085  22.332  0.00  0.00    +0.000 A 
ATOM     29  C   UNL     1      -2.915  12.064  23.686  0.00  0.00    +0.000 A 
ATOM     30  C   UNL     1      -4.046  12.701  24.168  0.00  0.00    +0.000 A 
ATOM     31  C   UNL     1      -4.927  13.348  23.286  0.00  0.00    +0.000 A 
ATOM     32  C   UNL     1      -4.651  13.358  21.894  0.00  0.00    +0.000 A 
BRANCH  31  33
ATOM     33  O   UNL     1      -6.021  14.025  23.768  0.00  0.00    +0.000 OA
ATOM     34  C   UNL     1      -7.165  13.248  24.116  0.00  0.00    +0.000 C 
ENDBRANCH  31  33
BRANCH  32  35
ATOM     35  O   UNL     1      -5.449  13.925  20.917  0.00  0.00    +0.000 OA
ATOM     36  C   UNL     1      -6.584  13.199  20.450  0.00  0.00    +0.000 C 
ENDBRANCH  32  35
ENDBRANCH  26  27
ENDBRANCH   6  26
TORSDOF 8
ENDMDL
MODEL 6
REMARK VINA RESULT:      -6.5      3.010      6.531
REMARK  Name = 
REMARK  11 active torsions:
REMARK  status: ('A' for Active; 'I' for Inactive)
REMARK    1  A    between atoms: C_1  and  O_2
REMARK    2  A    between atoms: O_2  and  C_3
REMARK    3  A    between atoms: C_6  and  C_7
REMARK    4  A    between atoms: C_7  and  O_8
REMARK    5  A    between atoms: C_12  and  C_13
REMARK    6  A    between atoms: C_22  and  C_23
REMARK    7  A    between atoms: C_23  and  C_24
REMARK    8  A    between atoms: C_28  and  O_29
REMARK    9  A    between atoms: O_29  and  C_30
REMARK   10  A    between atoms: C_31  and  O_32
REMARK   11  A    between atoms: O_32  and  C_33
REMARK                            x       y       z     vdW  Elec       q    Type
REMARK                         _______ _______ _______ _____ _____    ______ ____
ROOT
ATOM      1  C   UNL     1      -1.309  12.666  19.551  0.00  0.00    +0.000 C 
ATOM      2  O   UNL     1      -1.876  11.874  18.508  0.00  0.00    +0.000 OA
ATOM      3  C   UNL     1      -1.196  10.703  18.425  0.00  0.00    +0.000 C 
ATOM      4  O   UNL     1      -1.560   9.725  17.796  0.00  0.00    +0.000 OA
ATOM      5  C   UNL     1       0.046  10.829  19.194  0.00  0.00    +0.000 C 
ATOM      6  C   UNL     1       0.023  12.031  19.796  0.00  0.00    +0.000 C 
ENDROOT
BRANCH   5   7
ATOM      7  C   UNL     1       0.980   9.745  19.461  0.00  0.00    +0.000 A 
ATOM      8  C   UNL     1       0.947   8.963  20.632  0.00  0.00    +0.000 A 
ATOM      9  C   UNL     1       1.651   7.754  20.693  0.00  0.00    +0.000 A 
ATOM     10  C   UNL     1       2.310   7.345  19.553  0.00  0.00    +0.000 A 
ATOM     11  C   UNL     1       2.409   8.153  18.444  0.00  0.00    +0.000 A 
ATOM     12  C   UNL     1       1.813   9.383  18.391  0.00  0.00    +0.000 A 
ATOM     13  O   UNL     1       3.019   7.530  17.398  0.00  0.00    +0.000 OA
ATOM     14  C   UNL     1       2.944   6.174  17.878  0.00  0.00    +0.000 C 
ATOM     15  O   UNL     1       2.840   6.111  19.318  0.00  0.00    +0.000 OA
ENDBRANCH   5   7
BRANCH   1  19
ATOM     16  C   UNL     1      -4.113  12.591  22.931  0.00  0.00    +0.000 A 
ATOM     17  C   UNL     1      -2.775  12.242  23.105  0.00  0.00    +0.000 A 
ATOM     18  C   UNL     1      -1.872  12.295  22.040  0.00  0.00    +0.000 A 
ATOM     19  C   UNL     1      -2.283  12.672  20.746  0.00  0.00    +0.000 A 
ATOM     20  C   UNL     1      -3.638  13.021  20.588  0.00  0.00    +0.000 A 
ATOM     21  C   UNL     1      -4.540  12.995  21.670  0.00  0.00    +0.000 A 
BRANCH  16  23
ATOM     22  C   UNL     1      -6.238  12.886  23.970  0.00  0.00    +0.000 C 
ATOM     23  O   UNL     1      -4.891  12.442  24.045  0.00  0.00    +0.000 OA
ENDBRANCH  16  23
ENDBRANCH   1  19
BRANCH   1  24
ATOM     24  O   UNL     1      -1.141  13.981  19.056  0.00  0.00    +0.000 OA
ATOM     25  H   UNL     1      -0.179  14.105  18.984  0.00  0.00    +0.000 HD
ENDBRANCH   1  24
BRANCH   6  26
ATOM     26  C   UNL     1       1.152  12.710  20.560  0.00  0.00    +0.000 C 
BRANCH  26  27
ATOM     27  C   UNL     1       2.235  13.447  19.772  0.00  0.00    +0.000 A 
ATOM     28  C   UNL     1       2.197  13.446  18.372  0.00  0.00    +0.000 A 
ATOM     29  C   UNL     1       3.119  14.147  17.614  0.00  0.00    +0.000 A 
ATOM     30  C   UNL     1       4.117  14.879  18.236  0.00  0.00    +0.000 A 
ATOM     31  C   UNL     1       4.220  14.892  19.637  0.00  0.00    +0.000 A 
ATOM     32  C   UNL     1       3.290  14.160  20.420  0.00  0.00    +0.000 A 
BRANCH  31  33
ATOM     33  O   UNL     1       5.176  15.658  20.257  0.00  0.00    +0.000 OA
ATOM     34  C   UNL     1       6.516  15.532  19.787  0.00  0.00    +0.000 C 
ENDBRANCH  31  33
BRANCH  32  35
ATOM     35  O   UNL     1       3.298  14.058  21.799  0.00  0.00    +0.000 OA
ATOM     36  C   UNL     1       4.522  13.737  22.456  0.00  0.00    +0.000 C 
ENDBRANCH  32  35
ENDBRANCH  26  27
ENDBRANCH   6  26
TORSDOF 8
ENDMDL
MODEL 7
REMARK VINA RESULT:      -6.5      2.422      7.792
REMARK  Name = 
REMARK  11 active torsions:
REMARK  status: ('A' for Active; 'I' for Inactive)
REMARK    1  A    between atoms: C_1  and  O_2
REMARK    2  A    between atoms: O_2  and  C_3
REMARK    3  A    between atoms: C_6  and  C_7
REMARK    4  A    between atoms: C_7  and  O_8
REMARK    5  A    between atoms: C_12  and  C_13
REMARK    6  A    between atoms: C_22  and  C_23
REMARK    7  A    between atoms: C_23  and  C_24
REMARK    8  A    between atoms: C_28  and  O_29
REMARK    9  A    between atoms: O_29  and  C_30
REMARK   10  A    between atoms: C_31  and  O_32
REMARK   11  A    between atoms: O_32  and  C_33
REMARK                            x       y       z     vdW  Elec       q    Type
REMARK                         _______ _______ _______ _____ _____    ______ ____
ROOT
ATOM      1  C   UNL     1      -0.205  11.937  20.414  0.00  0.00    +0.000 C 
ATOM      2  O   UNL     1      -0.056  10.924  21.408  0.00  0.00    +0.000 OA
ATOM      3  C   UNL     1      -0.730  11.299  22.524  0.00  0.00    +0.000 C 
ATOM      4  O   UNL     1      -0.987  10.570  23.465  0.00  0.00    +0.000 OA
ATOM      5  C   UNL     1      -1.071  12.721  22.407  0.00  0.00    +0.000 C 
ATOM      6  C   UNL     1      -0.681  13.126  21.186  0.00  0.00    +0.000 C 
ENDROOT
BRANCH   5   7
ATOM      7  C   UNL     1      -1.911  13.460  23.338  0.00  0.00    +0.000 A 
ATOM      8  C   UNL     1      -1.418  14.452  24.209  0.00  0.00    +0.000 A 
ATOM      9  C   UNL     1      -2.300  15.336  24.843  0.00  0.00    +0.000 A 
ATOM     10  C   UNL     1      -3.638  15.231  24.529  0.00  0.00    +0.000 A 
ATOM     11  C   UNL     1      -4.122  14.208  23.746  0.00  0.00    +0.000 A 
ATOM     12  C   UNL     1      -3.293  13.271  23.191  0.00  0.00    +0.000 A 
ATOM     13  O   UNL     1      -5.450  14.337  23.481  0.00  0.00    +0.000 OA
ATOM     14  C   UNL     1      -5.620  15.711  23.879  0.00  0.00    +0.000 C 
ATOM     15  O   UNL     1      -4.618  16.129  24.833  0.00  0.00    +0.000 OA
ENDBRANCH   5   7
BRANCH   1  19
ATOM     16  C   UNL     1      -2.901  10.524  17.247  0.00  0.00    +0.000 A 
ATOM     17  C   UNL     1      -1.609  10.014  17.366  0.00  0.00    +0.000 A 
ATOM     18  C   UNL     1      -0.758  10.437  18.391  0.00  0.00    +0.000 A 
ATOM     19  C   UNL     1      -1.160  11.415  19.323  0.00  0.00    +0.000 A 
ATOM     20  C   UNL     1      -2.468  11.919  19.188  0.00  0.00    +0.000 A 
ATOM     21  C   UNL     1      -3.333  11.469  18.172  0.00  0.00    +0.000 A 
BRANCH  16  23
ATOM     22  C   UNL     1      -3.002  10.195  14.888  0.00  0.00    +0.000 C 
ATOM     23  O   UNL     1      -3.600  10.058  16.169  0.00  0.00    +0.000 OA
ENDBRANCH  16  23
ENDBRANCH   1  19
BRANCH   1  24
ATOM     24  O   UNL     1       1.072  12.193  19.859  0.00  0.00    +0.000 OA
ATOM     25  H   UNL     1       1.427  11.319  19.625  0.00  0.00    +0.000 HD
ENDBRANCH   1  24
BRANCH   6  26
ATOM     26  C   UNL     1      -0.649  14.549  20.645  0.00  0.00    +0.000 C 
BRANCH  26  27
ATOM     27  C   UNL     1       0.647  15.351  20.758  0.00  0.00    +0.000 A 
ATOM     28  C   UNL     1       1.348  15.373  21.971  0.00  0.00    +0.000 A 
ATOM     29  C   UNL     1       2.556  16.032  22.108  0.00  0.00    +0.000 A 
ATOM     30  C   UNL     1       3.110  16.698  21.026  0.00  0.00    +0.000 A 
ATOM     31  C   UNL     1       2.438  16.734  19.794  0.00  0.00    +0.000 A 
ATOM     32  C   UNL     1       1.189  16.075  19.652  0.00  0.00    +0.000 A 
BRANCH  31  33
ATOM     33  O   UNL     1       3.010  17.349  18.707  0.00  0.00    +0.000 OA
ATOM     34  C   UNL     1       3.798  16.537  17.840  0.00  0.00    +0.000 C 
ENDBRANCH  31  33
BRANCH  32  35
ATOM     35  O   UNL     1       0.408  16.062  18.511  0.00  0.00    +0.000 OA
ATOM     36  C   UNL     1      -0.386  17.207  18.208  0.00  0.00    +0.000 C 
ENDBRANCH  32  35
ENDBRANCH  26  27
ENDBRANCH   6  26
TORSDOF 8
ENDMDL
MODEL 8
REMARK VINA RESULT:      -6.3      2.441      6.889
REMARK  Name = 
REMARK  11 active torsions:
REMARK  status: ('A' for Active; 'I' for Inactive)
REMARK    1  A    between atoms: C_1  and  O_2
REMARK    2  A    between atoms: O_2  and  C_3
REMARK    3  A    between atoms: C_6  and  C_7
REMARK    4  A    between atoms: C_7  and  O_8
REMARK    5  A    between atoms: C_12  and  C_13
REMARK    6  A    between atoms: C_22  and  C_23
REMARK    7  A    between atoms: C_23  and  C_24
REMARK    8  A    between atoms: C_28  and  O_29
REMARK    9  A    between atoms: O_29  and  C_30
REMARK   10  A    between atoms: C_31  and  O_32
REMARK   11  A    between atoms: O_32  and  C_33
REMARK                            x       y       z     vdW  Elec       q    Type
REMARK                         _______ _______ _______ _____ _____    ______ ____
ROOT
ATOM      1  C   UNL     1       0.738  10.436  18.764  0.00  0.00    +0.000 C 
ATOM      2  O   UNL     1       1.737  11.455  18.829  0.00  0.00    +0.000 OA
ATOM      3  C   UNL     1       1.493  12.242  19.906  0.00  0.00    +0.000 C 
ATOM      4  O   UNL     1       2.272  13.056  20.368  0.00  0.00    +0.000 OA
ATOM      5  C   UNL     1       0.138  11.961  20.393  0.00  0.00    +0.000 C 
ATOM      6  C   UNL     1      -0.347  10.945  19.659  0.00  0.00    +0.000 C 
ENDROOT
BRANCH   5   7
ATOM      7  C   UNL     1      -0.443  12.503  21.613  0.00  0.00    +0.000 A 
ATOM      8  C   UNL     1      -0.338  13.859  21.985  0.00  0.00    +0.000 A 
ATOM      9  C   UNL     1      -1.168  14.381  22.985  0.00  0.00    +0.000 A 
ATOM     10  C   UNL     1      -2.115  13.538  23.528  0.00  0.00    +0.000 A 
ATOM     11  C   UNL     1      -2.154  12.198  23.222  0.00  0.00    +0.000 A 
ATOM     12  C   UNL     1      -1.290  11.638  22.320  0.00  0.00    +0.000 A 
ATOM     13  O   UNL     1      -3.215  11.563  23.791  0.00  0.00    +0.000 OA
ATOM     14  C   UNL     1      -3.988  12.721  24.160  0.00  0.00    +0.000 C 
ATOM     15  O   UNL     1      -3.165  13.897  24.320  0.00  0.00    +0.000 OA
ENDBRANCH   5   7
BRANCH   1  19
ATOM     16  C   UNL     1       2.482   6.571  19.912  0.00  0.00    +0.000 A 
ATOM     17  C   UNL     1       2.686   7.097  18.638  0.00  0.00    +0.000 A 
ATOM     18  C   UNL     1       2.160   8.341  18.278  0.00  0.00    +0.000 A 
ATOM     19  C   UNL     1       1.379   9.096  19.175  0.00  0.00    +0.000 A 
ATOM     20  C   UNL     1       1.184   8.551  20.458  0.00  0.00    +0.000 A 
ATOM     21  C   UNL     1       1.739   7.310  20.828  0.00  0.00    +0.000 A 
BRANCH  16  23
ATOM     22  C   UNL     1       4.032   4.899  19.218  0.00  0.00    +0.000 C 
ATOM     23  O   UNL     1       3.009   5.326  20.107  0.00  0.00    +0.000 OA
ENDBRANCH  16  23
ENDBRANCH   1  19
BRANCH   1  24
ATOM     24  O   UNL     1       0.277  10.364  17.428  0.00  0.00    +0.000 OA
ATOM     25  H   UNL     1      -0.350  11.101  17.335  0.00  0.00    +0.000 HD
ENDBRANCH   1  24
BRANCH   6  26
ATOM     26  C   UNL     1      -1.769  10.399  19.652  0.00  0.00    +0.000 C 
BRANCH  26  27
ATOM     27  C   UNL     1      -2.652  10.663  18.433  0.00  0.00    +0.000 A 
ATOM     28  C   UNL     1      -2.502   9.877  17.283  0.00  0.00    +0.000 A 
ATOM     29  C   UNL     1      -3.317  10.035  16.176  0.00  0.00    +0.000 A 
ATOM     30  C   UNL     1      -4.318  10.993  16.182  0.00  0.00    +0.000 A 
ATOM     31  C   UNL     1      -4.495  11.829  17.296  0.00  0.00    +0.000 A 
ATOM     32  C   UNL     1      -3.651  11.684  18.428  0.00  0.00    +0.000 A 
BRANCH  31  33
ATOM     33  O   UNL     1      -5.520  12.743  17.325  0.00  0.00    +0.000 OA
ATOM     34  C   UNL     1      -6.837  12.238  17.527  0.00  0.00    +0.000 C 
ENDBRANCH  31  33
BRANCH  32  35
ATOM     35  O   UNL     1      -3.692  12.460  19.572  0.00  0.00    +0.000 OA
ATOM     36  C   UNL     1      -4.794  12.310  20.464  0.00  0.00    +0.000 C 
ENDBRANCH  32  35
ENDBRANCH  26  27
ENDBRANCH   6  26
TORSDOF 8
ENDMDL
MODEL 9
REMARK VINA RESULT:      -6.3      3.348      6.706
REMARK  Name = 
REMARK  11 active torsions:
REMARK  status: ('A' for Active; 'I' for Inactive)
REMARK    1  A    between atoms: C_1  and  O_2
REMARK    2  A    between atoms: O_2  and  C_3
REMARK    3  A    between atoms: C_6  and  C_7
REMARK    4  A    between atoms: C_7  and  O_8
REMARK    5  A    between atoms: C_12  and  C_13
REMARK    6  A    between atoms: C_22  and  C_23
REMARK    7  A    between atoms: C_23  and  C_24
REMARK    8  A    between atoms: C_28  and  O_29
REMARK    9  A    between atoms: O_29  and  C_30
REMARK   10  A    between atoms: C_31  and  O_32
REMARK   11  A    between atoms: O_32  and  C_33
REMARK                            x       y       z     vdW  Elec       q    Type
REMARK                         _______ _______ _______ _____ _____    ______ ____
ROOT
ATOM      1  C   UNL     1      -1.582  12.478  20.192  0.00  0.00    +0.000 C 
ATOM      2  O   UNL     1      -1.809  13.872  19.987  0.00  0.00    +0.000 OA
ATOM      3  C   UNL     1      -0.636  14.465  19.652  0.00  0.00    +0.000 C 
ATOM      4  O   UNL     1      -0.525  15.591  19.200  0.00  0.00    +0.000 OA
ATOM      5  C   UNL     1       0.458  13.534  19.947  0.00  0.00    +0.000 C 
ATOM      6  C   UNL     1      -0.098  12.379  20.351  0.00  0.00    +0.000 C 
ENDROOT
BRANCH   5   7
ATOM      7  C   UNL     1       1.856  13.748  19.601  0.00  0.00    +0.000 A 
ATOM      8  C   UNL     1       2.316  13.874  18.274  0.00  0.00    +0.000 A 
ATOM      9  C   UNL     1       3.594  14.385  18.017  0.00  0.00    +0.000 A 
ATOM     10  C   UNL     1       4.337  14.811  19.098  0.00  0.00    +0.000 A 
ATOM     11  C   UNL     1       3.917  14.607  20.392  0.00  0.00    +0.000 A 
ATOM     12  C   UNL     1       2.714  14.019  20.676  0.00  0.00    +0.000 A 
ATOM     13  O   UNL     1       4.746  15.180  21.306  0.00  0.00    +0.000 OA
ATOM     14  C   UNL     1       5.489  16.038  20.419  0.00  0.00    +0.000 C 
ATOM     15  O   UNL     1       5.480  15.553  19.058  0.00  0.00    +0.000 OA
ENDBRANCH   5   7
BRANCH   1  19
ATOM     16  C   UNL     1      -3.290  10.353  16.748  0.00  0.00    +0.000 A 
ATOM     17  C   UNL     1      -1.934  10.246  17.053  0.00  0.00    +0.000 A 
ATOM     18  C   UNL     1      -1.392  10.895  18.166  0.00  0.00    +0.000 A 
ATOM     19  C   UNL     1      -2.185  11.704  19.003  0.00  0.00    +0.000 A 
ATOM     20  C   UNL     1      -3.552  11.800  18.681  0.00  0.00    +0.000 A 
ATOM     21  C   UNL     1      -4.102  11.122  17.576  0.00  0.00    +0.000 A 
BRANCH  16  23
ATOM     22  C   UNL     1      -3.058  10.114  14.388  0.00  0.00    +0.000 C 
ATOM     23  O   UNL     1      -3.670   9.709  15.604  0.00  0.00    +0.000 OA
ENDBRANCH  16  23
ENDBRANCH   1  19
BRANCH   1  24
ATOM     24  O   UNL     1      -2.229  12.104  21.394  0.00  0.00    +0.000 OA
ATOM     25  H   UNL     1      -2.034  12.820  22.021  0.00  0.00    +0.000 HD
ENDBRANCH   1  24
BRANCH   6  26
ATOM     26  C   UNL     1       0.607  11.164  20.939  0.00  0.00    +0.000 C 
BRANCH  26  27
ATOM     27  C   UNL     1       1.151  10.098  19.987  0.00  0.00    +0.000 A 
ATOM     28  C   UNL     1       1.483  10.445  18.671  0.00  0.00    +0.000 A 
ATOM     29  C   UNL     1       2.035   9.532  17.790  0.00  0.00    +0.000 A 
ATOM     30  C   UNL     1       2.276   8.231  18.198  0.00  0.00    +0.000 A 
ATOM     31  C   UNL     1       1.936   7.819  19.497  0.00  0.00    +0.000 A 
ATOM     32  C   UNL     1       1.352   8.746  20.401  0.00  0.00    +0.000 A 
BRANCH  31  33
ATOM     33  O   UNL     1       2.222   6.544  19.920  0.00  0.00    +0.000 OA
ATOM     34  C   UNL     1       2.422   5.555  18.914  0.00  0.00    +0.000 C 
ENDBRANCH  31  33
BRANCH  32  35
ATOM     35  O   UNL     1       0.938   8.465  21.690  0.00  0.00    +0.000 OA
ATOM     36  C   UNL     1      -0.454   8.292  21.942  0.00  0.00    +0.000 C 
ENDBRANCH  32  35
ENDBRANCH  26  27
ENDBRANCH   6  26
TORSDOF 8
ENDMDL
