MODEL 1
REMARK VINA RESULT:      -6.0      0.000      0.000
REMARK  Name = 
REMARK  12 active torsions:
REMARK  status: ('A' for Active; 'I' for Inactive)
REMARK    1  A    between atoms: C_1  and  C_2
REMARK    2  A    between atoms: C_2  and  C_3
REMARK    3  A    between atoms: C_3  and  C_4
REMARK    4  A    between atoms: C_4  and  C_5
REMARK    5  A    between atoms: C_5  and  C_6
REMARK    6  A    between atoms: C_6  and  C_7
REMARK    7  A    between atoms: C_6  and  N_8
REMARK    8  A    between atoms: C_9  and  C_11
REMARK    9  A    between atoms: C_11  and  N_12
REMARK   10  A    between atoms: C_11  and  C_13
REMARK   11  A    between atoms: C_13  and  C_14
REMARK   12  A    between atoms: C_14  and  O_16
REMARK                            x       y       z     vdW  Elec       q    Type
REMARK                         _______ _______ _______ _____ _____    ______ ____
ROOT
ATOM      1  N   UNL     1       5.019   3.827  17.652  0.00  0.00    +0.000 N 
ATOM      2  C   UNL     1       5.663   4.331  16.546  0.00  0.00    +0.000 C 
ATOM      3  O   UNL     1       5.233   4.211  15.397  0.00  0.00    +0.000 OA
ATOM      4  H   UNL     1       5.525   3.888  18.532  0.00  0.00    +0.000 HD
ENDROOT
BRANCH   1   5
ATOM      5  C   UNL     1       3.772   3.072  17.558  0.00  0.00    +0.000 C 
ATOM      6  C   UNL     1       3.802   1.895  18.529  0.00  0.00    +0.000 C 
BRANCH   5   7
ATOM      7  C   UNL     1       2.535   3.949  17.810  0.00  0.00    +0.000 C 
BRANCH   7   8
ATOM      8  C   UNL     1       2.838   5.168  18.685  0.00  0.00    +0.000 C 
BRANCH   8   9
ATOM      9  C   UNL     1       2.406   4.931  20.136  0.00  0.00    +0.000 C 
BRANCH   9  11
ATOM     10  C   UNL     1       1.329   2.923  21.214  0.00  0.00    +0.000 C 
ATOM     11  C   UNL     1       1.157   4.052  20.210  0.00  0.00    +0.000 C 
ENDBRANCH   9  11
ENDBRANCH   8   9
ENDBRANCH   7   8
ENDBRANCH   5   7
ENDBRANCH   1   5
BRANCH   2  12
ATOM     12  C   UNL     1       7.018   5.023  16.851  0.00  0.00    +0.000 C 
BRANCH  12  13
ATOM     13  N   UNL     1       7.972   4.036  17.409  0.00  0.00    +0.000 NA
ATOM     14  H   UNL     1       8.559   3.672  16.656  0.00  0.00    +0.000 HD
ATOM     15  H   UNL     1       7.417   3.231  17.727  0.00  0.00    +0.000 HD
ENDBRANCH  12  13
BRANCH  12  16
ATOM     16  C   UNL     1       6.778   6.225  17.777  0.00  0.00    +0.000 C 
BRANCH  16  17
ATOM     17  C   UNL     1       7.552   6.119  19.065  0.00  0.00    +0.000 C 
ATOM     18  O   UNL     1       7.312   5.328  19.963  0.00  0.00    +0.000 OA
BRANCH  17  19
ATOM     19  O   UNL     1       8.545   7.033  19.157  0.00  0.00    +0.000 OA
ATOM     20  H   UNL     1       8.238   7.958  19.206  0.00  0.00    +0.000 HD
ENDBRANCH  17  19
ENDBRANCH  16  17
ENDBRANCH  12  16
ENDBRANCH   2  12
TORSDOF 10
ENDMDL
MODEL 2
REMARK VINA RESULT:      -5.9      1.582      2.316
REMARK  Name = 
REMARK  12 active torsions:
REMARK  status: ('A' for Active; 'I' for Inactive)
REMARK    1  A    between atoms: C_1  and  C_2
REMARK    2  A    between atoms: C_2  and  C_3
REMARK    3  A    between atoms: C_3  and  C_4
REMARK    4  A    between atoms: C_4  and  C_5
REMARK    5  A    between atoms: C_5  and  C_6
REMARK    6  A    between atoms: C_6  and  C_7
REMARK    7  A    between atoms: C_6  and  N_8
REMARK    8  A    between atoms: C_9  and  C_11
REMARK    9  A    between atoms: C_11  and  N_12
REMARK   10  A    between atoms: C_11  and  C_13
REMARK   11  A    between atoms: C_13  and  C_14
REMARK   12  A    between atoms: C_14  and  O_16
REMARK                            x       y       z     vdW  Elec       q    Type
REMARK                         _______ _______ _______ _____ _____    ______ ____
ROOT
ATOM      1  N   UNL     1       4.199   5.359  17.719  0.00  0.00    +0.000 N 
ATOM      2  C   UNL     1       5.287   4.609  18.101  0.00  0.00    +0.000 C 
ATOM      3  O   UNL     1       5.301   3.897  19.106  0.00  0.00    +0.000 OA
ATOM      4  H   UNL     1       4.344   5.993  16.937  0.00  0.00    +0.000 HD
ENDROOT
BRANCH   1   5
ATOM      5  C   UNL     1       2.964   5.402  18.497  0.00  0.00    +0.000 C 
ATOM      6  C   UNL     1       2.542   6.851  18.724  0.00  0.00    +0.000 C 
BRANCH   5   7
ATOM      7  C   UNL     1       1.827   4.605  17.838  0.00  0.00    +0.000 C 
BRANCH   7   8
ATOM      8  C   UNL     1       1.905   3.104  18.133  0.00  0.00    +0.000 C 
BRANCH   8   9
ATOM      9  C   UNL     1       0.816   2.676  19.122  0.00  0.00    +0.000 C 
BRANCH   9  11
ATOM     10  C   UNL     1       1.590   2.714  21.520  0.00  0.00    +0.000 C 
ATOM     11  C   UNL     1       0.886   3.487  20.416  0.00  0.00    +0.000 C 
ENDBRANCH   9  11
ENDBRANCH   8   9
ENDBRANCH   7   8
ENDBRANCH   5   7
ENDBRANCH   1   5
BRANCH   2  12
ATOM     12  C   UNL     1       6.531   4.771  17.188  0.00  0.00    +0.000 C 
BRANCH  12  13
ATOM     13  N   UNL     1       6.493   3.763  16.102  0.00  0.00    +0.000 NA
ATOM     14  H   UNL     1       7.367   3.804  15.574  0.00  0.00    +0.000 HD
ATOM     15  H   UNL     1       5.767   4.065  15.439  0.00  0.00    +0.000 HD
ENDBRANCH  12  13
BRANCH  12  16
ATOM     16  C   UNL     1       7.804   4.693  18.043  0.00  0.00    +0.000 C 
BRANCH  16  17
ATOM     17  C   UNL     1       7.928   5.854  18.995  0.00  0.00    +0.000 C 
ATOM     18  O   UNL     1       8.152   7.007  18.666  0.00  0.00    +0.000 OA
BRANCH  17  19
ATOM     19  O   UNL     1       7.801   5.487  20.290  0.00  0.00    +0.000 OA
ATOM     20  H   UNL     1       7.327   4.644  20.425  0.00  0.00    +0.000 HD
ENDBRANCH  17  19
ENDBRANCH  16  17
ENDBRANCH  12  16
ENDBRANCH   2  12
TORSDOF 10
ENDMDL
MODEL 3
REMARK VINA RESULT:      -5.8      2.939      6.046
REMARK  Name = 
REMARK  12 active torsions:
REMARK  status: ('A' for Active; 'I' for Inactive)
REMARK    1  A    between atoms: C_1  and  C_2
REMARK    2  A    between atoms: C_2  and  C_3
REMARK    3  A    between atoms: C_3  and  C_4
REMARK    4  A    between atoms: C_4  and  C_5
REMARK    5  A    between atoms: C_5  and  C_6
REMARK    6  A    between atoms: C_6  and  C_7
REMARK    7  A    between atoms: C_6  and  N_8
REMARK    8  A    between atoms: C_9  and  C_11
REMARK    9  A    between atoms: C_11  and  N_12
REMARK   10  A    between atoms: C_11  and  C_13
REMARK   11  A    between atoms: C_13  and  C_14
REMARK   12  A    between atoms: C_14  and  O_16
REMARK                            x       y       z     vdW  Elec       q    Type
REMARK                         _______ _______ _______ _____ _____    ______ ____
ROOT
ATOM      1  N   UNL     1       5.267   3.880  17.506  0.00  0.00    +0.000 N 
ATOM      2  C   UNL     1       4.758   4.012  18.776  0.00  0.00    +0.000 C 
ATOM      3  O   UNL     1       4.877   5.036  19.452  0.00  0.00    +0.000 OA
ATOM      4  H   UNL     1       5.206   2.953  17.093  0.00  0.00    +0.000 HD
ENDROOT
BRANCH   1   5
ATOM      5  C   UNL     1       6.028   4.941  16.851  0.00  0.00    +0.000 C 
ATOM      6  C   UNL     1       7.522   4.639  16.938  0.00  0.00    +0.000 C 
BRANCH   5   7
ATOM      7  C   UNL     1       5.604   5.151  15.389  0.00  0.00    +0.000 C 
BRANCH   7   8
ATOM      8  C   UNL     1       5.670   3.865  14.560  0.00  0.00    +0.000 C 
BRANCH   8   9
ATOM      9  C   UNL     1       6.488   4.071  13.282  0.00  0.00    +0.000 C 
BRANCH   9  11
ATOM     10  C   UNL     1       4.596   3.360  11.776  0.00  0.00    +0.000 C 
ATOM     11  C   UNL     1       6.043   3.117  12.173  0.00  0.00    +0.000 C 
ENDBRANCH   9  11
ENDBRANCH   8   9
ENDBRANCH   7   8
ENDBRANCH   5   7
ENDBRANCH   1   5
BRANCH   2  12
ATOM     12  C   UNL     1       4.060   2.739  19.325  0.00  0.00    +0.000 C 
BRANCH  12  13
ATOM     13  N   UNL     1       5.063   1.846  19.951  0.00  0.00    +0.000 NA
ATOM     14  H   UNL     1       5.826   1.683  19.292  0.00  0.00    +0.000 HD
ATOM     15  H   UNL     1       4.613   0.929  20.070  0.00  0.00    +0.000 HD
ENDBRANCH  12  13
BRANCH  12  16
ATOM     16  C   UNL     1       3.270   2.065  18.193  0.00  0.00    +0.000 C 
BRANCH  16  17
ATOM     17  C   UNL     1       1.848   2.554  18.115  0.00  0.00    +0.000 C 
ATOM     18  O   UNL     1       0.918   2.107  18.766  0.00  0.00    +0.000 OA
BRANCH  17  19
ATOM     19  O   UNL     1       1.681   3.540  17.204  0.00  0.00    +0.000 OA
ATOM     20  H   UNL     1       0.750   3.780  17.037  0.00  0.00    +0.000 HD
ENDBRANCH  17  19
ENDBRANCH  16  17
ENDBRANCH  12  16
ENDBRANCH   2  12
TORSDOF 10
ENDMDL
MODEL 4
REMARK VINA RESULT:      -5.8      2.023      2.906
REMARK  Name = 
REMARK  12 active torsions:
REMARK  status: ('A' for Active; 'I' for Inactive)
REMARK    1  A    between atoms: C_1  and  C_2
REMARK    2  A    between atoms: C_2  and  C_3
REMARK    3  A    between atoms: C_3  and  C_4
REMARK    4  A    between atoms: C_4  and  C_5
REMARK    5  A    between atoms: C_5  and  C_6
REMARK    6  A    between atoms: C_6  and  C_7
REMARK    7  A    between atoms: C_6  and  N_8
REMARK    8  A    between atoms: C_9  and  C_11
REMARK    9  A    between atoms: C_11  and  N_12
REMARK   10  A    between atoms: C_11  and  C_13
REMARK   11  A    between atoms: C_13  and  C_14
REMARK   12  A    between atoms: C_14  and  O_16
REMARK                            x       y       z     vdW  Elec       q    Type
REMARK                         _______ _______ _______ _____ _____    ______ ____
ROOT
ATOM      1  N   UNL     1       4.597   5.762  18.855  0.00  0.00    +0.000 N 
ATOM      2  C   UNL     1       5.558   4.795  19.037  0.00  0.00    +0.000 C 
ATOM      3  O   UNL     1       5.304   3.647  19.406  0.00  0.00    +0.000 OA
ATOM      4  H   UNL     1       4.936   6.700  18.659  0.00  0.00    +0.000 HD
ENDROOT
BRANCH   1   5
ATOM      5  C   UNL     1       3.180   5.518  19.115  0.00  0.00    +0.000 C 
ATOM      6  C   UNL     1       2.524   6.789  19.649  0.00  0.00    +0.000 C 
BRANCH   5   7
ATOM      7  C   UNL     1       2.434   5.007  17.873  0.00  0.00    +0.000 C 
BRANCH   7   8
ATOM      8  C   UNL     1       1.914   3.576  18.039  0.00  0.00    +0.000 C 
BRANCH   8   9
ATOM      9  C   UNL     1       1.070   3.437  19.310  0.00  0.00    +0.000 C 
BRANCH   9  11
ATOM     10  C   UNL     1       1.915   3.020  21.648  0.00  0.00    +0.000 C 
ATOM     11  C   UNL     1       1.676   2.416  20.274  0.00  0.00    +0.000 C 
ENDBRANCH   9  11
ENDBRANCH   8   9
ENDBRANCH   7   8
ENDBRANCH   5   7
ENDBRANCH   1   5
BRANCH   2  12
ATOM     12  C   UNL     1       7.011   5.280  18.793  0.00  0.00    +0.000 C 
BRANCH  12  13
ATOM     13  N   UNL     1       7.685   5.522  20.090  0.00  0.00    +0.000 NA
ATOM     14  H   UNL     1       7.640   6.519  20.311  0.00  0.00    +0.000 HD
ATOM     15  H   UNL     1       8.684   5.326  19.948  0.00  0.00    +0.000 HD
ENDBRANCH  12  13
BRANCH  12  16
ATOM     16  C   UNL     1       6.989   6.515  17.881  0.00  0.00    +0.000 C 
BRANCH  16  17
ATOM     17  C   UNL     1       6.777   6.156  16.433  0.00  0.00    +0.000 C 
ATOM     18  O   UNL     1       7.586   5.568  15.733  0.00  0.00    +0.000 OA
BRANCH  17  19
ATOM     19  O   UNL     1       5.589   6.588  15.953  0.00  0.00    +0.000 OA
ATOM     20  H   UNL     1       5.422   7.540  16.092  0.00  0.00    +0.000 HD
ENDBRANCH  17  19
ENDBRANCH  16  17
ENDBRANCH  12  16
ENDBRANCH   2  12
TORSDOF 10
ENDMDL
MODEL 5
REMARK VINA RESULT:      -5.8      1.190      1.295
REMARK  Name = 
REMARK  12 active torsions:
REMARK  status: ('A' for Active; 'I' for Inactive)
REMARK    1  A    between atoms: C_1  and  C_2
REMARK    2  A    between atoms: C_2  and  C_3
REMARK    3  A    between atoms: C_3  and  C_4
REMARK    4  A    between atoms: C_4  and  C_5
REMARK    5  A    between atoms: C_5  and  C_6
REMARK    6  A    between atoms: C_6  and  C_7
REMARK    7  A    between atoms: C_6  and  N_8
REMARK    8  A    between atoms: C_9  and  C_11
REMARK    9  A    between atoms: C_11  and  N_12
REMARK   10  A    between atoms: C_11  and  C_13
REMARK   11  A    between atoms: C_13  and  C_14
REMARK   12  A    between atoms: C_14  and  O_16
REMARK                            x       y       z     vdW  Elec       q    Type
REMARK                         _______ _______ _______ _____ _____    ______ ____
ROOT
ATOM      1  N   UNL     1       5.105   4.710  17.387  0.00  0.00    +0.000 N 
ATOM      2  C   UNL     1       5.828   5.683  16.738  0.00  0.00    +0.000 C 
ATOM      3  O   UNL     1       5.325   6.500  15.965  0.00  0.00    +0.000 OA
ATOM      4  H   UNL     1       5.645   4.025  17.909  0.00  0.00    +0.000 HD
ENDROOT
BRANCH   1   5
ATOM      5  C   UNL     1       3.668   4.539  17.191  0.00  0.00    +0.000 C 
ATOM      6  C   UNL     1       3.278   3.086  17.451  0.00  0.00    +0.000 C 
BRANCH   5   7
ATOM      7  C   UNL     1       2.839   5.487  18.072  0.00  0.00    +0.000 C 
BRANCH   7   8
ATOM      8  C   UNL     1       1.890   4.743  19.017  0.00  0.00    +0.000 C 
BRANCH   8   9
ATOM      9  C   UNL     1       2.151   5.124  20.478  0.00  0.00    +0.000 C 
BRANCH   9  11
ATOM     10  C   UNL     1       1.295   2.770  20.765  0.00  0.00    +0.000 C 
ATOM     11  C   UNL     1       2.094   3.900  21.393  0.00  0.00    +0.000 C 
ENDBRANCH   9  11
ENDBRANCH   8   9
ENDBRANCH   7   8
ENDBRANCH   5   7
ENDBRANCH   1   5
BRANCH   2  12
ATOM     12  C   UNL     1       7.355   5.640  17.013  0.00  0.00    +0.000 C 
BRANCH  12  13
ATOM     13  N   UNL     1       7.817   4.233  17.066  0.00  0.00    +0.000 NA
ATOM     14  H   UNL     1       7.006   3.615  17.132  0.00  0.00    +0.000 HD
ATOM     15  H   UNL     1       8.314   4.116  17.958  0.00  0.00    +0.000 HD
ENDBRANCH  12  13
BRANCH  12  16
ATOM     16  C   UNL     1       7.664   6.428  18.294  0.00  0.00    +0.000 C 
BRANCH  16  17
ATOM     17  C   UNL     1       7.490   5.594  19.536  0.00  0.00    +0.000 C 
ATOM     18  O   UNL     1       6.424   5.160  19.944  0.00  0.00    +0.000 OA
BRANCH  17  19
ATOM     19  O   UNL     1       8.650   5.394  20.201  0.00  0.00    +0.000 OA
ATOM     20  H   UNL     1       9.384   5.075  19.642  0.00  0.00    +0.000 HD
ENDBRANCH  17  19
ENDBRANCH  16  17
ENDBRANCH  12  16
ENDBRANCH   2  12
TORSDOF 10
ENDMDL
MODEL 6
REMARK VINA RESULT:      -5.7      2.801      5.977
REMARK  Name = 
REMARK  12 active torsions:
REMARK  status: ('A' for Active; 'I' for Inactive)
REMARK    1  A    between atoms: C_1  and  C_2
REMARK    2  A    between atoms: C_2  and  C_3
REMARK    3  A    between atoms: C_3  and  C_4
REMARK    4  A    between atoms: C_4  and  C_5
REMARK    5  A    between atoms: C_5  and  C_6
REMARK    6  A    between atoms: C_6  and  C_7
REMARK    7  A    between atoms: C_6  and  N_8
REMARK    8  A    between atoms: C_9  and  C_11
REMARK    9  A    between atoms: C_11  and  N_12
REMARK   10  A    between atoms: C_11  and  C_13
REMARK   11  A    between atoms: C_13  and  C_14
REMARK   12  A    between atoms: C_14  and  O_16
REMARK                            x       y       z     vdW  Elec       q    Type
REMARK                         _______ _______ _______ _____ _____    ______ ____
ROOT
ATOM      1  N   UNL     1       5.547   3.873  18.206  0.00  0.00    +0.000 N 
ATOM      2  C   UNL     1       4.578   3.876  19.182  0.00  0.00    +0.000 C 
ATOM      3  O   UNL     1       4.160   4.903  19.721  0.00  0.00    +0.000 OA
ATOM      4  H   UNL     1       5.891   2.961  17.918  0.00  0.00    +0.000 HD
ENDROOT
BRANCH   1   5
ATOM      5  C   UNL     1       6.194   5.097  17.740  0.00  0.00    +0.000 C 
ATOM      6  C   UNL     1       7.675   5.073  18.105  0.00  0.00    +0.000 C 
BRANCH   5   7
ATOM      7  C   UNL     1       6.013   5.317  16.229  0.00  0.00    +0.000 C 
BRANCH   7   8
ATOM      8  C   UNL     1       5.670   4.028  15.478  0.00  0.00    +0.000 C 
BRANCH   8   9
ATOM      9  C   UNL     1       6.325   4.001  14.093  0.00  0.00    +0.000 C 
BRANCH   9  11
ATOM     10  C   UNL     1       5.825   2.852  11.906  0.00  0.00    +0.000 C 
ATOM     11  C   UNL     1       5.291   3.776  12.989  0.00  0.00    +0.000 C 
ENDBRANCH   9  11
ENDBRANCH   8   9
ENDBRANCH   7   8
ENDBRANCH   5   7
ENDBRANCH   1   5
BRANCH   2  12
ATOM     12  C   UNL     1       4.082   2.466  19.599  0.00  0.00    +0.000 C 
BRANCH  12  13
ATOM     13  N   UNL     1       5.169   1.736  20.294  0.00  0.00    +0.000 NA
ATOM     14  H   UNL     1       5.230   2.063  21.260  0.00  0.00    +0.000 HD
ATOM     15  H   UNL     1       6.052   2.029  19.857  0.00  0.00    +0.000 HD
ENDBRANCH  12  13
BRANCH  12  16
ATOM     16  C   UNL     1       3.550   1.727  18.362  0.00  0.00    +0.000 C 
BRANCH  16  17
ATOM     17  C   UNL     1       2.240   2.290  17.877  0.00  0.00    +0.000 C 
ATOM     18  O   UNL     1       2.121   3.119  16.989  0.00  0.00    +0.000 OA
BRANCH  17  19
ATOM     19  O   UNL     1       1.176   1.809  18.560  0.00  0.00    +0.000 OA
ATOM     20  H   UNL     1       1.365   1.579  19.490  0.00  0.00    +0.000 HD
ENDBRANCH  17  19
ENDBRANCH  16  17
ENDBRANCH  12  16
ENDBRANCH   2  12
TORSDOF 10
ENDMDL
MODEL 7
REMARK VINA RESULT:      -5.7      1.121      1.166
REMARK  Name = 
REMARK  12 active torsions:
REMARK  status: ('A' for Active; 'I' for Inactive)
REMARK    1  A    between atoms: C_1  and  C_2
REMARK    2  A    between atoms: C_2  and  C_3
REMARK    3  A    between atoms: C_3  and  C_4
REMARK    4  A    between atoms: C_4  and  C_5
REMARK    5  A    between atoms: C_5  and  C_6
REMARK    6  A    between atoms: C_6  and  C_7
REMARK    7  A    between atoms: C_6  and  N_8
REMARK    8  A    between atoms: C_9  and  C_11
REMARK    9  A    between atoms: C_11  and  N_12
REMARK   10  A    between atoms: C_11  and  C_13
REMARK   11  A    between atoms: C_13  and  C_14
REMARK   12  A    between atoms: C_14  and  O_16
REMARK                            x       y       z     vdW  Elec       q    Type
REMARK                         _______ _______ _______ _____ _____    ______ ____
ROOT
ATOM      1  N   UNL     1       4.215   4.028  17.873  0.00  0.00    +0.000 N 
ATOM      2  C   UNL     1       5.003   4.588  16.895  0.00  0.00    +0.000 C 
ATOM      3  O   UNL     1       4.977   4.232  15.715  0.00  0.00    +0.000 OA
ATOM      4  H   UNL     1       4.406   4.324  18.827  0.00  0.00    +0.000 HD
ENDROOT
BRANCH   1   5
ATOM      5  C   UNL     1       3.289   2.930  17.602  0.00  0.00    +0.000 C 
ATOM      6  C   UNL     1       3.750   1.670  18.330  0.00  0.00    +0.000 C 
BRANCH   5   7
ATOM      7  C   UNL     1       1.841   3.276  17.983  0.00  0.00    +0.000 C 
BRANCH   7   8
ATOM      8  C   UNL     1       1.706   4.671  18.602  0.00  0.00    +0.000 C 
BRANCH   8   9
ATOM      9  C   UNL     1       1.448   4.586  20.110  0.00  0.00    +0.000 C 
BRANCH   9  11
ATOM     10  C   UNL     1       1.717   2.629  21.675  0.00  0.00    +0.000 C 
ATOM     11  C   UNL     1       0.928   3.205  20.511  0.00  0.00    +0.000 C 
ENDBRANCH   9  11
ENDBRANCH   8   9
ENDBRANCH   7   8
ENDBRANCH   5   7
ENDBRANCH   1   5
BRANCH   2  12
ATOM     12  C   UNL     1       5.982   5.678  17.405  0.00  0.00    +0.000 C 
BRANCH  12  13
ATOM     13  N   UNL     1       6.278   6.638  16.316  0.00  0.00    +0.000 NA
ATOM     14  H   UNL     1       5.428   6.804  15.774  0.00  0.00    +0.000 HD
ATOM     15  H   UNL     1       6.919   6.164  15.666  0.00  0.00    +0.000 HD
ENDBRANCH  12  13
BRANCH  12  16
ATOM     16  C   UNL     1       7.238   5.006  17.979  0.00  0.00    +0.000 C 
BRANCH  16  17
ATOM     17  C   UNL     1       7.772   5.726  19.189  0.00  0.00    +0.000 C 
ATOM     18  O   UNL     1       7.699   5.316  20.336  0.00  0.00    +0.000 OA
BRANCH  17  19
ATOM     19  O   UNL     1       8.326   6.922  18.887  0.00  0.00    +0.000 OA
ATOM     20  H   UNL     1       8.623   7.436  19.662  0.00  0.00    +0.000 HD
ENDBRANCH  17  19
ENDBRANCH  16  17
ENDBRANCH  12  16
ENDBRANCH   2  12
TORSDOF 10
ENDMDL
MODEL 8
REMARK VINA RESULT:      -5.7      2.354      4.181
REMARK  Name = 
REMARK  12 active torsions:
REMARK  status: ('A' for Active; 'I' for Inactive)
REMARK    1  A    between atoms: C_1  and  C_2
REMARK    2  A    between atoms: C_2  and  C_3
REMARK    3  A    between atoms: C_3  and  C_4
REMARK    4  A    between atoms: C_4  and  C_5
REMARK    5  A    between atoms: C_5  and  C_6
REMARK    6  A    between atoms: C_6  and  C_7
REMARK    7  A    between atoms: C_6  and  N_8
REMARK    8  A    between atoms: C_9  and  C_11
REMARK    9  A    between atoms: C_11  and  N_12
REMARK   10  A    between atoms: C_11  and  C_13
REMARK   11  A    between atoms: C_13  and  C_14
REMARK   12  A    between atoms: C_14  and  O_16
REMARK                            x       y       z     vdW  Elec       q    Type
REMARK                         _______ _______ _______ _____ _____    ______ ____
ROOT
ATOM      1  N   UNL     1       4.820   4.240  16.265  0.00  0.00    +0.000 N 
ATOM      2  C   UNL     1       6.193   4.268  16.194  0.00  0.00    +0.000 C 
ATOM      3  O   UNL     1       6.923   4.362  17.183  0.00  0.00    +0.000 OA
ATOM      4  H   UNL     1       4.324   4.274  15.378  0.00  0.00    +0.000 HD
ENDROOT
BRANCH   1   5
ATOM      5  C   UNL     1       4.098   4.352  17.530  0.00  0.00    +0.000 C 
ATOM      6  C   UNL     1       3.483   5.744  17.655  0.00  0.00    +0.000 C 
BRANCH   5   7
ATOM      7  C   UNL     1       3.019   3.269  17.688  0.00  0.00    +0.000 C 
BRANCH   7   8
ATOM      8  C   UNL     1       1.630   3.850  17.970  0.00  0.00    +0.000 C 
BRANCH   8   9
ATOM      9  C   UNL     1       0.981   3.172  19.180  0.00  0.00    +0.000 C 
BRANCH   9  11
ATOM     10  C   UNL     1       1.873   3.031  21.533  0.00  0.00    +0.000 C 
ATOM     11  C   UNL     1       1.269   3.937  20.472  0.00  0.00    +0.000 C 
ENDBRANCH   9  11
ENDBRANCH   8   9
ENDBRANCH   7   8
ENDBRANCH   5   7
ENDBRANCH   1   5
BRANCH   2  12
ATOM     12  C   UNL     1       6.762   4.226  14.751  0.00  0.00    +0.000 C 
BRANCH  12  13
ATOM     13  N   UNL     1       7.519   5.469  14.472  0.00  0.00    +0.000 NA
ATOM     14  H   UNL     1       8.352   5.496  15.064  0.00  0.00    +0.000 HD
ATOM     15  H   UNL     1       6.937   6.252  14.797  0.00  0.00    +0.000 HD
ENDBRANCH  12  13
BRANCH  12  16
ATOM     16  C   UNL     1       5.617   3.979  13.759  0.00  0.00    +0.000 C 
BRANCH  16  17
ATOM     17  C   UNL     1       6.114   3.544  12.405  0.00  0.00    +0.000 C 
ATOM     18  O   UNL     1       7.171   3.892  11.903  0.00  0.00    +0.000 OA
BRANCH  17  19
ATOM     19  O   UNL     1       5.242   2.738  11.759  0.00  0.00    +0.000 OA
ATOM     20  H   UNL     1       5.619   2.273  10.988  0.00  0.00    +0.000 HD
ENDBRANCH  17  19
ENDBRANCH  16  17
ENDBRANCH  12  16
ENDBRANCH   2  12
TORSDOF 10
ENDMDL
MODEL 9
REMARK VINA RESULT:      -5.7      1.355      1.648
REMARK  Name = 
REMARK  12 active torsions:
REMARK  status: ('A' for Active; 'I' for Inactive)
REMARK    1  A    between atoms: C_1  and  C_2
REMARK    2  A    between atoms: C_2  and  C_3
REMARK    3  A    between atoms: C_3  and  C_4
REMARK    4  A    between atoms: C_4  and  C_5
REMARK    5  A    between atoms: C_5  and  C_6
REMARK    6  A    between atoms: C_6  and  C_7
REMARK    7  A    between atoms: C_6  and  N_8
REMARK    8  A    between atoms: C_9  and  C_11
REMARK    9  A    between atoms: C_11  and  N_12
REMARK   10  A    between atoms: C_11  and  C_13
REMARK   11  A    between atoms: C_13  and  C_14
REMARK   12  A    between atoms: C_14  and  O_16
REMARK                            x       y       z     vdW  Elec       q    Type
REMARK                         _______ _______ _______ _____ _____    ______ ____
ROOT
ATOM      1  N   UNL     1       4.419   5.062  17.088  0.00  0.00    +0.000 N 
ATOM      2  C   UNL     1       5.290   4.878  16.040  0.00  0.00    +0.000 C 
ATOM      3  O   UNL     1       5.190   3.955  15.228  0.00  0.00    +0.000 OA
ATOM      4  H   UNL     1       4.669   5.787  17.755  0.00  0.00    +0.000 HD
ENDROOT
BRANCH   1   5
ATOM      5  C   UNL     1       3.306   4.153  17.352  0.00  0.00    +0.000 C 
ATOM      6  C   UNL     1       3.792   2.960  18.170  0.00  0.00    +0.000 C 
BRANCH   5   7
ATOM      7  C   UNL     1       2.134   4.852  18.060  0.00  0.00    +0.000 C 
BRANCH   7   8
ATOM      8  C   UNL     1       2.200   4.726  19.585  0.00  0.00    +0.000 C 
BRANCH   8   9
ATOM      9  C   UNL     1       0.909   4.125  20.148  0.00  0.00    +0.000 C 
BRANCH   9  11
ATOM     10  C   UNL     1       2.513   2.814  21.585  0.00  0.00    +0.000 C 
ATOM     11  C   UNL     1       1.175   2.800  20.863  0.00  0.00    +0.000 C 
ENDBRANCH   9  11
ENDBRANCH   8   9
ENDBRANCH   7   8
ENDBRANCH   5   7
ENDBRANCH   1   5
BRANCH   2  12
ATOM     12  C   UNL     1       6.457   5.899  15.986  0.00  0.00    +0.000 C 
BRANCH  12  13
ATOM     13  N   UNL     1       7.504   5.419  15.055  0.00  0.00    +0.000 NA
ATOM     14  H   UNL     1       8.334   5.155  15.589  0.00  0.00    +0.000 HD
ATOM     15  H   UNL     1       7.797   6.227  14.491  0.00  0.00    +0.000 HD
ENDBRANCH  12  13
BRANCH  12  16
ATOM     16  C   UNL     1       6.980   6.150  17.409  0.00  0.00    +0.000 C 
BRANCH  16  17
ATOM     17  C   UNL     1       7.431   4.882  18.085  0.00  0.00    +0.000 C 
ATOM     18  O   UNL     1       8.288   4.126  17.655  0.00  0.00    +0.000 OA
BRANCH  17  19
ATOM     19  O   UNL     1       6.756   4.628  19.229  0.00  0.00    +0.000 OA
ATOM     20  H   UNL     1       6.043   5.264  19.425  0.00  0.00    +0.000 HD
ENDBRANCH  17  19
ENDBRANCH  16  17
ENDBRANCH  12  16
ENDBRANCH   2  12
TORSDOF 10
ENDMDL
