MODEL 1
REMARK VINA RESULT:      -6.1      0.000      0.000
REMARK  Name = 
REMARK  5 active torsions:
REMARK  status: ('A' for Active; 'I' for Inactive)
REMARK    1  A    between atoms: N_1  and  C_2
REMARK    2  A    between atoms: N_10  and  C_11
REMARK    3  A    between atoms: C_11  and  C_12
REMARK    4  A    between atoms: C_12  and  O_13
REMARK    5  A    between atoms: O_13  and  N_14
REMARK                            x       y       z     vdW  Elec       q    Type
REMARK                         _______ _______ _______ _____ _____    ______ ____
ROOT
ATOM      1  C   UNL     1       7.324   4.544  17.320  0.00  0.00    +0.000 A 
ATOM      2  N   UNL     1       7.365   4.807  15.994  0.00  0.00    +0.000 NA
ATOM      3  C   UNL     1       6.226   5.182  15.379  0.00  0.00    +0.000 A 
ATOM      4  N   UNL     1       5.004   5.338  15.920  0.00  0.00    +0.000 NA
ATOM      5  C   UNL     1       5.010   5.064  17.234  0.00  0.00    +0.000 A 
ATOM      6  C   UNL     1       6.098   4.670  17.995  0.00  0.00    +0.000 A 
ATOM      7  N   UNL     1       5.726   4.479  19.311  0.00  0.00    +0.000 NA
ATOM      8  C   UNL     1       4.439   4.755  19.343  0.00  0.00    +0.000 A 
ATOM      9  N   UNL     1       3.958   5.115  18.109  0.00  0.00    +0.000 N 
ENDROOT
BRANCH   1  10
ATOM     10  N   UNL     1       8.492   4.169  17.942  0.00  0.00    +0.000 N 
ATOM     11  H   UNL     1       8.559   3.231  18.301  0.00  0.00    +0.000 HD
ATOM     12  H   UNL     1       9.227   4.851  18.063  0.00  0.00    +0.000 HD
ENDBRANCH   1  10
BRANCH   9  13
ATOM     13  C   UNL     1       2.583   5.476  17.838  0.00  0.00    +0.000 C 
BRANCH  13  14
ATOM     14  C   UNL     1       1.548   4.372  18.056  0.00  0.00    +0.000 C 
BRANCH  14  15
ATOM     15  O   UNL     1       1.915   3.220  17.301  0.00  0.00    +0.000 OA
BRANCH  15  16
ATOM     16  N   UNL     1       2.290   2.137  18.141  0.00  0.00    +0.000 N 
ATOM     17  O   UNL     1       1.492   1.788  19.009  0.00  0.00    +0.000 OA
ATOM     18  O   UNL     1       3.402   1.690  17.864  0.00  0.00    +0.000 OA
ENDBRANCH  15  16
ENDBRANCH  14  15
ENDBRANCH  13  14
ENDBRANCH   9  13
TORSDOF 5
ENDMDL
MODEL 2
REMARK VINA RESULT:      -6.1      2.651      5.086
REMARK  Name = 
REMARK  5 active torsions:
REMARK  status: ('A' for Active; 'I' for Inactive)
REMARK    1  A    between atoms: N_1  and  C_2
REMARK    2  A    between atoms: N_10  and  C_11
REMARK    3  A    between atoms: C_11  and  C_12
REMARK    4  A    between atoms: C_12  and  O_13
REMARK    5  A    between atoms: O_13  and  N_14
REMARK                            x       y       z     vdW  Elec       q    Type
REMARK                         _______ _______ _______ _____ _____    ______ ____
ROOT
ATOM      1  C   UNL     1       2.386   3.255  18.755  0.00  0.00    +0.000 A 
ATOM      2  N   UNL     1       2.819   2.161  19.423  0.00  0.00    +0.000 NA
ATOM      3  C   UNL     1       4.102   2.129  19.836  0.00  0.00    +0.000 A 
ATOM      4  N   UNL     1       5.050   3.069  19.671  0.00  0.00    +0.000 NA
ATOM      5  C   UNL     1       4.576   4.133  19.003  0.00  0.00    +0.000 A 
ATOM      6  C   UNL     1       3.290   4.305  18.521  0.00  0.00    +0.000 A 
ATOM      7  N   UNL     1       3.168   5.525  17.886  0.00  0.00    +0.000 NA
ATOM      8  C   UNL     1       4.358   6.079  17.986  0.00  0.00    +0.000 A 
ATOM      9  N   UNL     1       5.247   5.275  18.655  0.00  0.00    +0.000 N 
ENDROOT
BRANCH   1  10
ATOM     10  N   UNL     1       1.074   3.283  18.344  0.00  0.00    +0.000 N 
ATOM     11  H   UNL     1       0.847   3.809  17.515  0.00  0.00    +0.000 HD
ATOM     12  H   UNL     1       0.371   2.822  18.904  0.00  0.00    +0.000 HD
ENDBRANCH   1  10
BRANCH   9  13
ATOM     13  C   UNL     1       6.628   5.620  18.920  0.00  0.00    +0.000 C 
BRANCH  13  14
ATOM     14  C   UNL     1       7.503   5.860  17.689  0.00  0.00    +0.000 C 
BRANCH  14  15
ATOM     15  O   UNL     1       7.735   4.623  17.021  0.00  0.00    +0.000 OA
BRANCH  15  16
ATOM     16  N   UNL     1       7.113   4.588  15.744  0.00  0.00    +0.000 N 
ATOM     17  O   UNL     1       7.573   5.320  14.869  0.00  0.00    +0.000 OA
ATOM     18  O   UNL     1       6.171   3.800  15.701  0.00  0.00    +0.000 OA
ENDBRANCH  15  16
ENDBRANCH  14  15
ENDBRANCH  13  14
ENDBRANCH   9  13
TORSDOF 5
ENDMDL
MODEL 3
REMARK VINA RESULT:      -6.0      2.076      2.929
REMARK  Name = 
REMARK  5 active torsions:
REMARK  status: ('A' for Active; 'I' for Inactive)
REMARK    1  A    between atoms: N_1  and  C_2
REMARK    2  A    between atoms: N_10  and  C_11
REMARK    3  A    between atoms: C_11  and  C_12
REMARK    4  A    between atoms: C_12  and  O_13
REMARK    5  A    between atoms: O_13  and  N_14
REMARK                            x       y       z     vdW  Elec       q    Type
REMARK                         _______ _______ _______ _____ _____    ______ ____
ROOT
ATOM      1  C   UNL     1       7.019   5.394  16.603  0.00  0.00    +0.000 A 
ATOM      2  N   UNL     1       7.795   5.981  17.544  0.00  0.00    +0.000 NA
ATOM      3  C   UNL     1       7.436   5.860  18.837  0.00  0.00    +0.000 A 
ATOM      4  N   UNL     1       6.372   5.213  19.345  0.00  0.00    +0.000 NA
ATOM      5  C   UNL     1       5.632   4.649  18.378  0.00  0.00    +0.000 A 
ATOM      6  C   UNL     1       5.876   4.689  17.016  0.00  0.00    +0.000 A 
ATOM      7  N   UNL     1       4.901   3.996  16.326  0.00  0.00    +0.000 NA
ATOM      8  C   UNL     1       4.085   3.545  17.256  0.00  0.00    +0.000 A 
ATOM      9  N   UNL     1       4.485   3.914  18.516  0.00  0.00    +0.000 N 
ENDROOT
BRANCH   1  10
ATOM     10  N   UNL     1       7.397   5.516  15.286  0.00  0.00    +0.000 N 
ATOM     11  H   UNL     1       6.673   5.562  14.587  0.00  0.00    +0.000 HD
ATOM     12  H   UNL     1       8.379   5.508  15.052  0.00  0.00    +0.000 HD
ENDBRANCH   1  10
BRANCH   9  13
ATOM     13  C   UNL     1       3.788   3.561  19.735  0.00  0.00    +0.000 C 
BRANCH  13  14
ATOM     14  C   UNL     1       2.748   4.569  20.225  0.00  0.00    +0.000 C 
BRANCH  14  15
ATOM     15  O   UNL     1       2.247   4.159  21.494  0.00  0.00    +0.000 OA
BRANCH  15  16
ATOM     16  N   UNL     1       1.347   3.065  21.377  0.00  0.00    +0.000 N 
ATOM     17  O   UNL     1       0.602   3.045  20.399  0.00  0.00    +0.000 OA
ATOM     18  O   UNL     1       1.452   2.269  22.308  0.00  0.00    +0.000 OA
ENDBRANCH  15  16
ENDBRANCH  14  15
ENDBRANCH  13  14
ENDBRANCH   9  13
TORSDOF 5
ENDMDL
MODEL 4
REMARK VINA RESULT:      -5.9      2.075      2.419
REMARK  Name = 
REMARK  5 active torsions:
REMARK  status: ('A' for Active; 'I' for Inactive)
REMARK    1  A    between atoms: N_1  and  C_2
REMARK    2  A    between atoms: N_10  and  C_11
REMARK    3  A    between atoms: C_11  and  C_12
REMARK    4  A    between atoms: C_12  and  O_13
REMARK    5  A    between atoms: O_13  and  N_14
REMARK                            x       y       z     vdW  Elec       q    Type
REMARK                         _______ _______ _______ _____ _____    ______ ____
ROOT
ATOM      1  C   UNL     1       7.037   6.040  16.694  0.00  0.00    +0.000 A 
ATOM      2  N   UNL     1       7.201   5.481  15.473  0.00  0.00    +0.000 NA
ATOM      3  C   UNL     1       6.500   4.368  15.178  0.00  0.00    +0.000 A 
ATOM      4  N   UNL     1       5.625   3.708  15.958  0.00  0.00    +0.000 NA
ATOM      5  C   UNL     1       5.496   4.296  17.158  0.00  0.00    +0.000 A 
ATOM      6  C   UNL     1       6.147   5.436  17.598  0.00  0.00    +0.000 A 
ATOM      7  N   UNL     1       5.764   5.747  18.889  0.00  0.00    +0.000 NA
ATOM      8  C   UNL     1       4.896   4.813  19.218  0.00  0.00    +0.000 A 
ATOM      9  N   UNL     1       4.699   3.910  18.203  0.00  0.00    +0.000 N 
ENDROOT
BRANCH   1  10
ATOM     10  N   UNL     1       7.750   7.179  16.985  0.00  0.00    +0.000 N 
ATOM     11  H   UNL     1       7.326   7.864  17.589  0.00  0.00    +0.000 HD
ATOM     12  H   UNL     1       8.651   7.321  16.550  0.00  0.00    +0.000 HD
ENDBRANCH   1  10
BRANCH   9  13
ATOM     13  C   UNL     1       3.800   2.778  18.274  0.00  0.00    +0.000 C 
BRANCH  13  14
ATOM     14  C   UNL     1       3.382   2.347  19.680  0.00  0.00    +0.000 C 
BRANCH  14  15
ATOM     15  O   UNL     1       2.037   2.750  19.922  0.00  0.00    +0.000 OA
BRANCH  15  16
ATOM     16  N   UNL     1       1.939   3.619  21.042  0.00  0.00    +0.000 N 
ATOM     17  O   UNL     1       1.548   4.767  20.838  0.00  0.00    +0.000 OA
ATOM     18  O   UNL     1       2.272   3.072  22.092  0.00  0.00    +0.000 OA
ENDBRANCH  15  16
ENDBRANCH  14  15
ENDBRANCH  13  14
ENDBRANCH   9  13
TORSDOF 5
ENDMDL
MODEL 5
REMARK VINA RESULT:      -5.9      2.702      4.892
REMARK  Name = 
REMARK  5 active torsions:
REMARK  status: ('A' for Active; 'I' for Inactive)
REMARK    1  A    between atoms: N_1  and  C_2
REMARK    2  A    between atoms: N_10  and  C_11
REMARK    3  A    between atoms: C_11  and  C_12
REMARK    4  A    between atoms: C_12  and  O_13
REMARK    5  A    between atoms: O_13  and  N_14
REMARK                            x       y       z     vdW  Elec       q    Type
REMARK                         _______ _______ _______ _____ _____    ______ ____
ROOT
ATOM      1  C   UNL     1       1.663   3.209  19.892  0.00  0.00    +0.000 A 
ATOM      2  N   UNL     1       1.880   2.176  19.046  0.00  0.00    +0.000 NA
ATOM      3  C   UNL     1       2.599   2.403  17.928  0.00  0.00    +0.000 A 
ATOM      4  N   UNL     1       3.153   3.558  17.519  0.00  0.00    +0.000 NA
ATOM      5  C   UNL     1       2.911   4.553  18.386  0.00  0.00    +0.000 A 
ATOM      6  C   UNL     1       2.193   4.469  19.567  0.00  0.00    +0.000 A 
ATOM      7  N   UNL     1       2.152   5.697  20.200  0.00  0.00    +0.000 NA
ATOM      8  C   UNL     1       2.834   6.504  19.415  0.00  0.00    +0.000 A 
ATOM      9  N   UNL     1       3.315   5.859  18.303  0.00  0.00    +0.000 N 
ENDROOT
BRANCH   1  10
ATOM     10  N   UNL     1       0.935   2.968  21.033  0.00  0.00    +0.000 N 
ATOM     11  H   UNL     1       0.082   3.484  21.170  0.00  0.00    +0.000 HD
ATOM     12  H   UNL     1       1.296   2.322  21.721  0.00  0.00    +0.000 HD
ENDBRANCH   1  10
BRANCH   9  13
ATOM     13  C   UNL     1       4.102   6.490  17.264  0.00  0.00    +0.000 C 
BRANCH  13  14
ATOM     14  C   UNL     1       5.619   6.423  17.444  0.00  0.00    +0.000 C 
BRANCH  14  15
ATOM     15  O   UNL     1       6.122   5.244  16.821  0.00  0.00    +0.000 OA
BRANCH  15  16
ATOM     16  N   UNL     1       7.020   4.541  17.668  0.00  0.00    +0.000 N 
ATOM     17  O   UNL     1       8.117   4.234  17.203  0.00  0.00    +0.000 OA
ATOM     18  O   UNL     1       6.551   4.337  18.786  0.00  0.00    +0.000 OA
ENDBRANCH  15  16
ENDBRANCH  14  15
ENDBRANCH  13  14
ENDBRANCH   9  13
TORSDOF 5
ENDMDL
MODEL 6
REMARK VINA RESULT:      -5.8      1.838      2.825
REMARK  Name = 
REMARK  5 active torsions:
REMARK  status: ('A' for Active; 'I' for Inactive)
REMARK    1  A    between atoms: N_1  and  C_2
REMARK    2  A    between atoms: N_10  and  C_11
REMARK    3  A    between atoms: C_11  and  C_12
REMARK    4  A    between atoms: C_12  and  O_13
REMARK    5  A    between atoms: O_13  and  N_14
REMARK                            x       y       z     vdW  Elec       q    Type
REMARK                         _______ _______ _______ _____ _____    ______ ____
ROOT
ATOM      1  C   UNL     1       7.005   5.323  16.533  0.00  0.00    +0.000 A 
ATOM      2  N   UNL     1       7.866   5.794  17.464  0.00  0.00    +0.000 NA
ATOM      3  C   UNL     1       7.528   5.681  18.764  0.00  0.00    +0.000 A 
ATOM      4  N   UNL     1       6.410   5.145  19.287  0.00  0.00    +0.000 NA
ATOM      5  C   UNL     1       5.587   4.694  18.328  0.00  0.00    +0.000 A 
ATOM      6  C   UNL     1       5.800   4.741  16.961  0.00  0.00    +0.000 A 
ATOM      7  N   UNL     1       4.735   4.181  16.282  0.00  0.00    +0.000 NA
ATOM      8  C   UNL     1       3.897   3.801  17.224  0.00  0.00    +0.000 A 
ATOM      9  N   UNL     1       4.367   4.090  18.481  0.00  0.00    +0.000 N 
ENDROOT
BRANCH   1  10
ATOM     10  N   UNL     1       7.361   5.435  15.209  0.00  0.00    +0.000 N 
ATOM     11  H   UNL     1       8.143   4.892  14.879  0.00  0.00    +0.000 HD
ATOM     12  H   UNL     1       6.865   6.088  14.619  0.00  0.00    +0.000 HD
ENDBRANCH   1  10
BRANCH   9  13
ATOM     13  C   UNL     1       3.665   3.786  19.710  0.00  0.00    +0.000 C 
BRANCH  13  14
ATOM     14  C   UNL     1       3.347   2.310  19.949  0.00  0.00    +0.000 C 
BRANCH  14  15
ATOM     15  O   UNL     1       1.935   2.119  19.940  0.00  0.00    +0.000 OA
BRANCH  15  16
ATOM     16  N   UNL     1       1.295   2.862  20.968  0.00  0.00    +0.000 N 
ATOM     17  O   UNL     1       1.483   2.502  22.129  0.00  0.00    +0.000 OA
ATOM     18  O   UNL     1       0.622   3.793  20.527  0.00  0.00    +0.000 OA
ENDBRANCH  15  16
ENDBRANCH  14  15
ENDBRANCH  13  14
ENDBRANCH   9  13
TORSDOF 5
ENDMDL
MODEL 7
REMARK VINA RESULT:      -5.8      2.816      4.343
REMARK  Name = 
REMARK  5 active torsions:
REMARK  status: ('A' for Active; 'I' for Inactive)
REMARK    1  A    between atoms: N_1  and  C_2
REMARK    2  A    between atoms: N_10  and  C_11
REMARK    3  A    between atoms: C_11  and  C_12
REMARK    4  A    between atoms: C_12  and  O_13
REMARK    5  A    between atoms: O_13  and  N_14
REMARK                            x       y       z     vdW  Elec       q    Type
REMARK                         _______ _______ _______ _____ _____    ______ ____
ROOT
ATOM      1  C   UNL     1       4.427   2.327  19.552  0.00  0.00    +0.000 A 
ATOM      2  N   UNL     1       3.284   1.836  19.022  0.00  0.00    +0.000 NA
ATOM      3  C   UNL     1       2.639   2.571  18.094  0.00  0.00    +0.000 A 
ATOM      4  N   UNL     1       2.987   3.774  17.601  0.00  0.00    +0.000 NA
ATOM      5  C   UNL     1       4.124   4.222  18.156  0.00  0.00    +0.000 A 
ATOM      6  C   UNL     1       4.890   3.580  19.114  0.00  0.00    +0.000 A 
ATOM      7  N   UNL     1       5.992   4.342  19.447  0.00  0.00    +0.000 NA
ATOM      8  C   UNL     1       5.893   5.423  18.702  0.00  0.00    +0.000 A 
ATOM      9  N   UNL     1       4.778   5.398  17.902  0.00  0.00    +0.000 N 
ENDROOT
BRANCH   1  10
ATOM     10  N   UNL     1       5.083   1.567  20.492  0.00  0.00    +0.000 N 
ATOM     11  H   UNL     1       5.424   2.026  21.320  0.00  0.00    +0.000 HD
ATOM     12  H   UNL     1       5.247   0.587  20.307  0.00  0.00    +0.000 HD
ENDBRANCH   1  10
BRANCH   9  13
ATOM     13  C   UNL     1       4.409   6.447  16.974  0.00  0.00    +0.000 C 
BRANCH  13  14
ATOM     14  C   UNL     1       5.475   6.836  15.950  0.00  0.00    +0.000 C 
BRANCH  14  15
ATOM     15  O   UNL     1       5.495   5.878  14.895  0.00  0.00    +0.000 OA
BRANCH  15  16
ATOM     16  N   UNL     1       6.603   4.996  15.003  0.00  0.00    +0.000 N 
ATOM     17  O   UNL     1       6.389   3.865  15.437  0.00  0.00    +0.000 OA
ATOM     18  O   UNL     1       7.655   5.514  14.631  0.00  0.00    +0.000 OA
ENDBRANCH  15  16
ENDBRANCH  14  15
ENDBRANCH  13  14
ENDBRANCH   9  13
TORSDOF 5
ENDMDL
MODEL 8
REMARK VINA RESULT:      -5.8      3.159      5.419
REMARK  Name = 
REMARK  5 active torsions:
REMARK  status: ('A' for Active; 'I' for Inactive)
REMARK    1  A    between atoms: N_1  and  C_2
REMARK    2  A    between atoms: N_10  and  C_11
REMARK    3  A    between atoms: C_11  and  C_12
REMARK    4  A    between atoms: C_12  and  O_13
REMARK    5  A    between atoms: O_13  and  N_14
REMARK                            x       y       z     vdW  Elec       q    Type
REMARK                         _______ _______ _______ _____ _____    ______ ____
ROOT
ATOM      1  C   UNL     1       1.441   3.047  19.100  0.00  0.00    +0.000 A 
ATOM      2  N   UNL     1       1.002   3.751  20.170  0.00  0.00    +0.000 NA
ATOM      3  C   UNL     1       1.601   4.924  20.454  0.00  0.00    +0.000 A 
ATOM      4  N   UNL     1       2.615   5.518  19.798  0.00  0.00    +0.000 NA
ATOM      5  C   UNL     1       3.017   4.785  18.749  0.00  0.00    +0.000 A 
ATOM      6  C   UNL     1       2.499   3.569  18.338  0.00  0.00    +0.000 A 
ATOM      7  N   UNL     1       3.164   3.111  17.217  0.00  0.00    +0.000 NA
ATOM      8  C   UNL     1       4.064   4.035  16.956  0.00  0.00    +0.000 A 
ATOM      9  N   UNL     1       4.016   5.071  17.856  0.00  0.00    +0.000 N 
ENDROOT
BRANCH   1  10
ATOM     10  N   UNL     1       0.819   1.855  18.812  0.00  0.00    +0.000 N 
ATOM     11  H   UNL     1       0.802   1.144  19.525  0.00  0.00    +0.000 HD
ATOM     12  H   UNL     1       0.442   1.706  17.887  0.00  0.00    +0.000 HD
ENDBRANCH   1  10
BRANCH   9  13
ATOM     13  C   UNL     1       4.882   6.231  17.820  0.00  0.00    +0.000 C 
BRANCH  13  14
ATOM     14  C   UNL     1       5.477   6.576  16.455  0.00  0.00    +0.000 C 
BRANCH  14  15
ATOM     15  O   UNL     1       6.899   6.526  16.528  0.00  0.00    +0.000 OA
BRANCH  15  16
ATOM     16  N   UNL     1       7.415   5.335  15.950  0.00  0.00    +0.000 N 
ATOM     17  O   UNL     1       7.803   4.454  16.715  0.00  0.00    +0.000 OA
ATOM     18  O   UNL     1       7.397   5.363  14.721  0.00  0.00    +0.000 OA
ENDBRANCH  15  16
ENDBRANCH  14  15
ENDBRANCH  13  14
ENDBRANCH   9  13
TORSDOF 5
ENDMDL
MODEL 9
REMARK VINA RESULT:      -5.8      1.783      2.269
REMARK  Name = 
REMARK  5 active torsions:
REMARK  status: ('A' for Active; 'I' for Inactive)
REMARK    1  A    between atoms: N_1  and  C_2
REMARK    2  A    between atoms: N_10  and  C_11
REMARK    3  A    between atoms: C_11  and  C_12
REMARK    4  A    between atoms: C_12  and  O_13
REMARK    5  A    between atoms: O_13  and  N_14
REMARK                            x       y       z     vdW  Elec       q    Type
REMARK                         _______ _______ _______ _____ _____    ______ ____
ROOT
ATOM      1  C   UNL     1       6.599   6.410  16.783  0.00  0.00    +0.000 A 
ATOM      2  N   UNL     1       7.327   5.624  15.958  0.00  0.00    +0.000 NA
ATOM      3  C   UNL     1       6.810   4.437  15.582  0.00  0.00    +0.000 A 
ATOM      4  N   UNL     1       5.624   3.902  15.927  0.00  0.00    +0.000 NA
ATOM      5  C   UNL     1       4.939   4.714  16.747  0.00  0.00    +0.000 A 
ATOM      6  C   UNL     1       5.341   5.954  17.214  0.00  0.00    +0.000 A 
ATOM      7  N   UNL     1       4.376   6.500  18.037  0.00  0.00    +0.000 NA
ATOM      8  C   UNL     1       3.410   5.606  18.065  0.00  0.00    +0.000 A 
ATOM      9  N   UNL     1       3.703   4.506  17.298  0.00  0.00    +0.000 N 
ENDROOT
BRANCH   1  10
ATOM     10  N   UNL     1       7.130   7.623  17.156  0.00  0.00    +0.000 N 
ATOM     11  H   UNL     1       6.753   8.456  16.735  0.00  0.00    +0.000 HD
ATOM     12  H   UNL     1       7.909   7.643  17.798  0.00  0.00    +0.000 HD
ENDBRANCH   1  10
BRANCH   9  13
ATOM     13  C   UNL     1       2.829   3.364  17.134  0.00  0.00    +0.000 C 
BRANCH  13  14
ATOM     14  C   UNL     1       2.144   2.860  18.404  0.00  0.00    +0.000 C 
BRANCH  14  15
ATOM     15  O   UNL     1       2.963   1.876  19.029  0.00  0.00    +0.000 OA
BRANCH  15  16
ATOM     16  N   UNL     1       3.707   2.418  20.111  0.00  0.00    +0.000 N 
ATOM     17  O   UNL     1       4.900   2.649  19.920  0.00  0.00    +0.000 OA
ATOM     18  O   UNL     1       3.021   2.584  21.118  0.00  0.00    +0.000 OA
ENDBRANCH  15  16
ENDBRANCH  14  15
ENDBRANCH  13  14
ENDBRANCH   9  13
TORSDOF 5
ENDMDL
