MODEL 1
REMARK VINA RESULT:      -8.1      0.000      0.000
REMARK  Name = 
REMARK  5 active torsions:
REMARK  status: ('A' for Active; 'I' for Inactive)
REMARK    1  A    between atoms: C_1  and  C_2
REMARK    2  A    between atoms: C_2  and  O_4
REMARK    3  A    between atoms: O_4  and  C_5
REMARK    4  A    between atoms: C_18  and  C_19
REMARK    5  A    between atoms: C_18  and  C_20
REMARK                            x       y       z     vdW  Elec       q    Type
REMARK                         _______ _______ _______ _____ _____    ______ ____
ROOT
ATOM      1  C   UNL     1       2.901   5.293  20.108  0.00  0.00    +0.000 A 
ATOM      2  C   UNL     1       3.887   4.551  19.450  0.00  0.00    +0.000 A 
ATOM      3  C   UNL     1       4.485   5.045  18.296  0.00  0.00    +0.000 A 
ATOM      4  C   UNL     1       4.132   6.297  17.795  0.00  0.00    +0.000 A 
ATOM      5  C   UNL     1       3.155   7.037  18.478  0.00  0.00    +0.000 A 
ATOM      6  O   UNL     1       2.818   8.315  17.960  0.00  0.00    +0.000 OA
ATOM      7  C   UNL     1       1.874   9.134  18.555  0.00  0.00    +0.000 A 
ATOM      8  O   UNL     1       1.579  10.234  18.107  0.00  0.00    +0.000 OA
ATOM      9  C   UNL     1       1.238   8.612  19.773  0.00  0.00    +0.000 A 
ATOM     10  C   UNL     1       1.540   7.416  20.288  0.00  0.00    +0.000 A 
ATOM     11  C   UNL     1       2.529   6.561  19.638  0.00  0.00    +0.000 A 
ATOM     12  C   UNL     1       4.804   6.793  16.602  0.00  0.00    +0.000 C 
ATOM     13  C   UNL     1       5.701   6.000  16.008  0.00  0.00    +0.000 C 
ATOM     14  C   UNL     1       6.050   4.619  16.509  0.00  0.00    +0.000 C 
ATOM     15  C   UNL     1       5.623   3.581  15.467  0.00  0.00    +0.000 C 
ATOM     16  C   UNL     1       7.558   4.539  16.769  0.00  0.00    +0.000 C 
ATOM     17  O   UNL     1       5.428   4.228  17.747  0.00  0.00    +0.000 OA
ENDROOT
BRANCH   1  18
ATOM     18  O   UNL     1       2.395   4.821  21.338  0.00  0.00    +0.000 OA
BRANCH  18  20
ATOM     19  C   UNL     1       0.887   3.214  20.498  0.00  0.00    +0.000 C 
ATOM     20  C   UNL     1       2.055   3.467  21.403  0.00  0.00    +0.000 C 
ATOM     21  O   UNL     1       2.579   2.619  22.109  0.00  0.00    +0.000 OA
ENDBRANCH  18  20
ENDBRANCH   1  18
TORSDOF 2
ENDMDL
MODEL 2
REMARK VINA RESULT:      -8.0      2.894      5.953
REMARK  Name = 
REMARK  5 active torsions:
REMARK  status: ('A' for Active; 'I' for Inactive)
REMARK    1  A    between atoms: C_1  and  C_2
REMARK    2  A    between atoms: C_2  and  O_4
REMARK    3  A    between atoms: O_4  and  C_5
REMARK    4  A    between atoms: C_18  and  C_19
REMARK    5  A    between atoms: C_18  and  C_20
REMARK                            x       y       z     vdW  Elec       q    Type
REMARK                         _______ _______ _______ _____ _____    ______ ____
ROOT
ATOM      1  C   UNL     1       6.479   4.516  18.141  0.00  0.00    +0.000 A 
ATOM      2  C   UNL     1       5.508   4.316  19.127  0.00  0.00    +0.000 A 
ATOM      3  C   UNL     1       4.197   4.020  18.772  0.00  0.00    +0.000 A 
ATOM      4  C   UNL     1       3.837   3.889  17.432  0.00  0.00    +0.000 A 
ATOM      5  C   UNL     1       4.828   4.074  16.455  0.00  0.00    +0.000 A 
ATOM      6  O   UNL     1       4.446   3.925  15.096  0.00  0.00    +0.000 OA
ATOM      7  C   UNL     1       5.340   4.077  14.050  0.00  0.00    +0.000 A 
ATOM      8  O   UNL     1       5.011   3.953  12.878  0.00  0.00    +0.000 OA
ATOM      9  C   UNL     1       6.726   4.394  14.423  0.00  0.00    +0.000 A 
ATOM     10  C   UNL     1       7.117   4.534  15.694  0.00  0.00    +0.000 A 
ATOM     11  C   UNL     1       6.155   4.382  16.783  0.00  0.00    +0.000 A 
ATOM     12  C   UNL     1       2.461   3.546  17.101  0.00  0.00    +0.000 C 
ATOM     13  C   UNL     1       1.585   3.419  18.103  0.00  0.00    +0.000 C 
ATOM     14  C   UNL     1       1.951   3.614  19.556  0.00  0.00    +0.000 C 
ATOM     15  C   UNL     1       1.196   4.827  20.107  0.00  0.00    +0.000 C 
ATOM     16  C   UNL     1       1.595   2.349  20.343  0.00  0.00    +0.000 C 
ATOM     17  O   UNL     1       3.345   3.851  19.823  0.00  0.00    +0.000 OA
ENDROOT
BRANCH   1  18
ATOM     18  O   UNL     1       7.823   4.701  18.530  0.00  0.00    +0.000 OA
BRANCH  18  20
ATOM     19  C   UNL     1       8.175   7.020  18.774  0.00  0.00    +0.000 C 
ATOM     20  C   UNL     1       8.076   5.698  19.475  0.00  0.00    +0.000 C 
ATOM     21  O   UNL     1       8.238   5.539  20.675  0.00  0.00    +0.000 OA
ENDBRANCH  18  20
ENDBRANCH   1  18
TORSDOF 2
ENDMDL
MODEL 3
REMARK VINA RESULT:      -7.6      1.646      5.115
REMARK  Name = 
REMARK  5 active torsions:
REMARK  status: ('A' for Active; 'I' for Inactive)
REMARK    1  A    between atoms: C_1  and  C_2
REMARK    2  A    between atoms: C_2  and  O_4
REMARK    3  A    between atoms: O_4  and  C_5
REMARK    4  A    between atoms: C_18  and  C_19
REMARK    5  A    between atoms: C_18  and  C_20
REMARK                            x       y       z     vdW  Elec       q    Type
REMARK                         _______ _______ _______ _____ _____    ______ ____
ROOT
ATOM      1  C   UNL     1       2.705   5.639  19.984  0.00  0.00    +0.000 A 
ATOM      2  C   UNL     1       1.825   6.625  20.441  0.00  0.00    +0.000 A 
ATOM      3  C   UNL     1       1.688   7.821  19.746  0.00  0.00    +0.000 A 
ATOM      4  C   UNL     1       2.403   8.045  18.570  0.00  0.00    +0.000 A 
ATOM      5  C   UNL     1       3.268   7.037  18.115  0.00  0.00    +0.000 A 
ATOM      6  O   UNL     1       3.977   7.276  16.910  0.00  0.00    +0.000 OA
ATOM      7  C   UNL     1       4.851   6.351  16.364  0.00  0.00    +0.000 A 
ATOM      8  O   UNL     1       5.468   6.558  15.327  0.00  0.00    +0.000 OA
ATOM      9  C   UNL     1       5.000   5.087  17.100  0.00  0.00    +0.000 A 
ATOM     10  C   UNL     1       4.339   4.830  18.233  0.00  0.00    +0.000 A 
ATOM     11  C   UNL     1       3.432   5.825  18.800  0.00  0.00    +0.000 A 
ATOM     12  C   UNL     1       2.209   9.297  17.853  0.00  0.00    +0.000 C 
ATOM     13  C   UNL     1       1.384  10.205  18.384  0.00  0.00    +0.000 C 
ATOM     14  C   UNL     1       0.648   9.999  19.686  0.00  0.00    +0.000 C 
ATOM     15  C   UNL     1       1.147  11.017  20.715  0.00  0.00    +0.000 C 
ATOM     16  C   UNL     1      -0.857  10.159  19.449  0.00  0.00    +0.000 C 
ATOM     17  O   UNL     1       0.803   8.703  20.293  0.00  0.00    +0.000 OA
ENDROOT
BRANCH   1  18
ATOM     18  O   UNL     1       2.738   4.392  20.644  0.00  0.00    +0.000 OA
BRANCH  18  20
ATOM     19  C   UNL     1       1.477   2.698  21.694  0.00  0.00    +0.000 C 
ATOM     20  C   UNL     1       1.629   3.559  20.475  0.00  0.00    +0.000 C 
ATOM     21  O   UNL     1       0.913   3.491  19.489  0.00  0.00    +0.000 OA
ENDBRANCH  18  20
ENDBRANCH   1  18
TORSDOF 2
ENDMDL
MODEL 4
REMARK VINA RESULT:      -7.6      1.253      1.418
REMARK  Name = 
REMARK  5 active torsions:
REMARK  status: ('A' for Active; 'I' for Inactive)
REMARK    1  A    between atoms: C_1  and  C_2
REMARK    2  A    between atoms: C_2  and  O_4
REMARK    3  A    between atoms: O_4  and  C_5
REMARK    4  A    between atoms: C_18  and  C_19
REMARK    5  A    between atoms: C_18  and  C_20
REMARK                            x       y       z     vdW  Elec       q    Type
REMARK                         _______ _______ _______ _____ _____    ______ ____
ROOT
ATOM      1  C   UNL     1       3.415   4.082  19.457  0.00  0.00    +0.000 A 
ATOM      2  C   UNL     1       4.309   3.688  18.457  0.00  0.00    +0.000 A 
ATOM      3  C   UNL     1       4.669   4.575  17.448  0.00  0.00    +0.000 A 
ATOM      4  C   UNL     1       4.169   5.876  17.435  0.00  0.00    +0.000 A 
ATOM      5  C   UNL     1       3.288   6.261  18.458  0.00  0.00    +0.000 A 
ATOM      6  O   UNL     1       2.798   7.593  18.435  0.00  0.00    +0.000 OA
ATOM      7  C   UNL     1       1.930   8.083  19.396  0.00  0.00    +0.000 A 
ATOM      8  O   UNL     1       1.503   9.230  19.375  0.00  0.00    +0.000 OA
ATOM      9  C   UNL     1       1.545   7.146  20.461  0.00  0.00    +0.000 A 
ATOM     10  C   UNL     1       1.995   5.888  20.512  0.00  0.00    +0.000 A 
ATOM     11  C   UNL     1       2.900   5.386  19.482  0.00  0.00    +0.000 A 
ATOM     12  C   UNL     1       4.595   6.785  16.380  0.00  0.00    +0.000 C 
ATOM     13  C   UNL     1       5.415   6.315  15.436  0.00  0.00    +0.000 C 
ATOM     14  C   UNL     1       5.919   4.891  15.408  0.00  0.00    +0.000 C 
ATOM     15  C   UNL     1       5.373   4.187  14.162  0.00  0.00    +0.000 C 
ATOM     16  C   UNL     1       7.451   4.895  15.401  0.00  0.00    +0.000 C 
ATOM     17  O   UNL     1       5.544   4.073  16.531  0.00  0.00    +0.000 OA
ENDROOT
BRANCH   1  18
ATOM     18  O   UNL     1       3.157   3.202  20.530  0.00  0.00    +0.000 OA
BRANCH  18  20
ATOM     19  C   UNL     1       1.318   2.485  21.820  0.00  0.00    +0.000 C 
ATOM     20  C   UNL     1       1.972   2.464  20.471  0.00  0.00    +0.000 C 
ATOM     21  O   UNL     1       1.541   1.855  19.504  0.00  0.00    +0.000 OA
ENDBRANCH  18  20
ENDBRANCH   1  18
TORSDOF 2
ENDMDL
MODEL 5
REMARK VINA RESULT:      -7.5      1.462      5.464
REMARK  Name = 
REMARK  5 active torsions:
REMARK  status: ('A' for Active; 'I' for Inactive)
REMARK    1  A    between atoms: C_1  and  C_2
REMARK    2  A    between atoms: C_2  and  O_4
REMARK    3  A    between atoms: O_4  and  C_5
REMARK    4  A    between atoms: C_18  and  C_19
REMARK    5  A    between atoms: C_18  and  C_20
REMARK                            x       y       z     vdW  Elec       q    Type
REMARK                         _______ _______ _______ _____ _____    ______ ____
ROOT
ATOM      1  C   UNL     1       3.305   6.837  18.067  0.00  0.00    +0.000 A 
ATOM      2  C   UNL     1       2.324   6.075  18.708  0.00  0.00    +0.000 A 
ATOM      3  C   UNL     1       2.555   4.735  19.000  0.00  0.00    +0.000 A 
ATOM      4  C   UNL     1       3.775   4.140  18.684  0.00  0.00    +0.000 A 
ATOM      5  C   UNL     1       4.756   4.925  18.058  0.00  0.00    +0.000 A 
ATOM      6  O   UNL     1       5.997   4.306  17.756  0.00  0.00    +0.000 OA
ATOM      7  C   UNL     1       7.039   4.984  17.146  0.00  0.00    +0.000 A 
ATOM      8  O   UNL     1       8.107   4.450  16.880  0.00  0.00    +0.000 OA
ATOM      9  C   UNL     1       6.796   6.400  16.833  0.00  0.00    +0.000 A 
ATOM     10  C   UNL     1       5.640   7.012  17.112  0.00  0.00    +0.000 A 
ATOM     11  C   UNL     1       4.549   6.275  17.744  0.00  0.00    +0.000 A 
ATOM     12  C   UNL     1       3.990   2.743  19.034  0.00  0.00    +0.000 C 
ATOM     13  C   UNL     1       2.983   2.074  19.603  0.00  0.00    +0.000 C 
ATOM     14  C   UNL     1       1.637   2.692  19.898  0.00  0.00    +0.000 C 
ATOM     15  C   UNL     1       0.567   1.999  19.050  0.00  0.00    +0.000 C 
ATOM     16  C   UNL     1       1.327   2.543  21.391  0.00  0.00    +0.000 C 
ATOM     17  O   UNL     1       1.521   4.100  19.622  0.00  0.00    +0.000 OA
ENDROOT
BRANCH   1  18
ATOM     18  O   UNL     1       3.089   8.220  17.887  0.00  0.00    +0.000 OA
BRANCH  18  20
ATOM     19  C   UNL     1       1.088   9.433  17.597  0.00  0.00    +0.000 C 
ATOM     20  C   UNL     1       2.017   8.788  18.581  0.00  0.00    +0.000 C 
ATOM     21  O   UNL     1       1.863   8.808  19.792  0.00  0.00    +0.000 OA
ENDBRANCH  18  20
ENDBRANCH   1  18
TORSDOF 2
ENDMDL
MODEL 6
REMARK VINA RESULT:      -7.5      2.697      6.265
REMARK  Name = 
REMARK  5 active torsions:
REMARK  status: ('A' for Active; 'I' for Inactive)
REMARK    1  A    between atoms: C_1  and  C_2
REMARK    2  A    between atoms: C_2  and  O_4
REMARK    3  A    between atoms: O_4  and  C_5
REMARK    4  A    between atoms: C_18  and  C_19
REMARK    5  A    between atoms: C_18  and  C_20
REMARK                            x       y       z     vdW  Elec       q    Type
REMARK                         _______ _______ _______ _____ _____    ______ ____
ROOT
ATOM      1  C   UNL     1       6.629   5.807  17.874  0.00  0.00    +0.000 A 
ATOM      2  C   UNL     1       5.767   5.541  18.942  0.00  0.00    +0.000 A 
ATOM      3  C   UNL     1       4.652   4.730  18.760  0.00  0.00    +0.000 A 
ATOM      4  C   UNL     1       4.393   4.148  17.520  0.00  0.00    +0.000 A 
ATOM      5  C   UNL     1       5.279   4.410  16.463  0.00  0.00    +0.000 A 
ATOM      6  O   UNL     1       5.007   3.798  15.212  0.00  0.00    +0.000 OA
ATOM      7  C   UNL     1       5.815   3.980  14.103  0.00  0.00    +0.000 A 
ATOM      8  O   UNL     1       5.579   3.458  13.021  0.00  0.00    +0.000 OA
ATOM      9  C   UNL     1       6.993   4.840  14.292  0.00  0.00    +0.000 A 
ATOM     10  C   UNL     1       7.279   5.423  15.461  0.00  0.00    +0.000 A 
ATOM     11  C   UNL     1       6.406   5.230  16.616  0.00  0.00    +0.000 A 
ATOM     12  C   UNL     1       3.233   3.279  17.377  0.00  0.00    +0.000 C 
ATOM     13  C   UNL     1       2.434   3.115  18.436  0.00  0.00    +0.000 C 
ATOM     14  C   UNL     1       2.673   3.786  19.768  0.00  0.00    +0.000 C 
ATOM     15  C   UNL     1       1.527   4.760  20.054  0.00  0.00    +0.000 C 
ATOM     16  C   UNL     1       2.765   2.719  20.863  0.00  0.00    +0.000 C 
ATOM     17  O   UNL     1       3.888   4.549  19.875  0.00  0.00    +0.000 OA
ENDROOT
BRANCH   1  18
ATOM     18  O   UNL     1       7.812   6.537  18.115  0.00  0.00    +0.000 OA
BRANCH  18  20
ATOM     19  C   UNL     1       8.729   8.610  18.764  0.00  0.00    +0.000 C 
ATOM     20  C   UNL     1       7.775   7.907  17.845  0.00  0.00    +0.000 C 
ATOM     21  O   UNL     1       7.060   8.470  17.032  0.00  0.00    +0.000 OA
ENDBRANCH  18  20
ENDBRANCH   1  18
TORSDOF 2
ENDMDL
MODEL 7
REMARK VINA RESULT:      -7.4      1.518      6.140
REMARK  Name = 
REMARK  5 active torsions:
REMARK  status: ('A' for Active; 'I' for Inactive)
REMARK    1  A    between atoms: C_1  and  C_2
REMARK    2  A    between atoms: C_2  and  O_4
REMARK    3  A    between atoms: O_4  and  C_5
REMARK    4  A    between atoms: C_18  and  C_19
REMARK    5  A    between atoms: C_18  and  C_20
REMARK                            x       y       z     vdW  Elec       q    Type
REMARK                         _______ _______ _______ _____ _____    ______ ____
ROOT
ATOM      1  C   UNL     1       3.400   6.095  17.833  0.00  0.00    +0.000 A 
ATOM      2  C   UNL     1       2.947   7.414  17.746  0.00  0.00    +0.000 A 
ATOM      3  C   UNL     1       2.168   7.958  18.762  0.00  0.00    +0.000 A 
ATOM      4  C   UNL     1       1.851   7.206  19.893  0.00  0.00    +0.000 A 
ATOM      5  C   UNL     1       2.330   5.890  19.972  0.00  0.00    +0.000 A 
ATOM      6  O   UNL     1       2.008   5.144  21.136  0.00  0.00    +0.000 OA
ATOM      7  C   UNL     1       2.432   3.840  21.326  0.00  0.00    +0.000 A 
ATOM      8  O   UNL     1       2.151   3.194  22.327  0.00  0.00    +0.000 OA
ATOM      9  C   UNL     1       3.253   3.262  20.251  0.00  0.00    +0.000 A 
ATOM     10  C   UNL     1       3.578   3.942  19.147  0.00  0.00    +0.000 A 
ATOM     11  C   UNL     1       3.110   5.313  18.960  0.00  0.00    +0.000 A 
ATOM     12  C   UNL     1       1.060   7.821  20.949  0.00  0.00    +0.000 C 
ATOM     13  C   UNL     1       0.627   9.073  20.765  0.00  0.00    +0.000 C 
ATOM     14  C   UNL     1       0.916   9.877  19.520  0.00  0.00    +0.000 C 
ATOM     15  C   UNL     1      -0.399  10.162  18.787  0.00  0.00    +0.000 C 
ATOM     16  C   UNL     1       1.613  11.183  19.911  0.00  0.00    +0.000 C 
ATOM     17  O   UNL     1       1.786   9.251  18.560  0.00  0.00    +0.000 OA
ENDROOT
BRANCH   1  18
ATOM     18  O   UNL     1       4.282   5.607  16.845  0.00  0.00    +0.000 OA
BRANCH  18  20
ATOM     19  C   UNL     1       6.294   6.706  17.398  0.00  0.00    +0.000 C 
ATOM     20  C   UNL     1       5.237   6.501  16.355  0.00  0.00    +0.000 C 
ATOM     21  O   UNL     1       5.214   7.070  15.275  0.00  0.00    +0.000 OA
ENDBRANCH  18  20
ENDBRANCH   1  18
TORSDOF 2
ENDMDL
MODEL 8
REMARK VINA RESULT:      -7.1      1.481      1.792
REMARK  Name = 
REMARK  5 active torsions:
REMARK  status: ('A' for Active; 'I' for Inactive)
REMARK    1  A    between atoms: C_1  and  C_2
REMARK    2  A    between atoms: C_2  and  O_4
REMARK    3  A    between atoms: O_4  and  C_5
REMARK    4  A    between atoms: C_18  and  C_19
REMARK    5  A    between atoms: C_18  and  C_20
REMARK                            x       y       z     vdW  Elec       q    Type
REMARK                         _______ _______ _______ _____ _____    ______ ____
ROOT
ATOM      1  C   UNL     1       2.840   3.591  19.020  0.00  0.00    +0.000 A 
ATOM      2  C   UNL     1       3.738   3.279  17.995  0.00  0.00    +0.000 A 
ATOM      3  C   UNL     1       4.290   4.289  17.213  0.00  0.00    +0.000 A 
ATOM      4  C   UNL     1       3.979   5.625  17.458  0.00  0.00    +0.000 A 
ATOM      5  C   UNL     1       3.091   5.922  18.504  0.00  0.00    +0.000 A 
ATOM      6  O   UNL     1       2.796   7.289  18.746  0.00  0.00    +0.000 OA
ATOM      7  C   UNL     1       1.940   7.698  19.754  0.00  0.00    +0.000 A 
ATOM      8  O   UNL     1       1.681   8.876  19.962  0.00  0.00    +0.000 OA
ATOM      9  C   UNL     1       1.353   6.632  20.579  0.00  0.00    +0.000 A 
ATOM     10  C   UNL     1       1.618   5.337  20.379  0.00  0.00    +0.000 A 
ATOM     11  C   UNL     1       2.513   4.925  19.302  0.00  0.00    +0.000 A 
ATOM     12  C   UNL     1       4.602   6.655  16.638  0.00  0.00    +0.000 C 
ATOM     13  C   UNL     1       5.412   6.269  15.649  0.00  0.00    +0.000 C 
ATOM     14  C   UNL     1       5.712   4.822  15.337  0.00  0.00    +0.000 C 
ATOM     15  C   UNL     1       5.161   4.479  13.950  0.00  0.00    +0.000 C 
ATOM     16  C   UNL     1       7.226   4.594  15.392  0.00  0.00    +0.000 C 
ATOM     17  O   UNL     1       5.148   3.858  16.245  0.00  0.00    +0.000 OA
ENDROOT
BRANCH   1  18
ATOM     18  O   UNL     1       2.387   2.559  19.870  0.00  0.00    +0.000 OA
BRANCH  18  20
ATOM     19  C   UNL     1       4.464   1.919  20.783  0.00  0.00    +0.000 C 
ATOM     20  C   UNL     1       3.070   2.387  21.076  0.00  0.00    +0.000 C 
ATOM     21  O   UNL     1       2.615   2.543  22.199  0.00  0.00    +0.000 OA
ENDBRANCH  18  20
ENDBRANCH   1  18
TORSDOF 2
ENDMDL
MODEL 9
REMARK VINA RESULT:      -7.0      1.650      4.970
REMARK  Name = 
REMARK  5 active torsions:
REMARK  status: ('A' for Active; 'I' for Inactive)
REMARK    1  A    between atoms: C_1  and  C_2
REMARK    2  A    between atoms: C_2  and  O_4
REMARK    3  A    between atoms: O_4  and  C_5
REMARK    4  A    between atoms: C_18  and  C_19
REMARK    5  A    between atoms: C_18  and  C_20
REMARK                            x       y       z     vdW  Elec       q    Type
REMARK                         _______ _______ _______ _____ _____    ______ ____
ROOT
ATOM      1  C   UNL     1       3.023   4.658  19.812  0.00  0.00    +0.000 A 
ATOM      2  C   UNL     1       2.158   5.470  20.551  0.00  0.00    +0.000 A 
ATOM      3  C   UNL     1       1.926   6.785  20.163  0.00  0.00    +0.000 A 
ATOM      4  C   UNL     1       2.529   7.304  19.018  0.00  0.00    +0.000 A 
ATOM      5  C   UNL     1       3.379   6.469  18.277  0.00  0.00    +0.000 A 
ATOM      6  O   UNL     1       3.973   7.009  17.107  0.00  0.00    +0.000 OA
ATOM      7  C   UNL     1       4.823   6.276  16.296  0.00  0.00    +0.000 A 
ATOM      8  O   UNL     1       5.340   6.743  15.290  0.00  0.00    +0.000 OA
ATOM      9  C   UNL     1       5.072   4.886  16.707  0.00  0.00    +0.000 A 
ATOM     10  C   UNL     1       4.521   4.347  17.799  0.00  0.00    +0.000 A 
ATOM     11  C   UNL     1       3.638   5.142  18.649  0.00  0.00    +0.000 A 
ATOM     12  C   UNL     1       2.236   8.675  18.626  0.00  0.00    +0.000 C 
ATOM     13  C   UNL     1       1.434   9.398  19.415  0.00  0.00    +0.000 C 
ATOM     14  C   UNL     1       0.821   8.866  20.688  0.00  0.00    +0.000 C 
ATOM     15  C   UNL     1       1.379   9.647  21.882  0.00  0.00    +0.000 C 
ATOM     16  C   UNL     1      -0.702   9.003  20.613  0.00  0.00    +0.000 C 
ATOM     17  O   UNL     1       1.066   7.475  20.966  0.00  0.00    +0.000 OA
ENDROOT
BRANCH   1  18
ATOM     18  O   UNL     1       3.150   3.296  20.162  0.00  0.00    +0.000 OA
BRANCH  18  20
ATOM     19  C   UNL     1       1.331   2.216  19.120  0.00  0.00    +0.000 C 
ATOM     20  C   UNL     1       1.968   2.598  20.423  0.00  0.00    +0.000 C 
ATOM     21  O   UNL     1       1.489   2.364  21.521  0.00  0.00    +0.000 OA
ENDBRANCH  18  20
ENDBRANCH   1  18
TORSDOF 2
ENDMDL
