MODEL 1
REMARK VINA RESULT:      -9.0      0.000      0.000
REMARK  Name = 
REMARK  8 active torsions:
REMARK  status: ('A' for Active; 'I' for Inactive)
REMARK    1  A    between atoms: C_1  and  C_2
REMARK    2  A    between atoms: N_4  and  C_5
REMARK    3  A    between atoms: C_9  and  O_10
REMARK    4  A    between atoms: O_10  and  C_11
REMARK    5  A    between atoms: C_11  and  C_12
REMARK    6  A    between atoms: C_16  and  N_17
REMARK    7  A    between atoms: C_24  and  C_25
REMARK    8  A    between atoms: C_24  and  C_26
REMARK                            x       y       z     vdW  Elec       q    Type
REMARK                         _______ _______ _______ _____ _____    ______ ____
ROOT
ATOM      1  C   UNL     1       1.535   8.437  19.863  0.00  0.00    +0.000 A 
ATOM      2  C   UNL     1       1.671   9.039  18.613  0.00  0.00    +0.000 A 
ATOM      3  C   UNL     1       2.368   8.379  17.614  0.00  0.00    +0.000 A 
ATOM      4  C   UNL     1       2.910   7.110  17.861  0.00  0.00    +0.000 A 
ATOM      5  C   UNL     1       2.904   6.516  19.134  0.00  0.00    +0.000 A 
ATOM      6  C   UNL     1       2.238   7.246  20.137  0.00  0.00    +0.000 A 
ENDROOT
BRANCH   5   7
ATOM      7  N   UNL     1       3.423   5.209  19.358  0.00  0.00    +0.000 N 
ATOM      8  C   UNL     1       4.751   4.852  19.215  0.00  0.00    +0.000 C 
ATOM      9  N   UNL     1       5.682   5.813  18.963  0.00  0.00    +0.000 N 
ATOM     10  N   UNL     1       5.237   3.657  19.339  0.00  0.00    +0.000 NA
ATOM     11  C   UNL     1       4.395   2.666  19.700  0.00  0.00    +0.000 C 
ATOM     12  N   UNL     1       4.968   1.497  20.071  0.00  0.00    +0.000 N 
ATOM     13  N   UNL     1       3.119   2.751  19.697  0.00  0.00    +0.000 NA
ATOM     14  C   UNL     1       2.506   4.033  19.324  0.00  0.00    +0.000 C 
ATOM     15  C   UNL     1       1.958   3.837  17.896  0.00  0.00    +0.000 C 
ATOM     16  C   UNL     1       1.317   4.115  20.299  0.00  0.00    +0.000 C 
ATOM     17  H   UNL     1       5.556   6.650  19.518  0.00  0.00    +0.000 HD
ATOM     18  H   UNL     1       6.617   5.433  19.056  0.00  0.00    +0.000 HD
ATOM     19  H   UNL     1       5.877   1.359  19.652  0.00  0.00    +0.000 HD
ATOM     20  H   UNL     1       4.335   0.714  19.991  0.00  0.00    +0.000 HD
ENDBRANCH   5   7
BRANCH   1  21
ATOM     21  C   UNL     1       0.534   8.974  20.855  0.00  0.00    +0.000 C 
BRANCH  21  22
ATOM     22  O   UNL     1       0.820  10.313  21.222  0.00  0.00    +0.000 OA
BRANCH  22  27
ATOM     23  C   UNL     1      -1.402  12.270  18.943  0.00  0.00    +0.000 A 
ATOM     24  C   UNL     1      -0.540  13.341  18.710  0.00  0.00    +0.000 A 
ATOM     25  C   UNL     1       0.716  13.386  19.309  0.00  0.00    +0.000 A 
ATOM     26  C   UNL     1       1.133  12.350  20.144  0.00  0.00    +0.000 A 
ATOM     27  C   UNL     1       0.284  11.275  20.400  0.00  0.00    +0.000 A 
ATOM     28  C   UNL     1      -0.992  11.252  19.815  0.00  0.00    +0.000 A 
BRANCH  23  32
ATOM     29  C   UNL     1      -4.446  11.542  16.836  0.00  0.00    +0.000 C 
ATOM     30  C   UNL     1      -3.014  11.364  17.265  0.00  0.00    +0.000 C 
ATOM     31  O   UNL     1      -2.274  10.585  16.672  0.00  0.00    +0.000 OA
ATOM     32  N   UNL     1      -2.682  12.155  18.352  0.00  0.00    +0.000 N 
ATOM     33  H   UNL     1      -3.443  12.629  18.823  0.00  0.00    +0.000 HD
ENDBRANCH  23  32
ENDBRANCH  22  27
ENDBRANCH  21  22
ENDBRANCH   1  21
TORSDOF 5
ENDMDL
MODEL 2
REMARK VINA RESULT:      -9.0      5.031      7.131
REMARK  Name = 
REMARK  8 active torsions:
REMARK  status: ('A' for Active; 'I' for Inactive)
REMARK    1  A    between atoms: C_1  and  C_2
REMARK    2  A    between atoms: N_4  and  C_5
REMARK    3  A    between atoms: C_9  and  O_10
REMARK    4  A    between atoms: O_10  and  C_11
REMARK    5  A    between atoms: C_11  and  C_12
REMARK    6  A    between atoms: C_16  and  N_17
REMARK    7  A    between atoms: C_24  and  C_25
REMARK    8  A    between atoms: C_24  and  C_26
REMARK                            x       y       z     vdW  Elec       q    Type
REMARK                         _______ _______ _______ _____ _____    ______ ____
ROOT
ATOM      1  C   UNL     1       6.889   6.180  17.628  0.00  0.00    +0.000 A 
ATOM      2  C   UNL     1       6.688   5.908  16.275  0.00  0.00    +0.000 A 
ATOM      3  C   UNL     1       5.607   5.130  15.893  0.00  0.00    +0.000 A 
ATOM      4  C   UNL     1       4.718   4.643  16.861  0.00  0.00    +0.000 A 
ATOM      5  C   UNL     1       4.944   4.787  18.239  0.00  0.00    +0.000 A 
ATOM      6  C   UNL     1       6.085   5.533  18.590  0.00  0.00    +0.000 A 
ENDROOT
BRANCH   5   7
ATOM      7  N   UNL     1       4.010   4.321  19.209  0.00  0.00    +0.000 N 
ATOM      8  C   UNL     1       4.066   3.086  19.828  0.00  0.00    +0.000 C 
ATOM      9  N   UNL     1       5.140   2.276  19.616  0.00  0.00    +0.000 N 
ATOM     10  N   UNL     1       3.191   2.608  20.655  0.00  0.00    +0.000 NA
ATOM     11  C   UNL     1       2.153   3.395  21.004  0.00  0.00    +0.000 C 
ATOM     12  N   UNL     1       1.405   2.977  22.052  0.00  0.00    +0.000 N 
ATOM     13  N   UNL     1       1.824   4.479  20.409  0.00  0.00    +0.000 NA
ATOM     14  C   UNL     1       2.657   4.944  19.293  0.00  0.00    +0.000 C 
ATOM     15  C   UNL     1       1.856   4.632  18.012  0.00  0.00    +0.000 C 
ATOM     16  C   UNL     1       2.663   6.468  19.510  0.00  0.00    +0.000 C 
ATOM     17  H   UNL     1       6.024   2.769  19.638  0.00  0.00    +0.000 HD
ATOM     18  H   UNL     1       5.126   1.495  20.262  0.00  0.00    +0.000 HD
ATOM     19  H   UNL     1       1.438   1.975  22.176  0.00  0.00    +0.000 HD
ATOM     20  H   UNL     1       0.479   3.380  22.053  0.00  0.00    +0.000 HD
ENDBRANCH   5   7
BRANCH   1  21
ATOM     21  C   UNL     1       7.853   7.262  18.046  0.00  0.00    +0.000 C 
BRANCH  21  22
ATOM     22  O   UNL     1       7.546   8.505  17.438  0.00  0.00    +0.000 OA
BRANCH  22  27
ATOM     23  C   UNL     1       8.779  11.954  18.178  0.00  0.00    +0.000 A 
ATOM     24  C   UNL     1       9.629  11.630  19.233  0.00  0.00    +0.000 A 
ATOM     25  C   UNL     1       9.758  10.313  19.665  0.00  0.00    +0.000 A 
ATOM     26  C   UNL     1       9.042   9.295  19.035  0.00  0.00    +0.000 A 
ATOM     27  C   UNL     1       8.176   9.597  17.985  0.00  0.00    +0.000 A 
ATOM     28  C   UNL     1       8.031  10.932  17.576  0.00  0.00    +0.000 A 
BRANCH  23  32
ATOM     29  C   UNL     1       7.977  15.581  17.514  0.00  0.00    +0.000 C 
ATOM     30  C   UNL     1       8.083  14.345  18.367  0.00  0.00    +0.000 C 
ATOM     31  O   UNL     1       7.717  14.359  19.538  0.00  0.00    +0.000 OA
ATOM     32  N   UNL     1       8.618  13.268  17.680  0.00  0.00    +0.000 N 
ATOM     33  H   UNL     1       9.012  13.458  16.767  0.00  0.00    +0.000 HD
ENDBRANCH  23  32
ENDBRANCH  22  27
ENDBRANCH  21  22
ENDBRANCH   1  21
TORSDOF 5
ENDMDL
MODEL 3
REMARK VINA RESULT:      -8.9      5.644      7.765
REMARK  Name = 
REMARK  8 active torsions:
REMARK  status: ('A' for Active; 'I' for Inactive)
REMARK    1  A    between atoms: C_1  and  C_2
REMARK    2  A    between atoms: N_4  and  C_5
REMARK    3  A    between atoms: C_9  and  O_10
REMARK    4  A    between atoms: O_10  and  C_11
REMARK    5  A    between atoms: C_11  and  C_12
REMARK    6  A    between atoms: C_16  and  N_17
REMARK    7  A    between atoms: C_24  and  C_25
REMARK    8  A    between atoms: C_24  and  C_26
REMARK                            x       y       z     vdW  Elec       q    Type
REMARK                         _______ _______ _______ _____ _____    ______ ____
ROOT
ATOM      1  C   UNL     1       6.851   6.449  17.699  0.00  0.00    +0.000 A 
ATOM      2  C   UNL     1       6.557   6.365  16.338  0.00  0.00    +0.000 A 
ATOM      3  C   UNL     1       5.418   5.689  15.932  0.00  0.00    +0.000 A 
ATOM      4  C   UNL     1       4.567   5.115  16.885  0.00  0.00    +0.000 A 
ATOM      5  C   UNL     1       4.881   5.068  18.253  0.00  0.00    +0.000 A 
ATOM      6  C   UNL     1       6.077   5.715  18.620  0.00  0.00    +0.000 A 
ENDROOT
BRANCH   5   7
ATOM      7  N   UNL     1       3.986   4.517  19.214  0.00  0.00    +0.000 N 
ATOM      8  C   UNL     1       4.115   3.264  19.785  0.00  0.00    +0.000 C 
ATOM      9  N   UNL     1       5.227   2.521  19.530  0.00  0.00    +0.000 N 
ATOM     10  N   UNL     1       3.277   2.709  20.602  0.00  0.00    +0.000 NA
ATOM     11  C   UNL     1       2.203   3.427  20.992  0.00  0.00    +0.000 C 
ATOM     12  N   UNL     1       1.492   2.931  22.032  0.00  0.00    +0.000 N 
ATOM     13  N   UNL     1       1.810   4.514  20.444  0.00  0.00    +0.000 NA
ATOM     14  C   UNL     1       2.604   5.064  19.337  0.00  0.00    +0.000 C 
ATOM     15  C   UNL     1       1.804   4.759  18.054  0.00  0.00    +0.000 C 
ATOM     16  C   UNL     1       2.533   6.577  19.613  0.00  0.00    +0.000 C 
ATOM     17  H   UNL     1       6.084   3.058  19.561  0.00  0.00    +0.000 HD
ATOM     18  H   UNL     1       5.262   1.716  20.145  0.00  0.00    +0.000 HD
ATOM     19  H   UNL     1       1.579   1.927  22.117  0.00  0.00    +0.000 HD
ATOM     20  H   UNL     1       0.547   3.284  22.059  0.00  0.00    +0.000 HD
ENDBRANCH   5   7
BRANCH   1  21
ATOM     21  C   UNL     1       7.890   7.428  18.188  0.00  0.00    +0.000 C 
BRANCH  21  22
ATOM     22  O   UNL     1       7.838   8.652  17.475  0.00  0.00    +0.000 OA
BRANCH  22  27
ATOM     23  C   UNL     1       9.419  11.957  18.212  0.00  0.00    +0.000 A 
ATOM     24  C   UNL     1       9.862  11.672  19.502  0.00  0.00    +0.000 A 
ATOM     25  C   UNL     1       9.621  10.429  20.079  0.00  0.00    +0.000 A 
ATOM     26  C   UNL     1       8.939   9.444  19.364  0.00  0.00    +0.000 A 
ATOM     27  C   UNL     1       8.476   9.709  18.077  0.00  0.00    +0.000 A 
ATOM     28  C   UNL     1       8.698  10.976  17.515  0.00  0.00    +0.000 A 
BRANCH  23  32
ATOM     29  C   UNL     1      10.766  15.122  16.661  0.00  0.00    +0.000 C 
ATOM     30  C   UNL     1      10.881  13.757  17.286  0.00  0.00    +0.000 C 
ATOM     31  O   UNL     1      11.981  13.256  17.499  0.00  0.00    +0.000 OA
ATOM     32  N   UNL     1       9.647  13.192  17.562  0.00  0.00    +0.000 N 
ATOM     33  H   UNL     1       8.834  13.664  17.187  0.00  0.00    +0.000 HD
ENDBRANCH  23  32
ENDBRANCH  22  27
ENDBRANCH  21  22
ENDBRANCH   1  21
TORSDOF 5
ENDMDL
MODEL 4
REMARK VINA RESULT:      -8.9      2.432      2.998
REMARK  Name = 
REMARK  8 active torsions:
REMARK  status: ('A' for Active; 'I' for Inactive)
REMARK    1  A    between atoms: C_1  and  C_2
REMARK    2  A    between atoms: N_4  and  C_5
REMARK    3  A    between atoms: C_9  and  O_10
REMARK    4  A    between atoms: O_10  and  C_11
REMARK    5  A    between atoms: C_11  and  C_12
REMARK    6  A    between atoms: C_16  and  N_17
REMARK    7  A    between atoms: C_24  and  C_25
REMARK    8  A    between atoms: C_24  and  C_26
REMARK                            x       y       z     vdW  Elec       q    Type
REMARK                         _______ _______ _______ _____ _____    ______ ____
ROOT
ATOM      1  C   UNL     1       1.466   8.492  20.278  0.00  0.00    +0.000 A 
ATOM      2  C   UNL     1       1.406   9.116  19.031  0.00  0.00    +0.000 A 
ATOM      3  C   UNL     1       1.942   8.474  17.926  0.00  0.00    +0.000 A 
ATOM      4  C   UNL     1       2.518   7.205  18.065  0.00  0.00    +0.000 A 
ATOM      5  C   UNL     1       2.710   6.590  19.313  0.00  0.00    +0.000 A 
ATOM      6  C   UNL     1       2.205   7.300  20.419  0.00  0.00    +0.000 A 
ENDROOT
BRANCH   5   7
ATOM      7  N   UNL     1       3.260   5.282  19.433  0.00  0.00    +0.000 N 
ATOM      8  C   UNL     1       4.584   4.959  19.204  0.00  0.00    +0.000 C 
ATOM      9  N   UNL     1       5.486   5.951  18.965  0.00  0.00    +0.000 N 
ATOM     10  N   UNL     1       5.094   3.768  19.232  0.00  0.00    +0.000 NA
ATOM     11  C   UNL     1       4.288   2.742  19.572  0.00  0.00    +0.000 C 
ATOM     12  N   UNL     1       4.896   1.563  19.844  0.00  0.00    +0.000 N 
ATOM     13  N   UNL     1       3.012   2.803  19.636  0.00  0.00    +0.000 NA
ATOM     14  C   UNL     1       2.361   4.092  19.371  0.00  0.00    +0.000 C 
ATOM     15  C   UNL     1       1.746   3.972  17.963  0.00  0.00    +0.000 C 
ATOM     16  C   UNL     1       1.221   4.094  20.407  0.00  0.00    +0.000 C 
ATOM     17  H   UNL     1       5.375   6.750  19.576  0.00  0.00    +0.000 HD
ATOM     18  H   UNL     1       6.431   5.583  18.990  0.00  0.00    +0.000 HD
ATOM     19  H   UNL     1       5.786   1.468  19.373  0.00  0.00    +0.000 HD
ATOM     20  H   UNL     1       4.273   0.775  19.747  0.00  0.00    +0.000 HD
ENDBRANCH   5   7
BRANCH   1  21
ATOM     21  C   UNL     1       0.628   9.008  21.421  0.00  0.00    +0.000 C 
BRANCH  21  22
ATOM     22  O   UNL     1       0.968  10.341  21.764  0.00  0.00    +0.000 OA
BRANCH  22  27
ATOM     23  C   UNL     1      -2.235  12.189  22.303  0.00  0.00    +0.000 A 
ATOM     24  C   UNL     1      -2.053  13.172  21.331  0.00  0.00    +0.000 A 
ATOM     25  C   UNL     1      -0.899  13.198  20.553  0.00  0.00    +0.000 A 
ATOM     26  C   UNL     1       0.089  12.229  20.730  0.00  0.00    +0.000 A 
ATOM     27  C   UNL     1      -0.065  11.244  21.704  0.00  0.00    +0.000 A 
ATOM     28  C   UNL     1      -1.219  11.243  22.503  0.00  0.00    +0.000 A 
BRANCH  23  32
ATOM     29  C   UNL     1      -4.976  12.491  24.879  0.00  0.00    +0.000 C 
ATOM     30  C   UNL     1      -3.715  12.920  24.177  0.00  0.00    +0.000 C 
ATOM     31  O   UNL     1      -3.089  13.905  24.558  0.00  0.00    +0.000 OA
ATOM     32  N   UNL     1      -3.391  12.096  23.113  0.00  0.00    +0.000 N 
ATOM     33  H   UNL     1      -4.088  11.418  22.830  0.00  0.00    +0.000 HD
ENDBRANCH  23  32
ENDBRANCH  22  27
ENDBRANCH  21  22
ENDBRANCH   1  21
TORSDOF 5
ENDMDL
MODEL 5
REMARK VINA RESULT:      -8.8      1.876      2.369
REMARK  Name = 
REMARK  8 active torsions:
REMARK  status: ('A' for Active; 'I' for Inactive)
REMARK    1  A    between atoms: C_1  and  C_2
REMARK    2  A    between atoms: N_4  and  C_5
REMARK    3  A    between atoms: C_9  and  O_10
REMARK    4  A    between atoms: O_10  and  C_11
REMARK    5  A    between atoms: C_11  and  C_12
REMARK    6  A    between atoms: C_16  and  N_17
REMARK    7  A    between atoms: C_24  and  C_25
REMARK    8  A    between atoms: C_24  and  C_26
REMARK                            x       y       z     vdW  Elec       q    Type
REMARK                         _______ _______ _______ _____ _____    ______ ____
ROOT
ATOM      1  C   UNL     1       1.398   8.317  20.293  0.00  0.00    +0.000 A 
ATOM      2  C   UNL     1       1.441   9.010  19.083  0.00  0.00    +0.000 A 
ATOM      3  C   UNL     1       2.076   8.434  17.994  0.00  0.00    +0.000 A 
ATOM      4  C   UNL     1       2.648   7.160  18.111  0.00  0.00    +0.000 A 
ATOM      5  C   UNL     1       2.737   6.477  19.335  0.00  0.00    +0.000 A 
ATOM      6  C   UNL     1       2.132   7.121  20.431  0.00  0.00    +0.000 A 
ENDROOT
BRANCH   5   7
ATOM      7  N   UNL     1       3.285   5.166  19.429  0.00  0.00    +0.000 N 
ATOM      8  C   UNL     1       4.623   4.857  19.266  0.00  0.00    +0.000 C 
ATOM      9  N   UNL     1       5.532   5.861  19.126  0.00  0.00    +0.000 N 
ATOM     10  N   UNL     1       5.137   3.668  19.271  0.00  0.00    +0.000 NA
ATOM     11  C   UNL     1       4.317   2.625  19.517  0.00  0.00    +0.000 C 
ATOM     12  N   UNL     1       4.914   1.436  19.771  0.00  0.00    +0.000 N 
ATOM     13  N   UNL     1       3.039   2.680  19.506  0.00  0.00    +0.000 NA
ATOM     14  C   UNL     1       2.398   3.978  19.261  0.00  0.00    +0.000 C 
ATOM     15  C   UNL     1       1.870   3.919  17.814  0.00  0.00    +0.000 C 
ATOM     16  C   UNL     1       1.198   3.931  20.225  0.00  0.00    +0.000 C 
ATOM     17  H   UNL     1       5.380   6.631  19.764  0.00  0.00    +0.000 HD
ATOM     18  H   UNL     1       6.476   5.495  19.191  0.00  0.00    +0.000 HD
ATOM     19  H   UNL     1       5.830   1.365  19.351  0.00  0.00    +0.000 HD
ATOM     20  H   UNL     1       4.301   0.652  19.602  0.00  0.00    +0.000 HD
ENDBRANCH   5   7
BRANCH   1  21
ATOM     21  C   UNL     1       0.460   8.765  21.386  0.00  0.00    +0.000 C 
BRANCH  21  22
ATOM     22  O   UNL     1       0.925   9.937  22.033  0.00  0.00    +0.000 OA
BRANCH  22  27
ATOM     23  C   UNL     1      -0.746  13.211  21.361  0.00  0.00    +0.000 A 
ATOM     24  C   UNL     1      -1.830  13.051  22.223  0.00  0.00    +0.000 A 
ATOM     25  C   UNL     1      -1.977  11.889  22.974  0.00  0.00    +0.000 A 
ATOM     26  C   UNL     1      -1.029  10.869  22.881  0.00  0.00    +0.000 A 
ATOM     27  C   UNL     1       0.056  11.001  22.017  0.00  0.00    +0.000 A 
ATOM     28  C   UNL     1       0.180  12.165  21.242  0.00  0.00    +0.000 A 
BRANCH  23  32
ATOM     29  C   UNL     1      -0.127  15.816  18.703  0.00  0.00    +0.000 C 
ATOM     30  C   UNL     1      -0.452  14.434  19.204  0.00  0.00    +0.000 C 
ATOM     31  O   UNL     1      -0.619  13.506  18.419  0.00  0.00    +0.000 OA
ATOM     32  N   UNL     1      -0.530  14.373  20.585  0.00  0.00    +0.000 N 
ATOM     33  H   UNL     1      -0.520  15.255  21.084  0.00  0.00    +0.000 HD
ENDBRANCH  23  32
ENDBRANCH  22  27
ENDBRANCH  21  22
ENDBRANCH   1  21
TORSDOF 5
ENDMDL
MODEL 6
REMARK VINA RESULT:      -8.8      1.014      1.287
REMARK  Name = 
REMARK  8 active torsions:
REMARK  status: ('A' for Active; 'I' for Inactive)
REMARK    1  A    between atoms: C_1  and  C_2
REMARK    2  A    between atoms: N_4  and  C_5
REMARK    3  A    between atoms: C_9  and  O_10
REMARK    4  A    between atoms: O_10  and  C_11
REMARK    5  A    between atoms: C_11  and  C_12
REMARK    6  A    between atoms: C_16  and  N_17
REMARK    7  A    between atoms: C_24  and  C_25
REMARK    8  A    between atoms: C_24  and  C_26
REMARK                            x       y       z     vdW  Elec       q    Type
REMARK                         _______ _______ _______ _____ _____    ______ ____
ROOT
ATOM      1  C   UNL     1       1.509   8.608  19.980  0.00  0.00    +0.000 A 
ATOM      2  C   UNL     1       1.596   9.224  18.731  0.00  0.00    +0.000 A 
ATOM      3  C   UNL     1       2.247   8.570  17.697  0.00  0.00    +0.000 A 
ATOM      4  C   UNL     1       2.792   7.296  17.908  0.00  0.00    +0.000 A 
ATOM      5  C   UNL     1       2.836   6.689  19.173  0.00  0.00    +0.000 A 
ATOM      6  C   UNL     1       2.215   7.411  20.211  0.00  0.00    +0.000 A 
ENDROOT
BRANCH   5   7
ATOM      7  N   UNL     1       3.356   5.376  19.362  0.00  0.00    +0.000 N 
ATOM      8  C   UNL     1       4.686   5.027  19.220  0.00  0.00    +0.000 C 
ATOM      9  N   UNL     1       5.616   5.998  19.005  0.00  0.00    +0.000 N 
ATOM     10  N   UNL     1       5.174   3.831  19.311  0.00  0.00    +0.000 NA
ATOM     11  C   UNL     1       4.332   2.827  19.634  0.00  0.00    +0.000 C 
ATOM     12  N   UNL     1       4.904   1.648  19.974  0.00  0.00    +0.000 N 
ATOM     13  N   UNL     1       3.056   2.909  19.622  0.00  0.00    +0.000 NA
ATOM     14  C   UNL     1       2.443   4.200  19.283  0.00  0.00    +0.000 C 
ATOM     15  C   UNL     1       1.908   4.046  17.845  0.00  0.00    +0.000 C 
ATOM     16  C   UNL     1       1.245   4.249  20.250  0.00  0.00    +0.000 C 
ATOM     17  H   UNL     1       5.483   6.817  19.585  0.00  0.00    +0.000 HD
ATOM     18  H   UNL     1       6.552   5.617  19.096  0.00  0.00    +0.000 HD
ATOM     19  H   UNL     1       5.817   1.526  19.559  0.00  0.00    +0.000 HD
ATOM     20  H   UNL     1       4.274   0.866  19.864  0.00  0.00    +0.000 HD
ENDBRANCH   5   7
BRANCH   1  21
ATOM     21  C   UNL     1       0.552   9.140  21.017  0.00  0.00    +0.000 C 
BRANCH  21  22
ATOM     22  O   UNL     1       0.611  10.553  21.115  0.00  0.00    +0.000 OA
BRANCH  22  27
ATOM     23  C   UNL     1      -2.531  12.041  19.746  0.00  0.00    +0.000 A 
ATOM     24  C   UNL     1      -2.983  12.644  20.918  0.00  0.00    +0.000 A 
ATOM     25  C   UNL     1      -2.256  12.533  22.101  0.00  0.00    +0.000 A 
ATOM     26  C   UNL     1      -1.056  11.823  22.123  0.00  0.00    +0.000 A 
ATOM     27  C   UNL     1      -0.590  11.202  20.966  0.00  0.00    +0.000 A 
ATOM     28  C   UNL     1      -1.345  11.295  19.785  0.00  0.00    +0.000 A 
BRANCH  23  32
ATOM     29  C   UNL     1      -4.225  11.522  16.414  0.00  0.00    +0.000 C 
ATOM     30  C   UNL     1      -3.596  11.071  17.706  0.00  0.00    +0.000 C 
ATOM     31  O   UNL     1      -3.469   9.877  17.958  0.00  0.00    +0.000 OA
ATOM     32  N   UNL     1      -3.212  12.131  18.509  0.00  0.00    +0.000 N 
ATOM     33  H   UNL     1      -3.524  13.054  18.230  0.00  0.00    +0.000 HD
ENDBRANCH  23  32
ENDBRANCH  22  27
ENDBRANCH  21  22
ENDBRANCH   1  21
TORSDOF 5
ENDMDL
MODEL 7
REMARK VINA RESULT:      -8.7      2.395      3.275
REMARK  Name = 
REMARK  8 active torsions:
REMARK  status: ('A' for Active; 'I' for Inactive)
REMARK    1  A    between atoms: C_1  and  C_2
REMARK    2  A    between atoms: N_4  and  C_5
REMARK    3  A    between atoms: C_9  and  O_10
REMARK    4  A    between atoms: O_10  and  C_11
REMARK    5  A    between atoms: C_11  and  C_12
REMARK    6  A    between atoms: C_16  and  N_17
REMARK    7  A    between atoms: C_24  and  C_25
REMARK    8  A    between atoms: C_24  and  C_26
REMARK                            x       y       z     vdW  Elec       q    Type
REMARK                         _______ _______ _______ _____ _____    ______ ____
ROOT
ATOM      1  C   UNL     1       1.402   8.438  20.070  0.00  0.00    +0.000 A 
ATOM      2  C   UNL     1       1.475   9.067  18.828  0.00  0.00    +0.000 A 
ATOM      3  C   UNL     1       2.135   8.437  17.786  0.00  0.00    +0.000 A 
ATOM      4  C   UNL     1       2.704   7.172  17.983  0.00  0.00    +0.000 A 
ATOM      5  C   UNL     1       2.763   6.552  19.242  0.00  0.00    +0.000 A 
ATOM      6  C   UNL     1       2.132   7.252  20.288  0.00  0.00    +0.000 A 
ENDROOT
BRANCH   5   7
ATOM      7  N   UNL     1       3.309   5.249  19.417  0.00  0.00    +0.000 N 
ATOM      8  C   UNL     1       4.642   4.922  19.245  0.00  0.00    +0.000 C 
ATOM      9  N   UNL     1       5.551   5.908  19.012  0.00  0.00    +0.000 N 
ATOM     10  N   UNL     1       5.151   3.733  19.323  0.00  0.00    +0.000 NA
ATOM     11  C   UNL     1       4.333   2.715  19.662  0.00  0.00    +0.000 C 
ATOM     12  N   UNL     1       4.932   1.545  19.986  0.00  0.00    +0.000 N 
ATOM     13  N   UNL     1       3.055   2.776  19.677  0.00  0.00    +0.000 NA
ATOM     14  C   UNL     1       2.414   4.057  19.354  0.00  0.00    +0.000 C 
ATOM     15  C   UNL     1       1.851   3.898  17.928  0.00  0.00    +0.000 C 
ATOM     16  C   UNL     1       1.237   4.085  20.347  0.00  0.00    +0.000 C 
ATOM     17  H   UNL     1       5.417   6.724  19.597  0.00  0.00    +0.000 HD
ATOM     18  H   UNL     1       6.494   5.543  19.082  0.00  0.00    +0.000 HD
ATOM     19  H   UNL     1       5.838   1.439  19.551  0.00  0.00    +0.000 HD
ATOM     20  H   UNL     1       4.313   0.753  19.888  0.00  0.00    +0.000 HD
ENDBRANCH   5   7
BRANCH   1  21
ATOM     21  C   UNL     1       0.438   8.941  21.116  0.00  0.00    +0.000 C 
BRANCH  21  22
ATOM     22  O   UNL     1       0.758  10.255  21.540  0.00  0.00    +0.000 OA
BRANCH  22  27
ATOM     23  C   UNL     1      -1.852  12.784  22.409  0.00  0.00    +0.000 A 
ATOM     24  C   UNL     1      -2.459  12.869  21.158  0.00  0.00    +0.000 A 
ATOM     25  C   UNL     1      -1.990  12.112  20.087  0.00  0.00    +0.000 A 
ATOM     26  C   UNL     1      -0.909  11.248  20.259  0.00  0.00    +0.000 A 
ATOM     27  C   UNL     1      -0.279  11.155  21.498  0.00  0.00    +0.000 A 
ATOM     28  C   UNL     1      -0.740  11.943  22.564  0.00  0.00    +0.000 A 
BRANCH  23  32
ATOM     29  C   UNL     1      -2.319  15.035  25.401  0.00  0.00    +0.000 C 
ATOM     30  C   UNL     1      -1.607  14.535  24.173  0.00  0.00    +0.000 C 
ATOM     31  O   UNL     1      -0.538  15.027  23.824  0.00  0.00    +0.000 OA
ATOM     32  N   UNL     1      -2.291  13.510  23.541  0.00  0.00    +0.000 N 
ATOM     33  H   UNL     1      -3.232  13.322  23.863  0.00  0.00    +0.000 HD
ENDBRANCH  23  32
ENDBRANCH  22  27
ENDBRANCH  21  22
ENDBRANCH   1  21
TORSDOF 5
ENDMDL
MODEL 8
REMARK VINA RESULT:      -8.7      1.104      1.104
REMARK  Name = 
REMARK  8 active torsions:
REMARK  status: ('A' for Active; 'I' for Inactive)
REMARK    1  A    between atoms: C_1  and  C_2
REMARK    2  A    between atoms: N_4  and  C_5
REMARK    3  A    between atoms: C_9  and  O_10
REMARK    4  A    between atoms: O_10  and  C_11
REMARK    5  A    between atoms: C_11  and  C_12
REMARK    6  A    between atoms: C_16  and  N_17
REMARK    7  A    between atoms: C_24  and  C_25
REMARK    8  A    between atoms: C_24  and  C_26
REMARK                            x       y       z     vdW  Elec       q    Type
REMARK                         _______ _______ _______ _____ _____    ______ ____
ROOT
ATOM      1  C   UNL     1       1.440   8.482  19.905  0.00  0.00    +0.000 A 
ATOM      2  C   UNL     1       1.599   9.111  18.670  0.00  0.00    +0.000 A 
ATOM      3  C   UNL     1       2.327   8.478  17.675  0.00  0.00    +0.000 A 
ATOM      4  C   UNL     1       2.876   7.210  17.909  0.00  0.00    +0.000 A 
ATOM      5  C   UNL     1       2.847   6.591  19.170  0.00  0.00    +0.000 A 
ATOM      6  C   UNL     1       2.149   7.293  20.171  0.00  0.00    +0.000 A 
ENDROOT
BRANCH   5   7
ATOM      7  N   UNL     1       3.374   5.285  19.381  0.00  0.00    +0.000 N 
ATOM      8  C   UNL     1       4.700   4.932  19.209  0.00  0.00    +0.000 C 
ATOM      9  N   UNL     1       5.622   5.897  18.939  0.00  0.00    +0.000 N 
ATOM     10  N   UNL     1       5.192   3.739  19.320  0.00  0.00    +0.000 NA
ATOM     11  C   UNL     1       4.362   2.744  19.697  0.00  0.00    +0.000 C 
ATOM     12  N   UNL     1       4.945   1.576  20.053  0.00  0.00    +0.000 N 
ATOM     13  N   UNL     1       3.085   2.825  19.720  0.00  0.00    +0.000 NA
ATOM     14  C   UNL     1       2.461   4.106  19.363  0.00  0.00    +0.000 C 
ATOM     15  C   UNL     1       1.883   3.911  17.946  0.00  0.00    +0.000 C 
ATOM     16  C   UNL     1       1.292   4.182  20.363  0.00  0.00    +0.000 C 
ATOM     17  H   UNL     1       5.505   6.732  19.499  0.00  0.00    +0.000 HD
ATOM     18  H   UNL     1       6.560   5.519  19.012  0.00  0.00    +0.000 HD
ATOM     19  H   UNL     1       5.845   1.442  19.615  0.00  0.00    +0.000 HD
ATOM     20  H   UNL     1       4.313   0.791  19.984  0.00  0.00    +0.000 HD
ENDBRANCH   5   7
BRANCH   1  21
ATOM     21  C   UNL     1       0.410   8.989  20.882  0.00  0.00    +0.000 C 
BRANCH  21  22
ATOM     22  O   UNL     1       0.718  10.292  21.347  0.00  0.00    +0.000 OA
BRANCH  22  27
ATOM     23  C   UNL     1      -1.852  12.261  19.481  0.00  0.00    +0.000 A 
ATOM     24  C   UNL     1      -1.534  13.519  19.990  0.00  0.00    +0.000 A 
ATOM     25  C   UNL     1      -0.511  13.672  20.921  0.00  0.00    +0.000 A 
ATOM     26  C   UNL     1       0.220  12.564  21.349  0.00  0.00    +0.000 A 
ATOM     27  C   UNL     1      -0.087  11.294  20.862  0.00  0.00    +0.000 A 
ATOM     28  C   UNL     1      -1.140  11.146  19.946  0.00  0.00    +0.000 A 
BRANCH  23  32
ATOM     29  C   UNL     1      -5.023  11.646  17.531  0.00  0.00    +0.000 C 
ATOM     30  C   UNL     1      -4.228  11.982  18.764  0.00  0.00    +0.000 C 
ATOM     31  O   UNL     1      -4.788  12.173  19.839  0.00  0.00    +0.000 OA
ATOM     32  N   UNL     1      -2.866  12.040  18.520  0.00  0.00    +0.000 N 
ATOM     33  H   UNL     1      -2.573  12.011  17.551  0.00  0.00    +0.000 HD
ENDBRANCH  23  32
ENDBRANCH  22  27
ENDBRANCH  21  22
ENDBRANCH   1  21
TORSDOF 5
ENDMDL
MODEL 9
REMARK VINA RESULT:      -8.6      5.096      7.533
REMARK  Name = 
REMARK  8 active torsions:
REMARK  status: ('A' for Active; 'I' for Inactive)
REMARK    1  A    between atoms: C_1  and  C_2
REMARK    2  A    between atoms: N_4  and  C_5
REMARK    3  A    between atoms: C_9  and  O_10
REMARK    4  A    between atoms: O_10  and  C_11
REMARK    5  A    between atoms: C_11  and  C_12
REMARK    6  A    between atoms: C_16  and  N_17
REMARK    7  A    between atoms: C_24  and  C_25
REMARK    8  A    between atoms: C_24  and  C_26
REMARK                            x       y       z     vdW  Elec       q    Type
REMARK                         _______ _______ _______ _____ _____    ______ ____
ROOT
ATOM      1  C   UNL     1       7.118   6.382  17.989  0.00  0.00    +0.000 A 
ATOM      2  C   UNL     1       6.935   6.301  16.609  0.00  0.00    +0.000 A 
ATOM      3  C   UNL     1       5.821   5.645  16.110  0.00  0.00    +0.000 A 
ATOM      4  C   UNL     1       4.883   5.091  16.990  0.00  0.00    +0.000 A 
ATOM      5  C   UNL     1       5.082   5.040  18.380  0.00  0.00    +0.000 A 
ATOM      6  C   UNL     1       6.256   5.666  18.844  0.00  0.00    +0.000 A 
ENDROOT
BRANCH   5   7
ATOM      7  N   UNL     1       4.101   4.509  19.264  0.00  0.00    +0.000 N 
ATOM      8  C   UNL     1       4.127   3.234  19.798  0.00  0.00    +0.000 C 
ATOM      9  N   UNL     1       5.213   2.440  19.588  0.00  0.00    +0.000 N 
ATOM     10  N   UNL     1       3.211   2.700  20.542  0.00  0.00    +0.000 NA
ATOM     11  C   UNL     1       2.154   3.463  20.889  0.00  0.00    +0.000 C 
ATOM     12  N   UNL     1       1.353   2.973  21.866  0.00  0.00    +0.000 N 
ATOM     13  N   UNL     1       1.853   4.586  20.355  0.00  0.00    +0.000 NA
ATOM     14  C   UNL     1       2.743   5.125  19.319  0.00  0.00    +0.000 C 
ATOM     15  C   UNL     1       2.012   4.905  17.980  0.00  0.00    +0.000 C 
ATOM     16  C   UNL     1       2.733   6.631  19.642  0.00  0.00    +0.000 C 
ATOM     17  H   UNL     1       6.094   2.929  19.690  0.00  0.00    +0.000 HD
ATOM     18  H   UNL     1       5.167   1.616  20.176  0.00  0.00    +0.000 HD
ATOM     19  H   UNL     1       1.382   1.965  21.921  0.00  0.00    +0.000 HD
ATOM     20  H   UNL     1       0.427   3.376  21.845  0.00  0.00    +0.000 HD
ENDBRANCH   5   7
BRANCH   1  21
ATOM     21  C   UNL     1       8.131   7.342  18.561  0.00  0.00    +0.000 C 
BRANCH  21  22
ATOM     22  O   UNL     1       8.158   8.568  17.850  0.00  0.00    +0.000 OA
BRANCH  22  27
ATOM     23  C   UNL     1       9.344  10.995  20.431  0.00  0.00    +0.000 A 
ATOM     24  C   UNL     1      10.026  11.862  19.578  0.00  0.00    +0.000 A 
ATOM     25  C   UNL     1      10.079  11.616  18.209  0.00  0.00    +0.000 A 
ATOM     26  C   UNL     1       9.438  10.501  17.670  0.00  0.00    +0.000 A 
ATOM     27  C   UNL     1       8.761   9.614  18.505  0.00  0.00    +0.000 A 
ATOM     28  C   UNL     1       8.737   9.854  19.888  0.00  0.00    +0.000 A 
BRANCH  23  32
ATOM     29  C   UNL     1       8.686  12.180  23.952  0.00  0.00    +0.000 C 
ATOM     30  C   UNL     1       8.519  12.200  22.457  0.00  0.00    +0.000 C 
ATOM     31  O   UNL     1       7.806  13.041  21.917  0.00  0.00    +0.000 OA
ATOM     32  N   UNL     1       9.237  11.198  21.827  0.00  0.00    +0.000 N 
ATOM     33  H   UNL     1       9.652  10.490  22.420  0.00  0.00    +0.000 HD
ENDBRANCH  23  32
ENDBRANCH  22  27
ENDBRANCH  21  22
ENDBRANCH   1  21
TORSDOF 5
ENDMDL
