MODEL 1
REMARK VINA RESULT:      -8.1      0.000      0.000
REMARK  Name = 
REMARK  15 active torsions:
REMARK  status: ('A' for Active; 'I' for Inactive)
REMARK    1  A    between atoms: C_1  and  C_2
REMARK    2  A    between atoms: C_2  and  C_3
REMARK    3  A    between atoms: C_2  and  N_4
REMARK    4  A    between atoms: C_5  and  C_7
REMARK    5  A    between atoms: C_11  and  O_12
REMARK    6  A    between atoms: O_12  and  C_13
REMARK    7  A    between atoms: C_13  and  C_14
REMARK    8  A    between atoms: C_14  and  C_15
REMARK    9  A    between atoms: C_15  and  C_16
REMARK   10  A    between atoms: C_16  and  O_17
REMARK   11  A    between atoms: O_17  and  C_18
REMARK   12  A    between atoms: C_22  and  C_23
REMARK   13  A    between atoms: N_25  and  C_26
REMARK   14  A    between atoms: C_26  and  C_27
REMARK   15  A    between atoms: C_26  and  C_28
REMARK                            x       y       z     vdW  Elec       q    Type
REMARK                         _______ _______ _______ _____ _____    ______ ____
ROOT
ATOM      1  C   UNL     1       2.034   2.602  20.053  0.00  0.00    +0.000 C 
ENDROOT
BRANCH   1   2
ATOM      2  C   UNL     1       3.245   2.378  19.145  0.00  0.00    +0.000 C 
BRANCH   2   3
ATOM      3  O   UNL     1       3.354   3.331  18.153  0.00  0.00    +0.000 OA
BRANCH   3   8
ATOM      4  C   UNL     1       6.229   4.440  16.078  0.00  0.00    +0.000 A 
ATOM      5  C   UNL     1       7.054   4.946  17.102  0.00  0.00    +0.000 A 
ATOM      6  C   UNL     1       6.636   4.919  18.436  0.00  0.00    +0.000 A 
ATOM      7  C   UNL     1       5.394   4.384  18.779  0.00  0.00    +0.000 A 
ATOM      8  C   UNL     1       4.552   3.871  17.791  0.00  0.00    +0.000 A 
ATOM      9  C   UNL     1       4.979   3.908  16.443  0.00  0.00    +0.000 A 
BRANCH   4  11
ATOM     10  N   UNL     1       6.172   3.381  13.749  0.00  0.00    +0.000 N 
ATOM     11  C   UNL     1       6.647   4.406  14.633  0.00  0.00    +0.000 C 
ATOM     12  N   UNL     1       7.428   5.337  14.196  0.00  0.00    +0.000 NA
ATOM     13  H   UNL     1       5.758   2.530  14.150  0.00  0.00    +0.000 HD
ATOM     14  H   UNL     1       7.772   5.392  13.228  0.00  0.00    +0.000 HD
BRANCH  10  16
ATOM     15  C   UNL     1       6.974   2.352  11.673  0.00  0.00    +0.000 C 
ATOM     16  C   UNL     1       6.172   3.504  12.297  0.00  0.00    +0.000 C 
ATOM     17  C   UNL     1       4.726   3.455  11.774  0.00  0.00    +0.000 C 
ENDBRANCH  10  16
ENDBRANCH   4  11
ENDBRANCH   3   8
ENDBRANCH   2   3
ENDBRANCH   1   2
BRANCH   1  18
ATOM     18  C   UNL     1       2.307   3.728  21.079  0.00  0.00    +0.000 C 
BRANCH  18  19
ATOM     19  C   UNL     1       1.603   5.034  20.686  0.00  0.00    +0.000 C 
BRANCH  19  20
ATOM     20  O   UNL     1       2.493   6.071  20.499  0.00  0.00    +0.000 OA
BRANCH  20  21
ATOM     21  C   UNL     1       2.250   7.116  19.662  0.00  0.00    +0.000 A 
ATOM     22  C   UNL     1       2.886   7.235  18.410  0.00  0.00    +0.000 A 
ATOM     23  C   UNL     1       2.625   8.324  17.589  0.00  0.00    +0.000 A 
ATOM     24  C   UNL     1       1.740   9.318  18.001  0.00  0.00    +0.000 A 
ATOM     25  C   UNL     1       1.085   9.245  19.251  0.00  0.00    +0.000 A 
ATOM     26  C   UNL     1       1.359   8.118  20.069  0.00  0.00    +0.000 A 
BRANCH  25  27
ATOM     27  C   UNL     1       0.174  10.363  19.709  0.00  0.00    +0.000 C 
ATOM     28  N   UNL     1      -0.873  10.699  19.034  0.00  0.00    +0.000 NA
ATOM     29  N   UNL     1       0.431  11.059  20.936  0.00  0.00    +0.000 N 
ATOM     30  H   UNL     1      -1.170  10.275  18.148  0.00  0.00    +0.000 HD
ATOM     31  H   UNL     1       1.363  11.031  21.369  0.00  0.00    +0.000 HD
BRANCH  29  32
ATOM     32  C   UNL     1      -0.607  11.766  21.669  0.00  0.00    +0.000 C 
ATOM     33  C   UNL     1      -0.900  11.004  22.964  0.00  0.00    +0.000 C 
ATOM     34  C   UNL     1      -0.172  13.199  21.969  0.00  0.00    +0.000 C 
ENDBRANCH  29  32
ENDBRANCH  25  27
ENDBRANCH  20  21
ENDBRANCH  19  20
ENDBRANCH  18  19
ENDBRANCH   1  18
TORSDOF 11
ENDMDL
MODEL 2
REMARK VINA RESULT:      -8.1      1.042      1.413
REMARK  Name = 
REMARK  15 active torsions:
REMARK  status: ('A' for Active; 'I' for Inactive)
REMARK    1  A    between atoms: C_1  and  C_2
REMARK    2  A    between atoms: C_2  and  C_3
REMARK    3  A    between atoms: C_2  and  N_4
REMARK    4  A    between atoms: C_5  and  C_7
REMARK    5  A    between atoms: C_11  and  O_12
REMARK    6  A    between atoms: O_12  and  C_13
REMARK    7  A    between atoms: C_13  and  C_14
REMARK    8  A    between atoms: C_14  and  C_15
REMARK    9  A    between atoms: C_15  and  C_16
REMARK   10  A    between atoms: C_16  and  O_17
REMARK   11  A    between atoms: O_17  and  C_18
REMARK   12  A    between atoms: C_22  and  C_23
REMARK   13  A    between atoms: N_25  and  C_26
REMARK   14  A    between atoms: C_26  and  C_27
REMARK   15  A    between atoms: C_26  and  C_28
REMARK                            x       y       z     vdW  Elec       q    Type
REMARK                         _______ _______ _______ _____ _____    ______ ____
ROOT
ATOM      1  C   UNL     1       1.555   2.637  18.726  0.00  0.00    +0.000 C 
ENDROOT
BRANCH   1   2
ATOM      2  C   UNL     1       2.648   2.967  17.708  0.00  0.00    +0.000 C 
BRANCH   2   3
ATOM      3  O   UNL     1       3.906   3.022  18.271  0.00  0.00    +0.000 OA
BRANCH   3   8
ATOM      4  C   UNL     1       6.285   4.549  15.861  0.00  0.00    +0.000 A 
ATOM      5  C   UNL     1       6.999   5.373  16.754  0.00  0.00    +0.000 A 
ATOM      6  C   UNL     1       6.670   5.411  18.112  0.00  0.00    +0.000 A 
ATOM      7  C   UNL     1       5.629   4.627  18.611  0.00  0.00    +0.000 A 
ATOM      8  C   UNL     1       4.901   3.797  17.756  0.00  0.00    +0.000 A 
ATOM      9  C   UNL     1       5.237   3.769  16.383  0.00  0.00    +0.000 A 
BRANCH   4  11
ATOM     10  N   UNL     1       6.142   3.344  13.609  0.00  0.00    +0.000 N 
ATOM     11  C   UNL     1       6.625   4.439  14.400  0.00  0.00    +0.000 C 
ATOM     12  N   UNL     1       7.344   5.368  13.864  0.00  0.00    +0.000 NA
ATOM     13  H   UNL     1       5.784   2.507  14.083  0.00  0.00    +0.000 HD
ATOM     14  H   UNL     1       7.633   5.373  12.876  0.00  0.00    +0.000 HD
BRANCH  10  16
ATOM     15  C   UNL     1       6.775   2.153  11.561  0.00  0.00    +0.000 C 
ATOM     16  C   UNL     1       6.059   3.376  12.154  0.00  0.00    +0.000 C 
ATOM     17  C   UNL     1       4.583   3.357  11.720  0.00  0.00    +0.000 C 
ENDBRANCH  10  16
ENDBRANCH   4  11
ENDBRANCH   3   8
ENDBRANCH   2   3
ENDBRANCH   1   2
BRANCH   1  18
ATOM     18  C   UNL     1       1.997   3.010  20.161  0.00  0.00    +0.000 C 
BRANCH  18  19
ATOM     19  C   UNL     1       1.218   4.217  20.699  0.00  0.00    +0.000 C 
BRANCH  19  20
ATOM     20  O   UNL     1       2.030   5.314  20.899  0.00  0.00    +0.000 OA
BRANCH  20  21
ATOM     21  C   UNL     1       1.965   6.436  20.130  0.00  0.00    +0.000 A 
ATOM     22  C   UNL     1       2.487   6.478  18.822  0.00  0.00    +0.000 A 
ATOM     23  C   UNL     1       2.417   7.645  18.073  0.00  0.00    +0.000 A 
ATOM     24  C   UNL     1       1.838   8.792  18.612  0.00  0.00    +0.000 A 
ATOM     25  C   UNL     1       1.308   8.799  19.922  0.00  0.00    +0.000 A 
ATOM     26  C   UNL     1       1.382   7.593  20.665  0.00  0.00    +0.000 A 
BRANCH  25  27
ATOM     27  C   UNL     1       0.739  10.070  20.514  0.00  0.00    +0.000 C 
ATOM     28  N   UNL     1       1.107  10.496  21.675  0.00  0.00    +0.000 NA
ATOM     29  N   UNL     1      -0.202  10.863  19.777  0.00  0.00    +0.000 N 
ATOM     30  H   UNL     1       1.776  10.027  22.296  0.00  0.00    +0.000 HD
ATOM     31  H   UNL     1      -0.727  10.456  18.992  0.00  0.00    +0.000 HD
BRANCH  29  32
ATOM     32  C   UNL     1      -0.409  12.278  20.037  0.00  0.00    +0.000 C 
ATOM     33  C   UNL     1       0.506  13.087  19.114  0.00  0.00    +0.000 C 
ATOM     34  C   UNL     1      -1.872  12.656  19.818  0.00  0.00    +0.000 C 
ENDBRANCH  29  32
ENDBRANCH  25  27
ENDBRANCH  20  21
ENDBRANCH  19  20
ENDBRANCH  18  19
ENDBRANCH   1  18
TORSDOF 11
ENDMDL
MODEL 3
REMARK VINA RESULT:      -7.4      1.165      1.393
REMARK  Name = 
REMARK  15 active torsions:
REMARK  status: ('A' for Active; 'I' for Inactive)
REMARK    1  A    between atoms: C_1  and  C_2
REMARK    2  A    between atoms: C_2  and  C_3
REMARK    3  A    between atoms: C_2  and  N_4
REMARK    4  A    between atoms: C_5  and  C_7
REMARK    5  A    between atoms: C_11  and  O_12
REMARK    6  A    between atoms: O_12  and  C_13
REMARK    7  A    between atoms: C_13  and  C_14
REMARK    8  A    between atoms: C_14  and  C_15
REMARK    9  A    between atoms: C_15  and  C_16
REMARK   10  A    between atoms: C_16  and  O_17
REMARK   11  A    between atoms: O_17  and  C_18
REMARK   12  A    between atoms: C_22  and  C_23
REMARK   13  A    between atoms: N_25  and  C_26
REMARK   14  A    between atoms: C_26  and  C_27
REMARK   15  A    between atoms: C_26  and  C_28
REMARK                            x       y       z     vdW  Elec       q    Type
REMARK                         _______ _______ _______ _____ _____    ______ ____
ROOT
ATOM      1  C   UNL     1       2.225   2.973  20.147  0.00  0.00    +0.000 C 
ENDROOT
BRANCH   1   2
ATOM      2  C   UNL     1       2.341   3.357  18.671  0.00  0.00    +0.000 C 
BRANCH   2   3
ATOM      3  O   UNL     1       3.424   2.771  18.048  0.00  0.00    +0.000 OA
BRANCH   3   8
ATOM      4  C   UNL     1       6.089   4.284  15.949  0.00  0.00    +0.000 A 
ATOM      5  C   UNL     1       6.828   4.924  16.964  0.00  0.00    +0.000 A 
ATOM      6  C   UNL     1       6.421   4.850  18.300  0.00  0.00    +0.000 A 
ATOM      7  C   UNL     1       5.277   4.134  18.654  0.00  0.00    +0.000 A 
ATOM      8  C   UNL     1       4.523   3.485  17.675  0.00  0.00    +0.000 A 
ATOM      9  C   UNL     1       4.937   3.571  16.326  0.00  0.00    +0.000 A 
BRANCH   4  11
ATOM     10  N   UNL     1       6.118   3.242  13.613  0.00  0.00    +0.000 N 
ATOM     11  C   UNL     1       6.505   4.297  14.504  0.00  0.00    +0.000 C 
ATOM     12  N   UNL     1       7.201   5.296  14.072  0.00  0.00    +0.000 NA
ATOM     13  H   UNL     1       5.781   2.356  14.008  0.00  0.00    +0.000 HD
ATOM     14  H   UNL     1       7.537   5.387  13.104  0.00  0.00    +0.000 HD
BRANCH  10  16
ATOM     15  C   UNL     1       6.866   2.206  11.520  0.00  0.00    +0.000 C 
ATOM     16  C   UNL     1       6.104   3.375  12.161  0.00  0.00    +0.000 C 
ATOM     17  C   UNL     1       4.651   3.370  11.656  0.00  0.00    +0.000 C 
ENDBRANCH  10  16
ENDBRANCH   4  11
ENDBRANCH   3   8
ENDBRANCH   2   3
ENDBRANCH   1   2
BRANCH   1  18
ATOM     18  C   UNL     1       1.598   4.120  20.975  0.00  0.00    +0.000 C 
BRANCH  18  19
ATOM     19  C   UNL     1       2.419   5.411  20.866  0.00  0.00    +0.000 C 
BRANCH  19  20
ATOM     20  O   UNL     1       1.621   6.535  20.816  0.00  0.00    +0.000 OA
BRANCH  20  21
ATOM     21  C   UNL     1       1.746   7.492  19.856  0.00  0.00    +0.000 A 
ATOM     22  C   UNL     1       2.532   7.298  18.703  0.00  0.00    +0.000 A 
ATOM     23  C   UNL     1       2.648   8.304  17.753  0.00  0.00    +0.000 A 
ATOM     24  C   UNL     1       1.998   9.522  17.936  0.00  0.00    +0.000 A 
ATOM     25  C   UNL     1       1.205   9.765  19.081  0.00  0.00    +0.000 A 
ATOM     26  C   UNL     1       1.093   8.719  20.033  0.00  0.00    +0.000 A 
BRANCH  25  27
ATOM     27  C   UNL     1       0.556  11.115  19.294  0.00  0.00    +0.000 C 
ATOM     28  N   UNL     1      -0.705  11.225  19.545  0.00  0.00    +0.000 NA
ATOM     29  N   UNL     1       1.339  12.316  19.263  0.00  0.00    +0.000 N 
ATOM     30  H   UNL     1      -1.369  10.445  19.602  0.00  0.00    +0.000 HD
ATOM     31  H   UNL     1       2.265  12.326  18.813  0.00  0.00    +0.000 HD
BRANCH  29  32
ATOM     32  C   UNL     1       0.919  13.544  19.916  0.00  0.00    +0.000 C 
ATOM     33  C   UNL     1       2.103  14.113  20.702  0.00  0.00    +0.000 C 
ATOM     34  C   UNL     1       0.413  14.554  18.889  0.00  0.00    +0.000 C 
ENDBRANCH  29  32
ENDBRANCH  25  27
ENDBRANCH  20  21
ENDBRANCH  19  20
ENDBRANCH  18  19
ENDBRANCH   1  18
TORSDOF 11
ENDMDL
MODEL 4
REMARK VINA RESULT:      -7.4      0.850      1.274
REMARK  Name = 
REMARK  15 active torsions:
REMARK  status: ('A' for Active; 'I' for Inactive)
REMARK    1  A    between atoms: C_1  and  C_2
REMARK    2  A    between atoms: C_2  and  C_3
REMARK    3  A    between atoms: C_2  and  N_4
REMARK    4  A    between atoms: C_5  and  C_7
REMARK    5  A    between atoms: C_11  and  O_12
REMARK    6  A    between atoms: O_12  and  C_13
REMARK    7  A    between atoms: C_13  and  C_14
REMARK    8  A    between atoms: C_14  and  C_15
REMARK    9  A    between atoms: C_15  and  C_16
REMARK   10  A    between atoms: C_16  and  O_17
REMARK   11  A    between atoms: O_17  and  C_18
REMARK   12  A    between atoms: C_22  and  C_23
REMARK   13  A    between atoms: N_25  and  C_26
REMARK   14  A    between atoms: C_26  and  C_27
REMARK   15  A    between atoms: C_26  and  C_28
REMARK                            x       y       z     vdW  Elec       q    Type
REMARK                         _______ _______ _______ _____ _____    ______ ____
ROOT
ATOM      1  C   UNL     1       2.113   2.455  19.772  0.00  0.00    +0.000 C 
ENDROOT
BRANCH   1   2
ATOM      2  C   UNL     1       3.564   2.701  19.354  0.00  0.00    +0.000 C 
BRANCH   2   3
ATOM      3  O   UNL     1       3.674   3.224  18.083  0.00  0.00    +0.000 OA
BRANCH   3   8
ATOM      4  C   UNL     1       6.366   4.341  15.778  0.00  0.00    +0.000 A 
ATOM      5  C   UNL     1       7.251   4.890  16.728  0.00  0.00    +0.000 A 
ATOM      6  C   UNL     1       6.931   4.888  18.090  0.00  0.00    +0.000 A 
ATOM      7  C   UNL     1       5.729   4.335  18.534  0.00  0.00    +0.000 A 
ATOM      8  C   UNL     1       4.830   3.780  17.621  0.00  0.00    +0.000 A 
ATOM      9  C   UNL     1       5.158   3.793  16.246  0.00  0.00    +0.000 A 
BRANCH   4  11
ATOM     10  N   UNL     1       6.316   3.138  13.521  0.00  0.00    +0.000 N 
ATOM     11  C   UNL     1       6.679   4.280  14.309  0.00  0.00    +0.000 C 
ATOM     12  N   UNL     1       7.263   5.294  13.761  0.00  0.00    +0.000 NA
ATOM     13  H   UNL     1       6.078   2.260  13.998  0.00  0.00    +0.000 HD
ATOM     14  H   UNL     1       7.523   5.339  12.767  0.00  0.00    +0.000 HD
BRANCH  10  16
ATOM     15  C   UNL     1       6.540   1.786  11.488  0.00  0.00    +0.000 C 
ATOM     16  C   UNL     1       6.192   3.164  12.069  0.00  0.00    +0.000 C 
ATOM     17  C   UNL     1       4.748   3.527  11.681  0.00  0.00    +0.000 C 
ENDBRANCH  10  16
ENDBRANCH   4  11
ENDBRANCH   3   8
ENDBRANCH   2   3
ENDBRANCH   1   2
BRANCH   1  18
ATOM     18  C   UNL     1       1.572   3.626  20.627  0.00  0.00    +0.000 C 
BRANCH  18  19
ATOM     19  C   UNL     1       2.413   4.896  20.446  0.00  0.00    +0.000 C 
BRANCH  19  20
ATOM     20  O   UNL     1       2.147   5.532  19.251  0.00  0.00    +0.000 OA
BRANCH  20  21
ATOM     21  C   UNL     1       1.923   6.872  19.157  0.00  0.00    +0.000 A 
ATOM     22  C   UNL     1       2.177   7.591  17.972  0.00  0.00    +0.000 A 
ATOM     23  C   UNL     1       1.952   8.960  17.918  0.00  0.00    +0.000 A 
ATOM     24  C   UNL     1       1.483   9.640  19.039  0.00  0.00    +0.000 A 
ATOM     25  C   UNL     1       1.221   8.961  20.252  0.00  0.00    +0.000 A 
ATOM     26  C   UNL     1       1.449   7.561  20.281  0.00  0.00    +0.000 A 
BRANCH  25  27
ATOM     27  C   UNL     1       0.771   9.725  21.478  0.00  0.00    +0.000 C 
ATOM     28  N   UNL     1       1.415   9.648  22.594  0.00  0.00    +0.000 NA
ATOM     29  N   UNL     1      -0.369  10.593  21.421  0.00  0.00    +0.000 N 
ATOM     30  H   UNL     1       2.247   9.071  22.761  0.00  0.00    +0.000 HD
ATOM     31  H   UNL     1      -1.065  10.495  20.670  0.00  0.00    +0.000 HD
BRANCH  29  32
ATOM     32  C   UNL     1      -0.567  11.690  22.354  0.00  0.00    +0.000 C 
ATOM     33  C   UNL     1      -0.781  12.980  21.557  0.00  0.00    +0.000 C 
ATOM     34  C   UNL     1      -1.759  11.412  23.266  0.00  0.00    +0.000 C 
ENDBRANCH  29  32
ENDBRANCH  25  27
ENDBRANCH  20  21
ENDBRANCH  19  20
ENDBRANCH  18  19
ENDBRANCH   1  18
TORSDOF 11
ENDMDL
MODEL 5
REMARK VINA RESULT:      -7.3      2.983      4.105
REMARK  Name = 
REMARK  15 active torsions:
REMARK  status: ('A' for Active; 'I' for Inactive)
REMARK    1  A    between atoms: C_1  and  C_2
REMARK    2  A    between atoms: C_2  and  C_3
REMARK    3  A    between atoms: C_2  and  N_4
REMARK    4  A    between atoms: C_5  and  C_7
REMARK    5  A    between atoms: C_11  and  O_12
REMARK    6  A    between atoms: O_12  and  C_13
REMARK    7  A    between atoms: C_13  and  C_14
REMARK    8  A    between atoms: C_14  and  C_15
REMARK    9  A    between atoms: C_15  and  C_16
REMARK   10  A    between atoms: C_16  and  O_17
REMARK   11  A    between atoms: O_17  and  C_18
REMARK   12  A    between atoms: C_22  and  C_23
REMARK   13  A    between atoms: N_25  and  C_26
REMARK   14  A    between atoms: C_26  and  C_27
REMARK   15  A    between atoms: C_26  and  C_28
REMARK                            x       y       z     vdW  Elec       q    Type
REMARK                         _______ _______ _______ _____ _____    ______ ____
ROOT
ATOM      1  C   UNL     1       2.119   8.155  18.838  0.00  0.00    +0.000 C 
ENDROOT
BRANCH   1   2
ATOM      2  C   UNL     1       2.690   6.961  18.070  0.00  0.00    +0.000 C 
BRANCH   2   3
ATOM      3  O   UNL     1       3.821   7.280  17.348  0.00  0.00    +0.000 OA
BRANCH   3   8
ATOM      4  C   UNL     1       6.314   5.093  15.674  0.00  0.00    +0.000 A 
ATOM      5  C   UNL     1       6.902   4.518  16.819  0.00  0.00    +0.000 A 
ATOM      6  C   UNL     1       6.471   4.876  18.100  0.00  0.00    +0.000 A 
ATOM      7  C   UNL     1       5.445   5.806  18.269  0.00  0.00    +0.000 A 
ATOM      8  C   UNL     1       4.838   6.393  17.157  0.00  0.00    +0.000 A 
ATOM      9  C   UNL     1       5.284   6.031  15.865  0.00  0.00    +0.000 A 
BRANCH   4  11
ATOM     10  N   UNL     1       6.037   3.659  13.574  0.00  0.00    +0.000 N 
ATOM     11  C   UNL     1       6.711   4.714  14.274  0.00  0.00    +0.000 C 
ATOM     12  N   UNL     1       7.659   5.377  13.701  0.00  0.00    +0.000 NA
ATOM     13  H   UNL     1       5.463   2.994  14.108  0.00  0.00    +0.000 HD
ATOM     14  H   UNL     1       8.003   5.185  12.750  0.00  0.00    +0.000 HD
BRANCH  10  16
ATOM     15  C   UNL     1       6.929   2.312  11.729  0.00  0.00    +0.000 C 
ATOM     16  C   UNL     1       6.055   3.511  12.124  0.00  0.00    +0.000 C 
ATOM     17  C   UNL     1       4.622   3.284  11.610  0.00  0.00    +0.000 C 
ENDBRANCH  10  16
ENDBRANCH   4  11
ENDBRANCH   3   8
ENDBRANCH   2   3
ENDBRANCH   1   2
BRANCH   1  18
ATOM     18  C   UNL     1       1.776   9.322  17.882  0.00  0.00    +0.000 C 
BRANCH  18  19
ATOM     19  C   UNL     1       0.409   9.938  18.207  0.00  0.00    +0.000 C 
BRANCH  19  20
ATOM     20  O   UNL     1      -0.599   9.412  17.427  0.00  0.00    +0.000 OA
BRANCH  20  21
ATOM     21  C   UNL     1      -1.788  10.043  17.225  0.00  0.00    +0.000 A 
ATOM     22  C   UNL     1      -2.444  10.023  15.978  0.00  0.00    +0.000 A 
ATOM     23  C   UNL     1      -3.648  10.692  15.805  0.00  0.00    +0.000 A 
ATOM     24  C   UNL     1      -4.217  11.400  16.861  0.00  0.00    +0.000 A 
ATOM     25  C   UNL     1      -3.592  11.454  18.129  0.00  0.00    +0.000 A 
ATOM     26  C   UNL     1      -2.367  10.756  18.284  0.00  0.00    +0.000 A 
BRANCH  25  27
ATOM     27  C   UNL     1      -4.191  12.279  19.246  0.00  0.00    +0.000 C 
ATOM     28  N   UNL     1      -5.460  12.272  19.483  0.00  0.00    +0.000 NA
ATOM     29  N   UNL     1      -3.354  13.064  20.106  0.00  0.00    +0.000 N 
ATOM     30  H   UNL     1      -6.162  11.748  18.948  0.00  0.00    +0.000 HD
ATOM     31  H   UNL     1      -2.402  13.322  19.815  0.00  0.00    +0.000 HD
BRANCH  29  32
ATOM     32  C   UNL     1      -3.761  13.468  21.442  0.00  0.00    +0.000 C 
ATOM     33  C   UNL     1      -2.937  12.682  22.465  0.00  0.00    +0.000 C 
ATOM     34  C   UNL     1      -3.569  14.971  21.630  0.00  0.00    +0.000 C 
ENDBRANCH  29  32
ENDBRANCH  25  27
ENDBRANCH  20  21
ENDBRANCH  19  20
ENDBRANCH  18  19
ENDBRANCH   1  18
TORSDOF 11
ENDMDL
MODEL 6
REMARK VINA RESULT:      -7.1      0.857      1.076
REMARK  Name = 
REMARK  15 active torsions:
REMARK  status: ('A' for Active; 'I' for Inactive)
REMARK    1  A    between atoms: C_1  and  C_2
REMARK    2  A    between atoms: C_2  and  C_3
REMARK    3  A    between atoms: C_2  and  N_4
REMARK    4  A    between atoms: C_5  and  C_7
REMARK    5  A    between atoms: C_11  and  O_12
REMARK    6  A    between atoms: O_12  and  C_13
REMARK    7  A    between atoms: C_13  and  C_14
REMARK    8  A    between atoms: C_14  and  C_15
REMARK    9  A    between atoms: C_15  and  C_16
REMARK   10  A    between atoms: C_16  and  O_17
REMARK   11  A    between atoms: O_17  and  C_18
REMARK   12  A    between atoms: C_22  and  C_23
REMARK   13  A    between atoms: N_25  and  C_26
REMARK   14  A    between atoms: C_26  and  C_27
REMARK   15  A    between atoms: C_26  and  C_28
REMARK                            x       y       z     vdW  Elec       q    Type
REMARK                         _______ _______ _______ _____ _____    ______ ____
ROOT
ATOM      1  C   UNL     1       1.459   2.859  20.095  0.00  0.00    +0.000 C 
ENDROOT
BRANCH   1   2
ATOM      2  C   UNL     1       1.815   2.676  18.618  0.00  0.00    +0.000 C 
BRANCH   2   3
ATOM      3  O   UNL     1       3.113   2.251  18.428  0.00  0.00    +0.000 OA
BRANCH   3   8
ATOM      4  C   UNL     1       5.545   4.282  16.489  0.00  0.00    +0.000 A 
ATOM      5  C   UNL     1       6.257   4.853  17.563  0.00  0.00    +0.000 A 
ATOM      6  C   UNL     1       5.908   4.564  18.886  0.00  0.00    +0.000 A 
ATOM      7  C   UNL     1       4.851   3.698  19.168  0.00  0.00    +0.000 A 
ATOM      8  C   UNL     1       4.126   3.112  18.128  0.00  0.00    +0.000 A 
ATOM      9  C   UNL     1       4.480   3.415  16.793  0.00  0.00    +0.000 A 
BRANCH   4  11
ATOM     10  N   UNL     1       6.363   3.457  14.209  0.00  0.00    +0.000 N 
ATOM     11  C   UNL     1       5.904   4.526  15.049  0.00  0.00    +0.000 C 
ATOM     12  N   UNL     1       5.767   5.719  14.574  0.00  0.00    +0.000 NA
ATOM     13  H   UNL     1       6.691   2.587  14.646  0.00  0.00    +0.000 HD
ATOM     14  H   UNL     1       5.995   5.981  13.605  0.00  0.00    +0.000 HD
BRANCH  10  16
ATOM     15  C   UNL     1       4.889   3.773  12.275  0.00  0.00    +0.000 C 
ATOM     16  C   UNL     1       6.323   3.500  12.753  0.00  0.00    +0.000 C 
ATOM     17  C   UNL     1       7.248   4.620  12.244  0.00  0.00    +0.000 C 
ENDBRANCH  10  16
ENDBRANCH   4  11
ENDBRANCH   3   8
ENDBRANCH   2   3
ENDBRANCH   1   2
BRANCH   1  18
ATOM     18  C   UNL     1       0.947   4.293  20.371  0.00  0.00    +0.000 C 
BRANCH  18  19
ATOM     19  C   UNL     1       2.035   5.173  20.999  0.00  0.00    +0.000 C 
BRANCH  19  20
ATOM     20  O   UNL     1       2.881   5.712  20.053  0.00  0.00    +0.000 OA
BRANCH  20  21
ATOM     21  C   UNL     1       2.587   6.841  19.351  0.00  0.00    +0.000 A 
ATOM     22  C   UNL     1       3.258   7.176  18.158  0.00  0.00    +0.000 A 
ATOM     23  C   UNL     1       2.942   8.344  17.477  0.00  0.00    +0.000 A 
ATOM     24  C   UNL     1       1.965   9.204  17.973  0.00  0.00    +0.000 A 
ATOM     25  C   UNL     1       1.270   8.913  19.170  0.00  0.00    +0.000 A 
ATOM     26  C   UNL     1       1.603   7.709  19.843  0.00  0.00    +0.000 A 
BRANCH  25  27
ATOM     27  C   UNL     1       0.256   9.888  19.726  0.00  0.00    +0.000 C 
ATOM     28  N   UNL     1      -0.857  10.123  19.117  0.00  0.00    +0.000 NA
ATOM     29  N   UNL     1       0.489  10.550  20.977  0.00  0.00    +0.000 N 
ATOM     30  H   UNL     1      -1.145   9.709  18.224  0.00  0.00    +0.000 HD
ATOM     31  H   UNL     1       1.439  10.617  21.365  0.00  0.00    +0.000 HD
BRANCH  29  32
ATOM     32  C   UNL     1      -0.588  11.089  21.792  0.00  0.00    +0.000 C 
ATOM     33  C   UNL     1      -0.685  10.269  23.081  0.00  0.00    +0.000 C 
ATOM     34  C   UNL     1      -0.341  12.563  22.103  0.00  0.00    +0.000 C 
ENDBRANCH  29  32
ENDBRANCH  25  27
ENDBRANCH  20  21
ENDBRANCH  19  20
ENDBRANCH  18  19
ENDBRANCH   1  18
TORSDOF 11
ENDMDL
MODEL 7
REMARK VINA RESULT:      -7.0      6.575      8.077
REMARK  Name = 
REMARK  15 active torsions:
REMARK  status: ('A' for Active; 'I' for Inactive)
REMARK    1  A    between atoms: C_1  and  C_2
REMARK    2  A    between atoms: C_2  and  C_3
REMARK    3  A    between atoms: C_2  and  N_4
REMARK    4  A    between atoms: C_5  and  C_7
REMARK    5  A    between atoms: C_11  and  O_12
REMARK    6  A    between atoms: O_12  and  C_13
REMARK    7  A    between atoms: C_13  and  C_14
REMARK    8  A    between atoms: C_14  and  C_15
REMARK    9  A    between atoms: C_15  and  C_16
REMARK   10  A    between atoms: C_16  and  O_17
REMARK   11  A    between atoms: O_17  and  C_18
REMARK   12  A    between atoms: C_22  and  C_23
REMARK   13  A    between atoms: N_25  and  C_26
REMARK   14  A    between atoms: C_26  and  C_27
REMARK   15  A    between atoms: C_26  and  C_28
REMARK                            x       y       z     vdW  Elec       q    Type
REMARK                         _______ _______ _______ _____ _____    ______ ____
ROOT
ATOM      1  C   UNL     1       8.011   9.060  17.672  0.00  0.00    +0.000 C 
ENDROOT
BRANCH   1   2
ATOM      2  C   UNL     1       7.771   7.569  17.914  0.00  0.00    +0.000 C 
BRANCH   2   3
ATOM      3  O   UNL     1       7.686   6.843  16.744  0.00  0.00    +0.000 OA
BRANCH   3   8
ATOM      4  C   UNL     1       4.574   4.849  17.116  0.00  0.00    +0.000 A 
ATOM      5  C   UNL     1       4.826   3.868  16.135  0.00  0.00    +0.000 A 
ATOM      6  C   UNL     1       6.000   3.901  15.377  0.00  0.00    +0.000 A 
ATOM      7  C   UNL     1       6.949   4.903  15.581  0.00  0.00    +0.000 A 
ATOM      8  C   UNL     1       6.733   5.889  16.546  0.00  0.00    +0.000 A 
ATOM      9  C   UNL     1       5.541   5.853  17.304  0.00  0.00    +0.000 A 
BRANCH   4  11
ATOM     10  N   UNL     1       2.894   3.627  18.610  0.00  0.00    +0.000 N 
ATOM     11  C   UNL     1       3.349   4.837  17.988  0.00  0.00    +0.000 C 
ATOM     12  N   UNL     1       2.723   5.950  18.186  0.00  0.00    +0.000 NA
ATOM     13  H   UNL     1       3.245   2.727  18.262  0.00  0.00    +0.000 HD
ATOM     14  H   UNL     1       1.874   6.038  18.760  0.00  0.00    +0.000 HD
BRANCH  10  16
ATOM     15  C   UNL     1       0.720   2.839  19.426  0.00  0.00    +0.000 C 
ATOM     16  C   UNL     1       2.011   3.598  19.769  0.00  0.00    +0.000 C 
ATOM     17  C   UNL     1       2.717   2.892  20.939  0.00  0.00    +0.000 C 
ENDBRANCH  10  16
ENDBRANCH   4  11
ENDBRANCH   3   8
ENDBRANCH   2   3
ENDBRANCH   1   2
BRANCH   1  18
ATOM     18  C   UNL     1       8.892   9.672  18.788  0.00  0.00    +0.000 C 
BRANCH  18  19
ATOM     19  C   UNL     1       9.557  10.978  18.333  0.00  0.00    +0.000 C 
BRANCH  19  20
ATOM     20  O   UNL     1      10.522  11.409  19.219  0.00  0.00    +0.000 OA
BRANCH  20  21
ATOM     21  C   UNL     1      10.400  12.548  19.954  0.00  0.00    +0.000 A 
ATOM     22  C   UNL     1      11.279  13.638  19.796  0.00  0.00    +0.000 A 
ATOM     23  C   UNL     1      11.133  14.778  20.574  0.00  0.00    +0.000 A 
ATOM     24  C   UNL     1      10.121  14.853  21.529  0.00  0.00    +0.000 A 
ATOM     25  C   UNL     1       9.220  13.782  21.728  0.00  0.00    +0.000 A 
ATOM     26  C   UNL     1       9.383  12.631  20.914  0.00  0.00    +0.000 A 
BRANCH  25  27
ATOM     27  C   UNL     1       8.166  13.855  22.810  0.00  0.00    +0.000 C 
ATOM     28  N   UNL     1       6.995  14.345  22.579  0.00  0.00    +0.000 NA
ATOM     29  N   UNL     1       8.430  13.340  24.123  0.00  0.00    +0.000 N 
ATOM     30  H   UNL     1       6.681  14.736  21.684  0.00  0.00    +0.000 HD
ATOM     31  H   UNL     1       9.396  13.192  24.443  0.00  0.00    +0.000 HD
BRANCH  29  32
ATOM     32  C   UNL     1       7.371  12.933  25.032  0.00  0.00    +0.000 C 
ATOM     33  C   UNL     1       6.994  11.480  24.729  0.00  0.00    +0.000 C 
ATOM     34  C   UNL     1       7.822  13.084  26.483  0.00  0.00    +0.000 C 
ENDBRANCH  29  32
ENDBRANCH  25  27
ENDBRANCH  20  21
ENDBRANCH  19  20
ENDBRANCH  18  19
ENDBRANCH   1  18
TORSDOF 11
ENDMDL
MODEL 8
REMARK VINA RESULT:      -6.9      1.733      2.300
REMARK  Name = 
REMARK  15 active torsions:
REMARK  status: ('A' for Active; 'I' for Inactive)
REMARK    1  A    between atoms: C_1  and  C_2
REMARK    2  A    between atoms: C_2  and  C_3
REMARK    3  A    between atoms: C_2  and  N_4
REMARK    4  A    between atoms: C_5  and  C_7
REMARK    5  A    between atoms: C_11  and  O_12
REMARK    6  A    between atoms: O_12  and  C_13
REMARK    7  A    between atoms: C_13  and  C_14
REMARK    8  A    between atoms: C_14  and  C_15
REMARK    9  A    between atoms: C_15  and  C_16
REMARK   10  A    between atoms: C_16  and  O_17
REMARK   11  A    between atoms: O_17  and  C_18
REMARK   12  A    between atoms: C_22  and  C_23
REMARK   13  A    between atoms: N_25  and  C_26
REMARK   14  A    between atoms: C_26  and  C_27
REMARK   15  A    between atoms: C_26  and  C_28
REMARK                            x       y       z     vdW  Elec       q    Type
REMARK                         _______ _______ _______ _____ _____    ______ ____
ROOT
ATOM      1  C   UNL     1       2.971   3.385  18.703  0.00  0.00    +0.000 C 
ENDROOT
BRANCH   1   2
ATOM      2  C   UNL     1       4.221   3.707  19.524  0.00  0.00    +0.000 C 
BRANCH   2   3
ATOM      3  O   UNL     1       5.355   3.829  18.748  0.00  0.00    +0.000 OA
BRANCH   3   8
ATOM      4  C   UNL     1       5.759   4.948  15.228  0.00  0.00    +0.000 A 
ATOM      5  C   UNL     1       5.539   6.328  15.413  0.00  0.00    +0.000 A 
ATOM      6  C   UNL     1       5.253   6.844  16.681  0.00  0.00    +0.000 A 
ATOM      7  C   UNL     1       5.186   6.000  17.791  0.00  0.00    +0.000 A 
ATOM      8  C   UNL     1       5.402   4.629  17.645  0.00  0.00    +0.000 A 
ATOM      9  C   UNL     1       5.684   4.115  16.359  0.00  0.00    +0.000 A 
BRANCH   4  11
ATOM     10  N   UNL     1       5.185   3.507  13.194  0.00  0.00    +0.000 N 
ATOM     11  C   UNL     1       6.112   4.348  13.895  0.00  0.00    +0.000 C 
ATOM     12  N   UNL     1       7.263   4.625  13.380  0.00  0.00    +0.000 NA
ATOM     13  H   UNL     1       4.390   3.106  13.707  0.00  0.00    +0.000 HD
ATOM     14  H   UNL     1       7.594   4.255  12.479  0.00  0.00    +0.000 HD
BRANCH  10  16
ATOM     15  C   UNL     1       5.806   1.827  11.519  0.00  0.00    +0.000 C 
ATOM     16  C   UNL     1       5.259   3.242  11.763  0.00  0.00    +0.000 C 
ATOM     17  C   UNL     1       3.855   3.356  11.143  0.00  0.00    +0.000 C 
ENDBRANCH  10  16
ENDBRANCH   4  11
ENDBRANCH   3   8
ENDBRANCH   2   3
ENDBRANCH   1   2
BRANCH   1  18
ATOM     18  C   UNL     1       1.855   4.428  18.954  0.00  0.00    +0.000 C 
BRANCH  18  19
ATOM     19  C   UNL     1       2.284   5.481  19.984  0.00  0.00    +0.000 C 
BRANCH  19  20
ATOM     20  O   UNL     1       2.312   6.752  19.450  0.00  0.00    +0.000 OA
BRANCH  20  21
ATOM     21  C   UNL     1       1.711   7.820  20.042  0.00  0.00    +0.000 A 
ATOM     22  C   UNL     1       1.281   7.788  21.384  0.00  0.00    +0.000 A 
ATOM     23  C   UNL     1       0.658   8.891  21.950  0.00  0.00    +0.000 A 
ATOM     24  C   UNL     1       0.439  10.040  21.194  0.00  0.00    +0.000 A 
ATOM     25  C   UNL     1       0.846  10.116  19.842  0.00  0.00    +0.000 A 
ATOM     26  C   UNL     1       1.490   8.980  19.287  0.00  0.00    +0.000 A 
BRANCH  25  27
ATOM     27  C   UNL     1       0.546  11.348  19.017  0.00  0.00    +0.000 C 
ATOM     28  N   UNL     1      -0.273  11.309  18.020  0.00  0.00    +0.000 NA
ATOM     29  N   UNL     1       1.138  12.612  19.348  0.00  0.00    +0.000 N 
ATOM     30  H   UNL     1      -0.765  10.472  17.688  0.00  0.00    +0.000 HD
ATOM     31  H   UNL     1       1.980  12.658  19.937  0.00  0.00    +0.000 HD
BRANCH  29  32
ATOM     32  C   UNL     1       0.554  13.881  18.946  0.00  0.00    +0.000 C 
ATOM     33  C   UNL     1      -0.367  14.375  20.065  0.00  0.00    +0.000 C 
ATOM     34  C   UNL     1       1.646  14.906  18.651  0.00  0.00    +0.000 C 
ENDBRANCH  29  32
ENDBRANCH  25  27
ENDBRANCH  20  21
ENDBRANCH  19  20
ENDBRANCH  18  19
ENDBRANCH   1  18
TORSDOF 11
ENDMDL
MODEL 9
REMARK VINA RESULT:      -6.9      1.455      1.865
REMARK  Name = 
REMARK  15 active torsions:
REMARK  status: ('A' for Active; 'I' for Inactive)
REMARK    1  A    between atoms: C_1  and  C_2
REMARK    2  A    between atoms: C_2  and  C_3
REMARK    3  A    between atoms: C_2  and  N_4
REMARK    4  A    between atoms: C_5  and  C_7
REMARK    5  A    between atoms: C_11  and  O_12
REMARK    6  A    between atoms: O_12  and  C_13
REMARK    7  A    between atoms: C_13  and  C_14
REMARK    8  A    between atoms: C_14  and  C_15
REMARK    9  A    between atoms: C_15  and  C_16
REMARK   10  A    between atoms: C_16  and  O_17
REMARK   11  A    between atoms: O_17  and  C_18
REMARK   12  A    between atoms: C_22  and  C_23
REMARK   13  A    between atoms: N_25  and  C_26
REMARK   14  A    between atoms: C_26  and  C_27
REMARK   15  A    between atoms: C_26  and  C_28
REMARK                            x       y       z     vdW  Elec       q    Type
REMARK                         _______ _______ _______ _____ _____    ______ ____
ROOT
ATOM      1  C   UNL     1       1.408   3.841  18.587  0.00  0.00    +0.000 C 
ENDROOT
BRANCH   1   2
ATOM      2  C   UNL     1       1.659   2.355  18.329  0.00  0.00    +0.000 C 
BRANCH   2   3
ATOM      3  O   UNL     1       2.994   2.062  18.141  0.00  0.00    +0.000 OA
BRANCH   3   8
ATOM      4  C   UNL     1       5.339   4.604  16.785  0.00  0.00    +0.000 A 
ATOM      5  C   UNL     1       5.967   4.984  17.989  0.00  0.00    +0.000 A 
ATOM      6  C   UNL     1       5.593   4.404  19.205  0.00  0.00    +0.000 A 
ATOM      7  C   UNL     1       4.593   3.432  19.249  0.00  0.00    +0.000 A 
ATOM      8  C   UNL     1       3.951   3.030  18.076  0.00  0.00    +0.000 A 
ATOM      9  C   UNL     1       4.330   3.626  16.851  0.00  0.00    +0.000 A 
BRANCH   4  11
ATOM     10  N   UNL     1       6.516   4.397  14.524  0.00  0.00    +0.000 N 
ATOM     11  C   UNL     1       5.731   5.165  15.446  0.00  0.00    +0.000 C 
ATOM     12  N   UNL     1       5.325   6.350  15.132  0.00  0.00    +0.000 NA
ATOM     13  H   UNL     1       7.025   3.574  14.868  0.00  0.00    +0.000 HD
ATOM     14  H   UNL     1       5.549   6.818  14.244  0.00  0.00    +0.000 HD
BRANCH  10  16
ATOM     15  C   UNL     1       7.972   5.199  12.720  0.00  0.00    +0.000 C 
ATOM     16  C   UNL     1       6.578   4.671  13.093  0.00  0.00    +0.000 C 
ATOM     17  C   UNL     1       6.299   3.379  12.307  0.00  0.00    +0.000 C 
ENDBRANCH  10  16
ENDBRANCH   4  11
ENDBRANCH   3   8
ENDBRANCH   2   3
ENDBRANCH   1   2
BRANCH   1  18
ATOM     18  C   UNL     1       0.951   4.086  20.045  0.00  0.00    +0.000 C 
BRANCH  18  19
ATOM     19  C   UNL     1       2.129   4.470  20.951  0.00  0.00    +0.000 C 
BRANCH  19  20
ATOM     20  O   UNL     1       2.085   5.795  21.331  0.00  0.00    +0.000 OA
BRANCH  20  21
ATOM     21  C   UNL     1       1.954   6.818  20.443  0.00  0.00    +0.000 A 
ATOM     22  C   UNL     1       2.653   6.841  19.219  0.00  0.00    +0.000 A 
ATOM     23  C   UNL     1       2.506   7.910  18.345  0.00  0.00    +0.000 A 
ATOM     24  C   UNL     1       1.674   8.978  18.674  0.00  0.00    +0.000 A 
ATOM     25  C   UNL     1       0.959   9.002  19.893  0.00  0.00    +0.000 A 
ATOM     26  C   UNL     1       1.117   7.894  20.766  0.00  0.00    +0.000 A 
BRANCH  25  27
ATOM     27  C   UNL     1       0.108  10.197  20.262  0.00  0.00    +0.000 C 
ATOM     28  N   UNL     1      -0.161  10.479  21.493  0.00  0.00    +0.000 NA
ATOM     29  N   UNL     1      -0.392  11.079  19.248  0.00  0.00    +0.000 N 
ATOM     30  H   UNL     1       0.143   9.934  22.307  0.00  0.00    +0.000 HD
ATOM     31  H   UNL     1      -0.445  10.773  18.268  0.00  0.00    +0.000 HD
BRANCH  29  32
ATOM     32  C   UNL     1      -0.774  12.454  19.524  0.00  0.00    +0.000 C 
ATOM     33  C   UNL     1      -0.283  13.340  18.376  0.00  0.00    +0.000 C 
ATOM     34  C   UNL     1      -2.287  12.569  19.689  0.00  0.00    +0.000 C 
ENDBRANCH  29  32
ENDBRANCH  25  27
ENDBRANCH  20  21
ENDBRANCH  19  20
ENDBRANCH  18  19
ENDBRANCH   1  18
TORSDOF 11
ENDMDL
