MODEL 1
REMARK VINA RESULT:      -7.1      0.000      0.000
REMARK  Name = 
REMARK  5 active torsions:
REMARK  status: ('A' for Active; 'I' for Inactive)
REMARK    1  A    between atoms: C_1  and  C_2
REMARK    2  A    between atoms: C_2  and  O_3
REMARK    3  A    between atoms: O_3  and  C_4
REMARK    4  A    between atoms: C_4  and  C_6
REMARK    5  A    between atoms: C_6  and  C_7
REMARK                            x       y       z     vdW  Elec       q    Type
REMARK                         _______ _______ _______ _____ _____    ______ ____
ROOT
ATOM      1  C   UNL     1       3.967   2.825  17.971  0.00  0.00    +0.000 C 
ATOM      2  O   UNL     1       3.671   4.075  17.354  0.00  0.00    +0.000 OA
ATOM      3  C   UNL     1       4.699   4.975  17.455  0.00  0.00    +0.000 A 
ATOM      4  C   UNL     1       4.651   6.065  16.587  0.00  0.00    +0.000 A 
ATOM      5  C   UNL     1       5.669   7.018  16.619  0.00  0.00    +0.000 A 
ATOM      6  C   UNL     1       6.722   6.875  17.527  0.00  0.00    +0.000 A 
ATOM      7 CL   UNL     1       7.994   8.037  17.533  0.00  0.00    +0.000 Cl
ATOM      8  C   UNL     1       6.755   5.813  18.428  0.00  0.00    +0.000 A 
ATOM      9  C   UNL     1       5.735   4.867  18.393  0.00  0.00    +0.000 A 
ATOM     10  N   UNL     1       5.711   3.834  19.337  0.00  0.00    +0.000 N 
ATOM     11  C   UNL     1       4.755   2.849  19.292  0.00  0.00    +0.000 C 
ATOM     12  O   UNL     1       4.658   2.000  20.173  0.00  0.00    +0.000 OA
ATOM     13  H   UNL     1       6.336   3.836  20.132  0.00  0.00    +0.000 HD
ENDROOT
BRANCH   1  14
ATOM     14  C   UNL     1       2.684   2.012  18.083  0.00  0.00    +0.000 C 
BRANCH  14  15
ATOM     15  C   UNL     1       1.516   2.872  18.477  0.00  0.00    +0.000 C 
ATOM     16  O   UNL     1       0.817   3.528  17.717  0.00  0.00    +0.000 OA
BRANCH  15  17
ATOM     17  O   UNL     1       1.396   2.849  19.836  0.00  0.00    +0.000 OA
BRANCH  17  19
ATOM     18  C   UNL     1       2.150   4.892  20.812  0.00  0.00    +0.000 C 
ATOM     19  C   UNL     1       0.934   4.071  20.423  0.00  0.00    +0.000 C 
ENDBRANCH  17  19
ENDBRANCH  15  17
ENDBRANCH  14  15
ENDBRANCH   1  14
TORSDOF 4
ENDMDL
MODEL 2
REMARK VINA RESULT:      -7.0      3.645      5.731
REMARK  Name = 
REMARK  5 active torsions:
REMARK  status: ('A' for Active; 'I' for Inactive)
REMARK    1  A    between atoms: C_1  and  C_2
REMARK    2  A    between atoms: C_2  and  O_3
REMARK    3  A    between atoms: O_3  and  C_4
REMARK    4  A    between atoms: C_4  and  C_6
REMARK    5  A    between atoms: C_6  and  C_7
REMARK                            x       y       z     vdW  Elec       q    Type
REMARK                         _______ _______ _______ _____ _____    ______ ____
ROOT
ATOM      1  C   UNL     1       6.105   4.587  16.758  0.00  0.00    +0.000 C 
ATOM      2  O   UNL     1       4.918   3.849  16.480  0.00  0.00    +0.000 OA
ATOM      3  C   UNL     1       3.994   3.928  17.488  0.00  0.00    +0.000 A 
ATOM      4  C   UNL     1       2.691   3.556  17.160  0.00  0.00    +0.000 A 
ATOM      5  C   UNL     1       1.690   3.623  18.128  0.00  0.00    +0.000 A 
ATOM      6  C   UNL     1       2.004   4.054  19.420  0.00  0.00    +0.000 A 
ATOM      7 CL   UNL     1       0.754   4.168  20.600  0.00  0.00    +0.000 Cl
ATOM      8  C   UNL     1       3.312   4.385  19.769  0.00  0.00    +0.000 A 
ATOM      9  C   UNL     1       4.307   4.314  18.799  0.00  0.00    +0.000 A 
ATOM     10  N   UNL     1       5.638   4.571  19.147  0.00  0.00    +0.000 N 
ATOM     11  C   UNL     1       6.635   4.571  18.202  0.00  0.00    +0.000 C 
ATOM     12  O   UNL     1       7.818   4.690  18.508  0.00  0.00    +0.000 OA
ATOM     13  H   UNL     1       5.918   4.670  20.114  0.00  0.00    +0.000 HD
ENDROOT
BRANCH   1  14
ATOM     14  C   UNL     1       7.178   4.199  15.750  0.00  0.00    +0.000 C 
BRANCH  14  15
ATOM     15  C   UNL     1       6.777   4.559  14.346  0.00  0.00    +0.000 C 
ATOM     16  O   UNL     1       6.853   5.669  13.840  0.00  0.00    +0.000 OA
BRANCH  15  17
ATOM     17  O   UNL     1       6.255   3.451  13.745  0.00  0.00    +0.000 OA
BRANCH  17  19
ATOM     18  C   UNL     1       4.869   3.287  11.809  0.00  0.00    +0.000 C 
ATOM     19  C   UNL     1       6.290   3.468  12.313  0.00  0.00    +0.000 C 
ENDBRANCH  17  19
ENDBRANCH  15  17
ENDBRANCH  14  15
ENDBRANCH   1  14
TORSDOF 4
ENDMDL
MODEL 3
REMARK VINA RESULT:      -7.0      3.811      6.136
REMARK  Name = 
REMARK  5 active torsions:
REMARK  status: ('A' for Active; 'I' for Inactive)
REMARK    1  A    between atoms: C_1  and  C_2
REMARK    2  A    between atoms: C_2  and  O_3
REMARK    3  A    between atoms: O_3  and  C_4
REMARK    4  A    between atoms: C_4  and  C_6
REMARK    5  A    between atoms: C_6  and  C_7
REMARK                            x       y       z     vdW  Elec       q    Type
REMARK                         _______ _______ _______ _____ _____    ______ ____
ROOT
ATOM      1  C   UNL     1       5.581   4.724  15.999  0.00  0.00    +0.000 C 
ATOM      2  O   UNL     1       5.282   3.518  16.697  0.00  0.00    +0.000 OA
ATOM      3  C   UNL     1       4.200   3.640  17.529  0.00  0.00    +0.000 A 
ATOM      4  C   UNL     1       3.618   2.449  17.962  0.00  0.00    +0.000 A 
ATOM      5  C   UNL     1       2.505   2.489  18.799  0.00  0.00    +0.000 A 
ATOM      6  C   UNL     1       1.987   3.723  19.203  0.00  0.00    +0.000 A 
ATOM      7 CL   UNL     1       0.588   3.763  20.208  0.00  0.00    +0.000 Cl
ATOM      8  C   UNL     1       2.588   4.918  18.812  0.00  0.00    +0.000 A 
ATOM      9  C   UNL     1       3.701   4.870  17.978  0.00  0.00    +0.000 A 
ATOM     10  N   UNL     1       4.363   6.054  17.634  0.00  0.00    +0.000 N 
ATOM     11  C   UNL     1       5.426   6.049  16.764  0.00  0.00    +0.000 C 
ATOM     12  O   UNL     1       6.081   7.063  16.536  0.00  0.00    +0.000 OA
ATOM     13  H   UNL     1       4.140   6.931  18.087  0.00  0.00    +0.000 HD
ENDROOT
BRANCH   1  14
ATOM     14  C   UNL     1       6.953   4.593  15.352  0.00  0.00    +0.000 C 
BRANCH  14  15
ATOM     15  C   UNL     1       6.870   4.684  13.853  0.00  0.00    +0.000 C 
ATOM     16  O   UNL     1       7.629   5.309  13.128  0.00  0.00    +0.000 OA
BRANCH  15  17
ATOM     17  O   UNL     1       5.766   3.998  13.437  0.00  0.00    +0.000 OA
BRANCH  17  19
ATOM     18  C   UNL     1       4.552   3.177  11.554  0.00  0.00    +0.000 C 
ATOM     19  C   UNL     1       5.923   3.299  12.196  0.00  0.00    +0.000 C 
ENDBRANCH  17  19
ENDBRANCH  15  17
ENDBRANCH  14  15
ENDBRANCH   1  14
TORSDOF 4
ENDMDL
MODEL 4
REMARK VINA RESULT:      -6.9      3.743      6.290
REMARK  Name = 
REMARK  5 active torsions:
REMARK  status: ('A' for Active; 'I' for Inactive)
REMARK    1  A    between atoms: C_1  and  C_2
REMARK    2  A    between atoms: C_2  and  O_3
REMARK    3  A    between atoms: O_3  and  C_4
REMARK    4  A    between atoms: C_4  and  C_6
REMARK    5  A    between atoms: C_6  and  C_7
REMARK                            x       y       z     vdW  Elec       q    Type
REMARK                         _______ _______ _______ _____ _____    ______ ____
ROOT
ATOM      1  C   UNL     1       6.108   6.147  17.587  0.00  0.00    +0.000 C 
ATOM      2  O   UNL     1       4.724   6.466  17.471  0.00  0.00    +0.000 OA
ATOM      3  C   UNL     1       3.908   5.390  17.706  0.00  0.00    +0.000 A 
ATOM      4  C   UNL     1       2.571   5.678  17.973  0.00  0.00    +0.000 A 
ATOM      5  C   UNL     1       1.681   4.638  18.237  0.00  0.00    +0.000 A 
ATOM      6  C   UNL     1       2.136   3.316  18.222  0.00  0.00    +0.000 A 
ATOM      7 CL   UNL     1       1.037   2.040  18.586  0.00  0.00    +0.000 Cl
ATOM      8  C   UNL     1       3.462   3.017  17.913  0.00  0.00    +0.000 A 
ATOM      9  C   UNL     1       4.344   4.059  17.648  0.00  0.00    +0.000 A 
ATOM     10  N   UNL     1       5.660   3.776  17.263  0.00  0.00    +0.000 N 
ATOM     11  C   UNL     1       6.573   4.781  17.056  0.00  0.00    +0.000 C 
ATOM     12  O   UNL     1       7.697   4.554  16.617  0.00  0.00    +0.000 OA
ATOM     13  H   UNL     1       5.949   2.834  17.036  0.00  0.00    +0.000 HD
ENDROOT
BRANCH   1  14
ATOM     14  C   UNL     1       6.930   7.295  17.016  0.00  0.00    +0.000 C 
BRANCH  14  15
ATOM     15  C   UNL     1       7.981   7.760  17.986  0.00  0.00    +0.000 C 
ATOM     16  O   UNL     1       8.485   7.090  18.875  0.00  0.00    +0.000 OA
BRANCH  15  17
ATOM     17  O   UNL     1       8.240   9.078  17.746  0.00  0.00    +0.000 OA
BRANCH  17  19
ATOM     18  C   UNL     1       9.494  11.036  18.284  0.00  0.00    +0.000 C 
ATOM     19  C   UNL     1       8.840   9.784  18.840  0.00  0.00    +0.000 C 
ENDBRANCH  17  19
ENDBRANCH  15  17
ENDBRANCH  14  15
ENDBRANCH   1  14
TORSDOF 4
ENDMDL
MODEL 5
REMARK VINA RESULT:      -6.9      3.728      5.717
REMARK  Name = 
REMARK  5 active torsions:
REMARK  status: ('A' for Active; 'I' for Inactive)
REMARK    1  A    between atoms: C_1  and  C_2
REMARK    2  A    between atoms: C_2  and  O_3
REMARK    3  A    between atoms: O_3  and  C_4
REMARK    4  A    between atoms: C_4  and  C_6
REMARK    5  A    between atoms: C_6  and  C_7
REMARK                            x       y       z     vdW  Elec       q    Type
REMARK                         _______ _______ _______ _____ _____    ______ ____
ROOT
ATOM      1  C   UNL     1       5.829   4.381  15.931  0.00  0.00    +0.000 C 
ATOM      2  O   UNL     1       4.510   3.871  16.106  0.00  0.00    +0.000 OA
ATOM      3  C   UNL     1       3.927   4.293  17.271  0.00  0.00    +0.000 A 
ATOM      4  C   UNL     1       2.542   4.153  17.353  0.00  0.00    +0.000 A 
ATOM      5  C   UNL     1       1.873   4.572  18.502  0.00  0.00    +0.000 A 
ATOM      6  C   UNL     1       2.597   5.121  19.564  0.00  0.00    +0.000 A 
ATOM      7 CL   UNL     1       1.758   5.671  20.964  0.00  0.00    +0.000 Cl
ATOM      8  C   UNL     1       3.986   5.224  19.509  0.00  0.00    +0.000 A 
ATOM      9  C   UNL     1       4.648   4.801  18.360  0.00  0.00    +0.000 A 
ATOM     10  N   UNL     1       6.047   4.827  18.314  0.00  0.00    +0.000 N 
ATOM     11  C   UNL     1       6.729   4.476  17.175  0.00  0.00    +0.000 C 
ATOM     12  O   UNL     1       7.954   4.393  17.153  0.00  0.00    +0.000 OA
ATOM     13  H   UNL     1       6.596   5.013  19.144  0.00  0.00    +0.000 HD
ENDROOT
BRANCH   1  14
ATOM     14  C   UNL     1       6.504   3.629  14.792  0.00  0.00    +0.000 C 
BRANCH  14  15
ATOM     15  C   UNL     1       7.061   4.570  13.760  0.00  0.00    +0.000 C 
ATOM     16  O   UNL     1       7.688   5.595  13.985  0.00  0.00    +0.000 OA
BRANCH  15  17
ATOM     17  O   UNL     1       6.701   4.121  12.522  0.00  0.00    +0.000 OA
BRANCH  17  19
ATOM     18  C   UNL     1       4.617   3.434  11.584  0.00  0.00    +0.000 C 
ATOM     19  C   UNL     1       5.747   3.051  12.522  0.00  0.00    +0.000 C 
ENDBRANCH  17  19
ENDBRANCH  15  17
ENDBRANCH  14  15
ENDBRANCH   1  14
TORSDOF 4
ENDMDL
MODEL 6
REMARK VINA RESULT:      -6.9      3.441      5.853
REMARK  Name = 
REMARK  5 active torsions:
REMARK  status: ('A' for Active; 'I' for Inactive)
REMARK    1  A    between atoms: C_1  and  C_2
REMARK    2  A    between atoms: C_2  and  O_3
REMARK    3  A    between atoms: O_3  and  C_4
REMARK    4  A    between atoms: C_4  and  C_6
REMARK    5  A    between atoms: C_6  and  C_7
REMARK                            x       y       z     vdW  Elec       q    Type
REMARK                         _______ _______ _______ _____ _____    ______ ____
ROOT
ATOM      1  C   UNL     1       4.671   5.364  16.552  0.00  0.00    +0.000 C 
ATOM      2  O   UNL     1       4.194   4.023  16.614  0.00  0.00    +0.000 OA
ATOM      3  C   UNL     1       3.558   3.739  17.794  0.00  0.00    +0.000 A 
ATOM      4  C   UNL     1       2.755   2.600  17.802  0.00  0.00    +0.000 A 
ATOM      5  C   UNL     1       2.064   2.251  18.962  0.00  0.00    +0.000 A 
ATOM      6  C   UNL     1       2.189   3.043  20.107  0.00  0.00    +0.000 A 
ATOM      7 CL   UNL     1       1.302   2.625  21.524  0.00  0.00    +0.000 Cl
ATOM      8  C   UNL     1       3.025   4.158  20.122  0.00  0.00    +0.000 A 
ATOM      9  C   UNL     1       3.714   4.499  18.961  0.00  0.00    +0.000 A 
ATOM     10  N   UNL     1       4.614   5.571  18.977  0.00  0.00    +0.000 N 
ATOM     11  C   UNL     1       5.262   5.973  17.834  0.00  0.00    +0.000 C 
ATOM     12  O   UNL     1       6.131   6.840  17.854  0.00  0.00    +0.000 OA
ATOM     13  H   UNL     1       4.883   6.018  19.843  0.00  0.00    +0.000 HD
ENDROOT
BRANCH   1  14
ATOM     14  C   UNL     1       5.616   5.499  15.365  0.00  0.00    +0.000 C 
BRANCH  14  15
ATOM     15  C   UNL     1       6.705   4.463  15.403  0.00  0.00    +0.000 C 
ATOM     16  O   UNL     1       7.722   4.513  16.079  0.00  0.00    +0.000 OA
BRANCH  15  17
ATOM     17  O   UNL     1       6.399   3.478  14.509  0.00  0.00    +0.000 OA
BRANCH  17  19
ATOM     18  C   UNL     1       6.527   3.436  12.127  0.00  0.00    +0.000 C 
ATOM     19  C   UNL     1       5.730   3.924  13.323  0.00  0.00    +0.000 C 
ENDBRANCH  17  19
ENDBRANCH  15  17
ENDBRANCH  14  15
ENDBRANCH   1  14
TORSDOF 4
ENDMDL
MODEL 7
REMARK VINA RESULT:      -6.8      3.512      5.790
REMARK  Name = 
REMARK  5 active torsions:
REMARK  status: ('A' for Active; 'I' for Inactive)
REMARK    1  A    between atoms: C_1  and  C_2
REMARK    2  A    between atoms: C_2  and  O_3
REMARK    3  A    between atoms: O_3  and  C_4
REMARK    4  A    between atoms: C_4  and  C_6
REMARK    5  A    between atoms: C_6  and  C_7
REMARK                            x       y       z     vdW  Elec       q    Type
REMARK                         _______ _______ _______ _____ _____    ______ ____
ROOT
ATOM      1  C   UNL     1       5.585   4.244  16.886  0.00  0.00    +0.000 C 
ATOM      2  O   UNL     1       4.546   3.276  16.769  0.00  0.00    +0.000 OA
ATOM      3  C   UNL     1       3.807   3.147  17.915  0.00  0.00    +0.000 A 
ATOM      4  C   UNL     1       2.572   2.513  17.785  0.00  0.00    +0.000 A 
ATOM      5  C   UNL     1       1.756   2.355  18.904  0.00  0.00    +0.000 A 
ATOM      6  C   UNL     1       2.187   2.827  20.147  0.00  0.00    +0.000 A 
ATOM      7 CL   UNL     1       1.155   2.661  21.517  0.00  0.00    +0.000 Cl
ATOM      8  C   UNL     1       3.439   3.422  20.295  0.00  0.00    +0.000 A 
ATOM      9  C   UNL     1       4.250   3.573  19.175  0.00  0.00    +0.000 A 
ATOM     10  N   UNL     1       5.539   4.101  19.316  0.00  0.00    +0.000 N 
ATOM     11  C   UNL     1       6.341   4.322  18.223  0.00  0.00    +0.000 C 
ATOM     12  O   UNL     1       7.509   4.683  18.339  0.00  0.00    +0.000 OA
ATOM     13  H   UNL     1       5.950   4.244  20.229  0.00  0.00    +0.000 HD
ENDROOT
BRANCH   1  14
ATOM     14  C   UNL     1       6.530   4.102  15.700  0.00  0.00    +0.000 C 
BRANCH  14  15
ATOM     15  C   UNL     1       6.226   5.108  14.625  0.00  0.00    +0.000 C 
ATOM     16  O   UNL     1       5.564   6.126  14.760  0.00  0.00    +0.000 OA
BRANCH  15  17
ATOM     17  O   UNL     1       6.764   4.665  13.451  0.00  0.00    +0.000 OA
BRANCH  17  19
ATOM     18  C   UNL     1       5.021   3.659  12.170  0.00  0.00    +0.000 C 
ATOM     19  C   UNL     1       6.267   3.401  12.998  0.00  0.00    +0.000 C 
ENDBRANCH  17  19
ENDBRANCH  15  17
ENDBRANCH  14  15
ENDBRANCH   1  14
TORSDOF 4
ENDMDL
MODEL 8
REMARK VINA RESULT:      -6.7      3.222      5.490
REMARK  Name = 
REMARK  5 active torsions:
REMARK  status: ('A' for Active; 'I' for Inactive)
REMARK    1  A    between atoms: C_1  and  C_2
REMARK    2  A    between atoms: C_2  and  O_3
REMARK    3  A    between atoms: O_3  and  C_4
REMARK    4  A    between atoms: C_4  and  C_6
REMARK    5  A    between atoms: C_6  and  C_7
REMARK                            x       y       z     vdW  Elec       q    Type
REMARK                         _______ _______ _______ _____ _____    ______ ____
ROOT
ATOM      1  C   UNL     1       5.937   5.974  18.109  0.00  0.00    +0.000 C 
ATOM      2  O   UNL     1       4.535   6.014  17.861  0.00  0.00    +0.000 OA
ATOM      3  C   UNL     1       3.826   5.164  18.668  0.00  0.00    +0.000 A 
ATOM      4  C   UNL     1       2.454   5.396  18.755  0.00  0.00    +0.000 A 
ATOM      5  C   UNL     1       1.667   4.583  19.568  0.00  0.00    +0.000 A 
ATOM      6  C   UNL     1       2.259   3.537  20.282  0.00  0.00    +0.000 A 
ATOM      7 CL   UNL     1       1.283   2.560  21.313  0.00  0.00    +0.000 Cl
ATOM      8  C   UNL     1       3.622   3.270  20.167  0.00  0.00    +0.000 A 
ATOM      9  C   UNL     1       4.402   4.084  19.352  0.00  0.00    +0.000 A 
ATOM     10  N   UNL     1       5.757   3.788  19.165  0.00  0.00    +0.000 N 
ATOM     11  C   UNL     1       6.569   4.606  18.418  0.00  0.00    +0.000 C 
ATOM     12  O   UNL     1       7.730   4.304  18.159  0.00  0.00    +0.000 OA
ATOM     13  H   UNL     1       6.154   2.918  19.495  0.00  0.00    +0.000 HD
ENDROOT
BRANCH   1  14
ATOM     14  C   UNL     1       6.661   6.698  16.982  0.00  0.00    +0.000 C 
BRANCH  14  15
ATOM     15  C   UNL     1       6.067   6.369  15.641  0.00  0.00    +0.000 C 
ATOM     16  O   UNL     1       5.052   6.856  15.165  0.00  0.00    +0.000 OA
BRANCH  15  17
ATOM     17  O   UNL     1       6.819   5.389  15.060  0.00  0.00    +0.000 OA
BRANCH  17  19
ATOM     18  C   UNL     1       6.176   3.807  13.394  0.00  0.00    +0.000 C 
ATOM     19  C   UNL     1       6.144   4.139  14.875  0.00  0.00    +0.000 C 
ENDBRANCH  17  19
ENDBRANCH  15  17
ENDBRANCH  14  15
ENDBRANCH   1  14
TORSDOF 4
ENDMDL
MODEL 9
REMARK VINA RESULT:      -6.6      3.180      5.790
REMARK  Name = 
REMARK  5 active torsions:
REMARK  status: ('A' for Active; 'I' for Inactive)
REMARK    1  A    between atoms: C_1  and  C_2
REMARK    2  A    between atoms: C_2  and  O_3
REMARK    3  A    between atoms: O_3  and  C_4
REMARK    4  A    between atoms: C_4  and  C_6
REMARK    5  A    between atoms: C_6  and  C_7
REMARK                            x       y       z     vdW  Elec       q    Type
REMARK                         _______ _______ _______ _____ _____    ______ ____
ROOT
ATOM      1  C   UNL     1       4.690   5.033  16.640  0.00  0.00    +0.000 C 
ATOM      2  O   UNL     1       5.026   3.903  17.440  0.00  0.00    +0.000 OA
ATOM      3  C   UNL     1       4.156   3.709  18.480  0.00  0.00    +0.000 A 
ATOM      4  C   UNL     1       4.184   2.452  19.081  0.00  0.00    +0.000 A 
ATOM      5  C   UNL     1       3.317   2.173  20.137  0.00  0.00    +0.000 A 
ATOM      6  C   UNL     1       2.435   3.159  20.588  0.00  0.00    +0.000 A 
ATOM      7 CL   UNL     1       1.342   2.792  21.868  0.00  0.00    +0.000 Cl
ATOM      8  C   UNL     1       2.430   4.432  20.022  0.00  0.00    +0.000 A 
ATOM      9  C   UNL     1       3.300   4.705  18.970  0.00  0.00    +0.000 A 
ATOM     10  N   UNL     1       3.362   5.998  18.438  0.00  0.00    +0.000 N 
ATOM     11  C   UNL     1       4.163   6.286  17.359  0.00  0.00    +0.000 C 
ATOM     12  O   UNL     1       4.308   7.434  16.949  0.00  0.00    +0.000 OA
ATOM     13  H   UNL     1       2.896   6.774  18.888  0.00  0.00    +0.000 HD
ENDROOT
BRANCH   1  14
ATOM     14  C   UNL     1       5.859   5.352  15.717  0.00  0.00    +0.000 C 
BRANCH  14  15
ATOM     15  C   UNL     1       7.159   5.413  16.470  0.00  0.00    +0.000 C 
ATOM     16  O   UNL     1       7.752   4.462  16.959  0.00  0.00    +0.000 OA
BRANCH  15  17
ATOM     17  O   UNL     1       7.543   6.719  16.570  0.00  0.00    +0.000 OA
BRANCH  17  19
ATOM     18  C   UNL     1       7.994   8.683  17.847  0.00  0.00    +0.000 C 
ATOM     19  C   UNL     1       7.759   7.184  17.907  0.00  0.00    +0.000 C 
ENDBRANCH  17  19
ENDBRANCH  15  17
ENDBRANCH  14  15
ENDBRANCH   1  14
TORSDOF 4
ENDMDL
