MODEL 1
REMARK VINA RESULT:      -5.5      0.000      0.000
REMARK  Name = 
REMARK  8 active torsions:
REMARK  status: ('A' for Active; 'I' for Inactive)
REMARK    1  A    between atoms: C_1  and  N_2
REMARK    2  A    between atoms: C_6  and  S_7
REMARK    3  A    between atoms: S_7  and  C_8
REMARK    4  A    between atoms: C_8  and  C_9
REMARK    5  A    between atoms: N_11  and  C_12
REMARK    6  A    between atoms: C_12  and  C_13
REMARK    7  A    between atoms: C_12  and  C_14
REMARK    8  A    between atoms: C_12  and  C_15
REMARK                            x       y       z     vdW  Elec       q    Type
REMARK                         _______ _______ _______ _____ _____    ______ ____
ROOT
ATOM      1  C   UNL     1       3.168   5.978  17.934  0.00  0.00    +0.000 C 
ENDROOT
BRANCH   1   2
ATOM      2  C   UNL     1       4.599   6.056  17.424  0.00  0.00    +0.000 C 
ATOM      3  O   UNL     1       4.852   6.353  16.257  0.00  0.00    +0.000 OA
ATOM      4  N   UNL     1       5.577   5.813  18.376  0.00  0.00    +0.000 N 
ATOM      5  H   UNL     1       5.257   5.535  19.296  0.00  0.00    +0.000 HD
BRANCH   4   6
ATOM      6  C   UNL     1       7.026   5.789  18.111  0.00  0.00    +0.000 C 
ATOM      7  C   UNL     1       7.394   4.635  17.163  0.00  0.00    +0.000 C 
ATOM      8  C   UNL     1       7.426   7.113  17.433  0.00  0.00    +0.000 C 
ATOM      9  C   UNL     1       7.825   5.669  19.419  0.00  0.00    +0.000 C 
ENDBRANCH   4   6
ENDBRANCH   1   2
BRANCH   1  10
ATOM     10  S   UNL     1       2.475   4.321  17.628  0.00  0.00    +0.000 S 
BRANCH  10  16
ATOM     11  C   UNL     1       0.972   3.718  20.412  0.00  0.00    +0.000 C 
ATOM     12  N   UNL     1       2.319   3.269  20.148  0.00  0.00    +0.000 N 
ATOM     13  C   UNL     1       3.087   2.552  21.029  0.00  0.00    +0.000 A 
ATOM     14  C   UNL     1       4.275   2.337  20.370  0.00  0.00    +0.000 A 
ATOM     15  N   UNL     1       4.248   2.895  19.116  0.00  0.00    +0.000 NA
ATOM     16  C   UNL     1       3.062   3.455  19.013  0.00  0.00    +0.000 A 
ENDBRANCH  10  16
ENDBRANCH   1  10
TORSDOF 4
ENDMDL
MODEL 2
REMARK VINA RESULT:      -5.5      0.747      1.892
REMARK  Name = 
REMARK  8 active torsions:
REMARK  status: ('A' for Active; 'I' for Inactive)
REMARK    1  A    between atoms: C_1  and  N_2
REMARK    2  A    between atoms: C_6  and  S_7
REMARK    3  A    between atoms: S_7  and  C_8
REMARK    4  A    between atoms: C_8  and  C_9
REMARK    5  A    between atoms: N_11  and  C_12
REMARK    6  A    between atoms: C_12  and  C_13
REMARK    7  A    between atoms: C_12  and  C_14
REMARK    8  A    between atoms: C_12  and  C_15
REMARK                            x       y       z     vdW  Elec       q    Type
REMARK                         _______ _______ _______ _____ _____    ______ ____
ROOT
ATOM      1  C   UNL     1       3.129   6.147  18.089  0.00  0.00    +0.000 C 
ENDROOT
BRANCH   1   2
ATOM      2  C   UNL     1       4.541   6.207  17.528  0.00  0.00    +0.000 C 
ATOM      3  O   UNL     1       4.758   6.551  16.365  0.00  0.00    +0.000 OA
ATOM      4  N   UNL     1       5.547   5.894  18.428  0.00  0.00    +0.000 N 
ATOM      5  H   UNL     1       5.254   5.583  19.347  0.00  0.00    +0.000 HD
BRANCH   4   6
ATOM      6  C   UNL     1       6.984   5.841  18.105  0.00  0.00    +0.000 C 
ATOM      7  C   UNL     1       7.450   7.150  17.448  0.00  0.00    +0.000 C 
ATOM      8  C   UNL     1       7.776   5.650  19.412  0.00  0.00    +0.000 C 
ATOM      9  C   UNL     1       7.299   4.650  17.185  0.00  0.00    +0.000 C 
ENDBRANCH   4   6
ENDBRANCH   1   2
BRANCH   1  10
ATOM     10  S   UNL     1       2.419   4.487  17.844  0.00  0.00    +0.000 S 
BRANCH  10  16
ATOM     11  C   UNL     1       3.910   1.921  19.095  0.00  0.00    +0.000 C 
ATOM     12  N   UNL     1       3.063   2.784  19.885  0.00  0.00    +0.000 N 
ATOM     13  C   UNL     1       2.808   2.612  21.221  0.00  0.00    +0.000 A 
ATOM     14  C   UNL     1       1.972   3.651  21.558  0.00  0.00    +0.000 A 
ATOM     15  N   UNL     1       1.719   4.449  20.470  0.00  0.00    +0.000 NA
ATOM     16  C   UNL     1       2.381   3.899  19.476  0.00  0.00    +0.000 A 
ENDBRANCH  10  16
ENDBRANCH   1  10
TORSDOF 4
ENDMDL
MODEL 3
REMARK VINA RESULT:      -5.4      1.164      1.238
REMARK  Name = 
REMARK  8 active torsions:
REMARK  status: ('A' for Active; 'I' for Inactive)
REMARK    1  A    between atoms: C_1  and  N_2
REMARK    2  A    between atoms: C_6  and  S_7
REMARK    3  A    between atoms: S_7  and  C_8
REMARK    4  A    between atoms: C_8  and  C_9
REMARK    5  A    between atoms: N_11  and  C_12
REMARK    6  A    between atoms: C_12  and  C_13
REMARK    7  A    between atoms: C_12  and  C_14
REMARK    8  A    between atoms: C_12  and  C_15
REMARK                            x       y       z     vdW  Elec       q    Type
REMARK                         _______ _______ _______ _____ _____    ______ ____
ROOT
ATOM      1  C   UNL     1       3.227   6.459  17.964  0.00  0.00    +0.000 C 
ENDROOT
BRANCH   1   2
ATOM      2  C   UNL     1       4.649   6.439  17.427  0.00  0.00    +0.000 C 
ATOM      3  O   UNL     1       4.908   6.781  16.273  0.00  0.00    +0.000 OA
ATOM      4  N   UNL     1       5.617   6.054  18.341  0.00  0.00    +0.000 N 
ATOM      5  H   UNL     1       5.290   5.752  19.250  0.00  0.00    +0.000 HD
BRANCH   4   6
ATOM      6  C   UNL     1       7.054   5.916  18.041  0.00  0.00    +0.000 C 
ATOM      7  C   UNL     1       7.301   4.773  17.042  0.00  0.00    +0.000 C 
ATOM      8  C   UNL     1       7.554   7.227  17.406  0.00  0.00    +0.000 C 
ATOM      9  C   UNL     1       7.865   5.675  19.326  0.00  0.00    +0.000 C 
ENDBRANCH   4   6
ENDBRANCH   1   2
BRANCH   1  10
ATOM     10  S   UNL     1       3.139   5.586  19.561  0.00  0.00    +0.000 S 
BRANCH  10  16
ATOM     11  C   UNL     1       1.200   3.352  20.834  0.00  0.00    +0.000 C 
ATOM     12  N   UNL     1       2.013   3.096  19.668  0.00  0.00    +0.000 N 
ATOM     13  C   UNL     1       2.048   1.905  18.989  0.00  0.00    +0.000 A 
ATOM     14  C   UNL     1       2.937   2.110  17.961  0.00  0.00    +0.000 A 
ATOM     15  N   UNL     1       3.436   3.388  17.990  0.00  0.00    +0.000 NA
ATOM     16  C   UNL     1       2.869   3.956  19.033  0.00  0.00    +0.000 A 
ENDBRANCH  10  16
ENDBRANCH   1  10
TORSDOF 4
ENDMDL
MODEL 4
REMARK VINA RESULT:      -5.4      2.057      2.874
REMARK  Name = 
REMARK  8 active torsions:
REMARK  status: ('A' for Active; 'I' for Inactive)
REMARK    1  A    between atoms: C_1  and  N_2
REMARK    2  A    between atoms: C_6  and  S_7
REMARK    3  A    between atoms: S_7  and  C_8
REMARK    4  A    between atoms: C_8  and  C_9
REMARK    5  A    between atoms: N_11  and  C_12
REMARK    6  A    between atoms: C_12  and  C_13
REMARK    7  A    between atoms: C_12  and  C_14
REMARK    8  A    between atoms: C_12  and  C_15
REMARK                            x       y       z     vdW  Elec       q    Type
REMARK                         _______ _______ _______ _____ _____    ______ ____
ROOT
ATOM      1  C   UNL     1       3.747   2.007  18.527  0.00  0.00    +0.000 C 
ENDROOT
BRANCH   1   2
ATOM      2  C   UNL     1       4.721   3.169  18.416  0.00  0.00    +0.000 C 
ATOM      3  O   UNL     1       5.330   3.595  19.398  0.00  0.00    +0.000 OA
ATOM      4  N   UNL     1       4.899   3.668  17.136  0.00  0.00    +0.000 N 
ATOM      5  H   UNL     1       4.316   3.272  16.408  0.00  0.00    +0.000 HD
BRANCH   4   6
ATOM      6  C   UNL     1       5.756   4.816  16.789  0.00  0.00    +0.000 C 
ATOM      7  C   UNL     1       7.229   4.523  17.117  0.00  0.00    +0.000 C 
ATOM      8  C   UNL     1       5.643   5.075  15.274  0.00  0.00    +0.000 C 
ATOM      9  C   UNL     1       5.298   6.089  17.520  0.00  0.00    +0.000 C 
ENDBRANCH   4   6
ENDBRANCH   1   2
BRANCH   1  10
ATOM     10  S   UNL     1       2.044   2.574  18.209  0.00  0.00    +0.000 S 
BRANCH  10  16
ATOM     11  C   UNL     1       1.553   3.007  21.362  0.00  0.00    +0.000 C 
ATOM     12  N   UNL     1       1.792   4.108  20.459  0.00  0.00    +0.000 N 
ATOM     13  C   UNL     1       1.837   5.426  20.834  0.00  0.00    +0.000 A 
ATOM     14  C   UNL     1       2.093   6.116  19.672  0.00  0.00    +0.000 A 
ATOM     15  N   UNL     1       2.210   5.258  18.607  0.00  0.00    +0.000 NA
ATOM     16  C   UNL     1       2.016   4.057  19.109  0.00  0.00    +0.000 A 
ENDBRANCH  10  16
ENDBRANCH   1  10
TORSDOF 4
ENDMDL
MODEL 5
REMARK VINA RESULT:      -5.4      1.428      2.111
REMARK  Name = 
REMARK  8 active torsions:
REMARK  status: ('A' for Active; 'I' for Inactive)
REMARK    1  A    between atoms: C_1  and  N_2
REMARK    2  A    between atoms: C_6  and  S_7
REMARK    3  A    between atoms: S_7  and  C_8
REMARK    4  A    between atoms: C_8  and  C_9
REMARK    5  A    between atoms: N_11  and  C_12
REMARK    6  A    between atoms: C_12  and  C_13
REMARK    7  A    between atoms: C_12  and  C_14
REMARK    8  A    between atoms: C_12  and  C_15
REMARK                            x       y       z     vdW  Elec       q    Type
REMARK                         _______ _______ _______ _____ _____    ______ ____
ROOT
ATOM      1  C   UNL     1       2.726   4.980  17.749  0.00  0.00    +0.000 C 
ENDROOT
BRANCH   1   2
ATOM      2  C   UNL     1       4.206   5.286  17.925  0.00  0.00    +0.000 C 
ATOM      3  O   UNL     1       4.667   5.630  19.013  0.00  0.00    +0.000 OA
ATOM      4  N   UNL     1       4.983   5.103  16.793  0.00  0.00    +0.000 N 
ATOM      5  H   UNL     1       4.494   4.859  15.940  0.00  0.00    +0.000 HD
BRANCH   4   6
ATOM      6  C   UNL     1       6.429   5.376  16.708  0.00  0.00    +0.000 C 
ATOM      7  C   UNL     1       6.966   5.069  15.300  0.00  0.00    +0.000 C 
ATOM      8  C   UNL     1       6.667   6.870  16.998  0.00  0.00    +0.000 C 
ATOM      9  C   UNL     1       7.208   4.562  17.755  0.00  0.00    +0.000 C 
ENDBRANCH   4   6
ENDBRANCH   1   2
BRANCH   1  10
ATOM     10  S   UNL     1       2.436   3.183  17.828  0.00  0.00    +0.000 S 
BRANCH  10  16
ATOM     11  C   UNL     1       4.504   2.256  20.115  0.00  0.00    +0.000 C 
ATOM     12  N   UNL     1       3.123   2.563  20.402  0.00  0.00    +0.000 N 
ATOM     13  C   UNL     1       2.553   2.498  21.647  0.00  0.00    +0.000 A 
ATOM     14  C   UNL     1       1.244   2.875  21.458  0.00  0.00    +0.000 A 
ATOM     15  N   UNL     1       1.005   3.173  20.139  0.00  0.00    +0.000 NA
ATOM     16  C   UNL     1       2.151   2.968  19.526  0.00  0.00    +0.000 A 
ENDBRANCH  10  16
ENDBRANCH   1  10
TORSDOF 4
ENDMDL
MODEL 6
REMARK VINA RESULT:      -5.4      1.990      2.736
REMARK  Name = 
REMARK  8 active torsions:
REMARK  status: ('A' for Active; 'I' for Inactive)
REMARK    1  A    between atoms: C_1  and  N_2
REMARK    2  A    between atoms: C_6  and  S_7
REMARK    3  A    between atoms: S_7  and  C_8
REMARK    4  A    between atoms: C_8  and  C_9
REMARK    5  A    between atoms: N_11  and  C_12
REMARK    6  A    between atoms: C_12  and  C_13
REMARK    7  A    between atoms: C_12  and  C_14
REMARK    8  A    between atoms: C_12  and  C_15
REMARK                            x       y       z     vdW  Elec       q    Type
REMARK                         _______ _______ _______ _____ _____    ______ ____
ROOT
ATOM      1  C   UNL     1       3.813   2.492  18.379  0.00  0.00    +0.000 C 
ENDROOT
BRANCH   1   2
ATOM      2  C   UNL     1       4.964   3.482  18.288  0.00  0.00    +0.000 C 
ATOM      3  O   UNL     1       5.519   3.918  19.297  0.00  0.00    +0.000 OA
ATOM      4  N   UNL     1       5.358   3.809  17.001  0.00  0.00    +0.000 N 
ATOM      5  H   UNL     1       4.805   3.426  16.244  0.00  0.00    +0.000 HD
BRANCH   4   6
ATOM      6  C   UNL     1       6.417   4.777  16.662  0.00  0.00    +0.000 C 
ATOM      7  C   UNL     1       6.858   4.620  15.197  0.00  0.00    +0.000 C 
ATOM      8  C   UNL     1       5.862   6.201  16.848  0.00  0.00    +0.000 C 
ATOM      9  C   UNL     1       7.629   4.618  17.595  0.00  0.00    +0.000 C 
ENDBRANCH   4   6
ENDBRANCH   1   2
BRANCH   1  10
ATOM     10  S   UNL     1       2.266   3.263  17.802  0.00  0.00    +0.000 S 
BRANCH  10  16
ATOM     11  C   UNL     1       1.200   3.576  20.825  0.00  0.00    +0.000 C 
ATOM     12  N   UNL     1       1.732   4.690  20.074  0.00  0.00    +0.000 N 
ATOM     13  C   UNL     1       1.842   5.969  20.553  0.00  0.00    +0.000 A 
ATOM     14  C   UNL     1       2.397   6.687  19.519  0.00  0.00    +0.000 A 
ATOM     15  N   UNL     1       2.634   5.881  18.434  0.00  0.00    +0.000 NA
ATOM     16  C   UNL     1       2.216   4.687  18.793  0.00  0.00    +0.000 A 
ENDBRANCH  10  16
ENDBRANCH   1  10
TORSDOF 4
ENDMDL
MODEL 7
REMARK VINA RESULT:      -5.3      2.378      5.800
REMARK  Name = 
REMARK  8 active torsions:
REMARK  status: ('A' for Active; 'I' for Inactive)
REMARK    1  A    between atoms: C_1  and  N_2
REMARK    2  A    between atoms: C_6  and  S_7
REMARK    3  A    between atoms: S_7  and  C_8
REMARK    4  A    between atoms: C_8  and  C_9
REMARK    5  A    between atoms: N_11  and  C_12
REMARK    6  A    between atoms: C_12  and  C_13
REMARK    7  A    between atoms: C_12  and  C_14
REMARK    8  A    between atoms: C_12  and  C_15
REMARK                            x       y       z     vdW  Elec       q    Type
REMARK                         _______ _______ _______ _____ _____    ______ ____
ROOT
ATOM      1  C   UNL     1       5.395   4.530  19.110  0.00  0.00    +0.000 C 
ENDROOT
BRANCH   1   2
ATOM      2  C   UNL     1       4.421   3.506  19.671  0.00  0.00    +0.000 C 
ATOM      3  O   UNL     1       4.790   2.378  19.999  0.00  0.00    +0.000 OA
ATOM      4  N   UNL     1       3.119   3.954  19.824  0.00  0.00    +0.000 N 
ATOM      5  H   UNL     1       2.916   4.886  19.482  0.00  0.00    +0.000 HD
BRANCH   4   6
ATOM      6  C   UNL     1       1.994   3.133  20.305  0.00  0.00    +0.000 C 
ATOM      7  C   UNL     1       2.290   2.556  21.700  0.00  0.00    +0.000 C 
ATOM      8  C   UNL     1       0.742   4.024  20.409  0.00  0.00    +0.000 C 
ATOM      9  C   UNL     1       1.681   1.993  19.321  0.00  0.00    +0.000 C 
ENDBRANCH   4   6
ENDBRANCH   1   2
BRANCH   1  10
ATOM     10  S   UNL     1       4.588   5.533  17.821  0.00  0.00    +0.000 S 
BRANCH  10  16
ATOM     11  C   UNL     1       7.506   6.560  16.927  0.00  0.00    +0.000 C 
ATOM     12  N   UNL     1       6.754   5.601  16.152  0.00  0.00    +0.000 N 
ATOM     13  C   UNL     1       7.188   5.034  14.982  0.00  0.00    +0.000 A 
ATOM     14  C   UNL     1       6.172   4.189  14.600  0.00  0.00    +0.000 A 
ATOM     15  N   UNL     1       5.140   4.222  15.505  0.00  0.00    +0.000 NA
ATOM     16  C   UNL     1       5.514   5.086  16.424  0.00  0.00    +0.000 A 
ENDBRANCH  10  16
ENDBRANCH   1  10
TORSDOF 4
ENDMDL
MODEL 8
REMARK VINA RESULT:      -5.3      2.074      3.219
REMARK  Name = 
REMARK  8 active torsions:
REMARK  status: ('A' for Active; 'I' for Inactive)
REMARK    1  A    between atoms: C_1  and  N_2
REMARK    2  A    between atoms: C_6  and  S_7
REMARK    3  A    between atoms: S_7  and  C_8
REMARK    4  A    between atoms: C_8  and  C_9
REMARK    5  A    between atoms: N_11  and  C_12
REMARK    6  A    between atoms: C_12  and  C_13
REMARK    7  A    between atoms: C_12  and  C_14
REMARK    8  A    between atoms: C_12  and  C_15
REMARK                            x       y       z     vdW  Elec       q    Type
REMARK                         _______ _______ _______ _____ _____    ______ ____
ROOT
ATOM      1  C   UNL     1       3.971   2.624  18.924  0.00  0.00    +0.000 C 
ENDROOT
BRANCH   1   2
ATOM      2  C   UNL     1       5.024   3.607  18.435  0.00  0.00    +0.000 C 
ATOM      3  O   UNL     1       5.719   4.251  19.222  0.00  0.00    +0.000 OA
ATOM      4  N   UNL     1       5.164   3.682  17.059  0.00  0.00    +0.000 N 
ATOM      5  H   UNL     1       4.512   3.141  16.505  0.00  0.00    +0.000 HD
BRANCH   4   6
ATOM      6  C   UNL     1       6.084   4.592  16.352  0.00  0.00    +0.000 C 
ATOM      7  C   UNL     1       5.583   6.044  16.419  0.00  0.00    +0.000 C 
ATOM      8  C   UNL     1       7.463   4.527  17.035  0.00  0.00    +0.000 C 
ATOM      9  C   UNL     1       6.264   4.165  14.886  0.00  0.00    +0.000 C 
ENDBRANCH   4   6
ENDBRANCH   1   2
BRANCH   1  10
ATOM     10  S   UNL     1       2.315   3.138  18.365  0.00  0.00    +0.000 S 
BRANCH  10  16
ATOM     11  C   UNL     1       2.080   4.607  21.221  0.00  0.00    +0.000 C 
ATOM     12  N   UNL     1       2.244   5.339  19.987  0.00  0.00    +0.000 N 
ATOM     13  C   UNL     1       2.318   6.705  19.897  0.00  0.00    +0.000 A 
ATOM     14  C   UNL     1       2.477   6.963  18.555  0.00  0.00    +0.000 A 
ATOM     15  N   UNL     1       2.509   5.797  17.832  0.00  0.00    +0.000 NA
ATOM     16  C   UNL     1       2.358   4.837  18.718  0.00  0.00    +0.000 A 
ENDBRANCH  10  16
ENDBRANCH   1  10
TORSDOF 4
ENDMDL
MODEL 9
REMARK VINA RESULT:      -5.3      0.986      1.763
REMARK  Name = 
REMARK  8 active torsions:
REMARK  status: ('A' for Active; 'I' for Inactive)
REMARK    1  A    between atoms: C_1  and  N_2
REMARK    2  A    between atoms: C_6  and  S_7
REMARK    3  A    between atoms: S_7  and  C_8
REMARK    4  A    between atoms: C_8  and  C_9
REMARK    5  A    between atoms: N_11  and  C_12
REMARK    6  A    between atoms: C_12  and  C_13
REMARK    7  A    between atoms: C_12  and  C_14
REMARK    8  A    between atoms: C_12  and  C_15
REMARK                            x       y       z     vdW  Elec       q    Type
REMARK                         _______ _______ _______ _____ _____    ______ ____
ROOT
ATOM      1  C   UNL     1       3.203   5.264  17.885  0.00  0.00    +0.000 C 
ENDROOT
BRANCH   1   2
ATOM      2  C   UNL     1       4.675   5.037  17.575  0.00  0.00    +0.000 C 
ATOM      3  O   UNL     1       5.042   4.140  16.815  0.00  0.00    +0.000 OA
ATOM      4  N   UNL     1       5.547   5.933  18.171  0.00  0.00    +0.000 N 
ATOM      5  H   UNL     1       5.141   6.605  18.812  0.00  0.00    +0.000 HD
BRANCH   4   6
ATOM      6  C   UNL     1       7.016   5.888  18.055  0.00  0.00    +0.000 C 
ATOM      7  C   UNL     1       7.459   4.752  17.117  0.00  0.00    +0.000 C 
ATOM      8  C   UNL     1       7.505   7.222  17.461  0.00  0.00    +0.000 C 
ATOM      9  C   UNL     1       7.673   5.716  19.434  0.00  0.00    +0.000 C 
ENDBRANCH   4   6
ENDBRANCH   1   2
BRANCH   1  10
ATOM     10  S   UNL     1       2.286   3.692  17.796  0.00  0.00    +0.000 S 
BRANCH  10  16
ATOM     11  C   UNL     1       4.343   2.222  19.791  0.00  0.00    +0.000 C 
ATOM     12  N   UNL     1       3.048   2.690  20.225  0.00  0.00    +0.000 N 
ATOM     13  C   UNL     1       2.563   2.567  21.501  0.00  0.00    +0.000 A 
ATOM     14  C   UNL     1       1.316   3.147  21.464  0.00  0.00    +0.000 A 
ATOM     15  N   UNL     1       1.034   3.624  20.208  0.00  0.00    +0.000 NA
ATOM     16  C   UNL     1       2.090   3.328  19.482  0.00  0.00    +0.000 A 
ENDBRANCH  10  16
ENDBRANCH   1  10
TORSDOF 4
ENDMDL
