MODEL 1
REMARK VINA RESULT:      -6.9      0.000      0.000
REMARK  Name = 
REMARK  9 active torsions:
REMARK  status: ('A' for Active; 'I' for Inactive)
REMARK    1  A    between atoms: C_1  and  O_2
REMARK    2  A    between atoms: O_2  and  C_3
REMARK    3  A    between atoms: C_6  and  C_7
REMARK    4  A    between atoms: C_11  and  C_12
REMARK    5  A    between atoms: C_11  and  C_13
REMARK    6  A    between atoms: C_13  and  C_14
REMARK    7  A    between atoms: C_17  and  O_18
REMARK    8  A    between atoms: O_18  and  C_19
REMARK    9  A    between atoms: C_22  and  C_23
REMARK                            x       y       z     vdW  Elec       q    Type
REMARK                         _______ _______ _______ _____ _____    ______ ____
ROOT
ATOM      1  C   UNL     1      -3.380  11.335  17.676  0.00  0.00    +0.000 A 
ATOM      2  C   UNL     1      -2.880  10.310  16.850  0.00  0.00    +0.000 A 
ATOM      3  C   UNL     1      -1.607   9.753  17.032  0.00  0.00    +0.000 A 
ATOM      4  C   UNL     1      -0.776  10.218  18.044  0.00  0.00    +0.000 A 
ATOM      5  C   UNL     1       0.591   9.655  18.259  0.00  0.00    +0.000 C 
ATOM      6  C   UNL     1      -1.290  11.222  18.855  0.00  0.00    +0.000 A 
ATOM      7  C   UNL     1      -2.564  11.791  18.728  0.00  0.00    +0.000 A 
ATOM      8  N   UNL     1      -2.892  12.666  19.803  0.00  0.00    +0.000 N 
ATOM      9  C   UNL     1      -1.585  12.947  20.529  0.00  0.00    +0.000 C 
ATOM     10  C   UNL     1      -1.025  14.329  20.127  0.00  0.00    +0.000 C 
ATOM     11  C   UNL     1      -0.622  11.913  19.939  0.00  0.00    +0.000 C 
ATOM     12  O   UNL     1       0.545  11.719  20.234  0.00  0.00    +0.000 OA
ATOM     13  H   UNL     1      -3.497  13.444  19.549  0.00  0.00    +0.000 HD
ENDROOT
BRANCH   9  14
ATOM     14  C   UNL     1      -1.703  12.769  22.094  0.00  0.00    +0.000 C 
ATOM     15  C   UNL     1      -1.445  11.326  22.568  0.00  0.00    +0.000 C 
ATOM     16  N   UNL     1      -0.813  13.701  22.879  0.00  0.00    +0.000 N 
ATOM     17  C   UNL     1      -1.692  14.584  23.576  0.00  0.00    +0.000 A 
ATOM     18  C   UNL     1      -1.340  15.652  24.416  0.00  0.00    +0.000 A 
ATOM     19  C   UNL     1      -2.367  16.316  25.109  0.00  0.00    +0.000 A 
ATOM     20  C   UNL     1      -3.723  15.925  24.986  0.00  0.00    +0.000 A 
ATOM     21  C   UNL     1      -4.072  14.859  24.167  0.00  0.00    +0.000 A 
ATOM     22  C   UNL     1      -5.500  14.416  24.041  0.00  0.00    +0.000 C 
ATOM     23  C   UNL     1      -3.041  14.222  23.491  0.00  0.00    +0.000 A 
ATOM     24  C   UNL     1      -3.118  13.078  22.599  0.00  0.00    +0.000 C 
ATOM     25  O   UNL     1      -4.134  12.448  22.353  0.00  0.00    +0.000 OA
ATOM     26  H   UNL     1      -0.077  14.174  22.352  0.00  0.00    +0.000 HD
BRANCH  18  27
ATOM     27  O   UNL     1      -0.015  15.989  24.530  0.00  0.00    +0.000 OA
ATOM     28  C   UNL     1       0.421  17.078  23.713  0.00  0.00    +0.000 C 
ENDBRANCH  18  27
ENDBRANCH   9  14
BRANCH   1  30
ATOM     29  C   UNL     1      -5.735  11.169  17.948  0.00  0.00    +0.000 C 
ATOM     30  O   UNL     1      -4.607  11.923  17.484  0.00  0.00    +0.000 OA
ENDBRANCH   1  30
TORSDOF 3
ENDMDL
MODEL 2
REMARK VINA RESULT:      -6.7      1.089      1.212
REMARK  Name = 
REMARK  9 active torsions:
REMARK  status: ('A' for Active; 'I' for Inactive)
REMARK    1  A    between atoms: C_1  and  O_2
REMARK    2  A    between atoms: O_2  and  C_3
REMARK    3  A    between atoms: C_6  and  C_7
REMARK    4  A    between atoms: C_11  and  C_12
REMARK    5  A    between atoms: C_11  and  C_13
REMARK    6  A    between atoms: C_13  and  C_14
REMARK    7  A    between atoms: C_17  and  O_18
REMARK    8  A    between atoms: O_18  and  C_19
REMARK    9  A    between atoms: C_22  and  C_23
REMARK                            x       y       z     vdW  Elec       q    Type
REMARK                         _______ _______ _______ _____ _____    ______ ____
ROOT
ATOM      1  C   UNL     1      -2.651  11.233  18.151  0.00  0.00    +0.000 A 
ATOM      2  C   UNL     1      -1.880  10.221  17.547  0.00  0.00    +0.000 A 
ATOM      3  C   UNL     1      -0.630   9.831  18.049  0.00  0.00    +0.000 A 
ATOM      4  C   UNL     1      -0.098  10.455  19.169  0.00  0.00    +0.000 A 
ATOM      5  C   UNL     1       1.236  10.073  19.723  0.00  0.00    +0.000 C 
ATOM      6  C   UNL     1      -0.878  11.444  19.757  0.00  0.00    +0.000 A 
ATOM      7  C   UNL     1      -2.142  11.850  19.308  0.00  0.00    +0.000 A 
ATOM      8  N   UNL     1      -2.787  12.750  20.204  0.00  0.00    +0.000 N 
ATOM      9  C   UNL     1      -1.711  13.230  21.165  0.00  0.00    +0.000 C 
ATOM     10  C   UNL     1      -1.216  14.638  20.770  0.00  0.00    +0.000 C 
ATOM     11  C   UNL     1      -0.541  12.279  20.892  0.00  0.00    +0.000 C 
ATOM     12  O   UNL     1       0.543  12.243  21.447  0.00  0.00    +0.000 OA
ATOM     13  H   UNL     1      -3.395  13.432  19.756  0.00  0.00    +0.000 HD
ENDROOT
BRANCH   9  14
ATOM     14  C   UNL     1      -2.157  13.142  22.678  0.00  0.00    +0.000 C 
ATOM     15  C   UNL     1      -2.327  11.697  23.185  0.00  0.00    +0.000 C 
ATOM     16  N   UNL     1      -1.242  13.881  23.623  0.00  0.00    +0.000 N 
ATOM     17  C   UNL     1      -2.012  14.965  24.144  0.00  0.00    +0.000 A 
ATOM     18  C   UNL     1      -1.591  15.958  25.041  0.00  0.00    +0.000 A 
ATOM     19  C   UNL     1      -2.551  16.861  25.528  0.00  0.00    +0.000 A 
ATOM     20  C   UNL     1      -3.913  16.779  25.146  0.00  0.00    +0.000 A 
ATOM     21  C   UNL     1      -4.335  15.788  24.270  0.00  0.00    +0.000 A 
ATOM     22  C   UNL     1      -5.777  15.671  23.872  0.00  0.00    +0.000 C 
ATOM     23  C   UNL     1      -3.367  14.911  23.801  0.00  0.00    +0.000 A 
ATOM     24  C   UNL     1      -3.534  13.780  22.904  0.00  0.00    +0.000 C 
ATOM     25  O   UNL     1      -4.602  13.384  22.465  0.00  0.00    +0.000 OA
ATOM     26  H   UNL     1      -0.332  14.157  23.249  0.00  0.00    +0.000 HD
BRANCH  18  27
ATOM     27  O   UNL     1      -0.269  15.995  25.408  0.00  0.00    +0.000 OA
ATOM     28  C   UNL     1      -0.007  16.439  26.740  0.00  0.00    +0.000 C 
ENDBRANCH  18  27
ENDBRANCH   9  14
BRANCH   1  30
ATOM     29  C   UNL     1      -4.147  11.250  16.303  0.00  0.00    +0.000 C 
ATOM     30  O   UNL     1      -3.857  11.659  17.647  0.00  0.00    +0.000 OA
ENDBRANCH   1  30
TORSDOF 3
ENDMDL
MODEL 3
REMARK VINA RESULT:      -6.7      0.980      1.090
REMARK  Name = 
REMARK  9 active torsions:
REMARK  status: ('A' for Active; 'I' for Inactive)
REMARK    1  A    between atoms: C_1  and  O_2
REMARK    2  A    between atoms: O_2  and  C_3
REMARK    3  A    between atoms: C_6  and  C_7
REMARK    4  A    between atoms: C_11  and  C_12
REMARK    5  A    between atoms: C_11  and  C_13
REMARK    6  A    between atoms: C_13  and  C_14
REMARK    7  A    between atoms: C_17  and  O_18
REMARK    8  A    between atoms: O_18  and  C_19
REMARK    9  A    between atoms: C_22  and  C_23
REMARK                            x       y       z     vdW  Elec       q    Type
REMARK                         _______ _______ _______ _____ _____    ______ ____
ROOT
ATOM      1  C   UNL     1      -3.277  11.357  17.841  0.00  0.00    +0.000 A 
ATOM      2  C   UNL     1      -2.611  10.305  17.182  0.00  0.00    +0.000 A 
ATOM      3  C   UNL     1      -1.366   9.821  17.607  0.00  0.00    +0.000 A 
ATOM      4  C   UNL     1      -0.731  10.389  18.704  0.00  0.00    +0.000 A 
ATOM      5  C   UNL     1       0.601   9.907  19.178  0.00  0.00    +0.000 C 
ATOM      6  C   UNL     1      -1.407  11.419  19.348  0.00  0.00    +0.000 A 
ATOM      7  C   UNL     1      -2.662  11.918  18.976  0.00  0.00    +0.000 A 
ATOM      8  N   UNL     1      -3.193  12.845  19.918  0.00  0.00    +0.000 N 
ATOM      9  C   UNL     1      -2.035  13.234  20.824  0.00  0.00    +0.000 C 
ATOM     10  C   UNL     1      -1.466  14.611  20.420  0.00  0.00    +0.000 C 
ATOM     11  C   UNL     1      -0.951  12.210  20.473  0.00  0.00    +0.000 C 
ATOM     12  O   UNL     1       0.157  12.090  20.966  0.00  0.00    +0.000 OA
ATOM     13  H   UNL     1      -3.776  13.575  19.514  0.00  0.00    +0.000 HD
ENDROOT
BRANCH   9  14
ATOM     14  C   UNL     1      -2.402  13.152  22.358  0.00  0.00    +0.000 C 
ATOM     15  C   UNL     1      -2.082  11.785  22.993  0.00  0.00    +0.000 C 
ATOM     16  N   UNL     1      -1.763  14.234  23.193  0.00  0.00    +0.000 N 
ATOM     17  C   UNL     1      -2.837  15.054  23.655  0.00  0.00    +0.000 A 
ATOM     18  C   UNL     1      -2.749  16.212  24.443  0.00  0.00    +0.000 A 
ATOM     19  C   UNL     1      -3.943  16.797  24.897  0.00  0.00    +0.000 A 
ATOM     20  C   UNL     1      -5.210  16.241  24.588  0.00  0.00    +0.000 A 
ATOM     21  C   UNL     1      -5.299  15.088  23.820  0.00  0.00    +0.000 A 
ATOM     22  C   UNL     1      -6.630  14.472  23.502  0.00  0.00    +0.000 C 
ATOM     23  C   UNL     1      -4.106  14.531  23.382  0.00  0.00    +0.000 A 
ATOM     24  C   UNL     1      -3.908  13.327  22.594  0.00  0.00    +0.000 C 
ATOM     25  O   UNL     1      -4.795  12.566  22.241  0.00  0.00    +0.000 OA
ATOM     26  H   UNL     1      -1.001  14.753  22.753  0.00  0.00    +0.000 HD
BRANCH  18  27
ATOM     27  O   UNL     1      -1.506  16.710  24.743  0.00  0.00    +0.000 OA
ATOM     28  C   UNL     1      -1.135  16.664  26.122  0.00  0.00    +0.000 C 
ENDBRANCH  18  27
ENDBRANCH   9  14
BRANCH   1  30
ATOM     29  C   UNL     1      -5.646  11.166  17.844  0.00  0.00    +0.000 C 
ATOM     30  O   UNL     1      -4.476  11.873  17.411  0.00  0.00    +0.000 OA
ENDBRANCH   1  30
TORSDOF 3
ENDMDL
MODEL 4
REMARK VINA RESULT:      -6.6      3.533      6.522
REMARK  Name = 
REMARK  9 active torsions:
REMARK  status: ('A' for Active; 'I' for Inactive)
REMARK    1  A    between atoms: C_1  and  O_2
REMARK    2  A    between atoms: O_2  and  C_3
REMARK    3  A    between atoms: C_6  and  C_7
REMARK    4  A    between atoms: C_11  and  C_12
REMARK    5  A    between atoms: C_11  and  C_13
REMARK    6  A    between atoms: C_13  and  C_14
REMARK    7  A    between atoms: C_17  and  O_18
REMARK    8  A    between atoms: O_18  and  C_19
REMARK    9  A    between atoms: C_22  and  C_23
REMARK                            x       y       z     vdW  Elec       q    Type
REMARK                         _______ _______ _______ _____ _____    ______ ____
ROOT
ATOM      1  C   UNL     1       0.691  17.142  18.303  0.00  0.00    +0.000 A 
ATOM      2  C   UNL     1       1.802  17.502  17.516  0.00  0.00    +0.000 A 
ATOM      3  C   UNL     1       2.934  16.683  17.396  0.00  0.00    +0.000 A 
ATOM      4  C   UNL     1       3.000  15.474  18.078  0.00  0.00    +0.000 A 
ATOM      5  C   UNL     1       4.195  14.582  17.982  0.00  0.00    +0.000 C 
ATOM      6  C   UNL     1       1.891  15.131  18.840  0.00  0.00    +0.000 A 
ATOM      7  C   UNL     1       0.729  15.903  18.970  0.00  0.00    +0.000 A 
ATOM      8  N   UNL     1      -0.314  15.226  19.665  0.00  0.00    +0.000 N 
ATOM      9  C   UNL     1       0.337  14.025  20.334  0.00  0.00    +0.000 C 
ATOM     10  C   UNL     1       0.584  14.304  21.833  0.00  0.00    +0.000 C 
ATOM     11  C   UNL     1       1.722  13.964  19.682  0.00  0.00    +0.000 C 
ATOM     12  O   UNL     1       2.604  13.143  19.868  0.00  0.00    +0.000 OA
ATOM     13  H   UNL     1      -0.924  15.830  20.211  0.00  0.00    +0.000 HD
ENDROOT
BRANCH   9  14
ATOM     14  C   UNL     1      -0.454  12.681  20.086  0.00  0.00    +0.000 C 
ATOM     15  C   UNL     1      -1.919  12.901  19.662  0.00  0.00    +0.000 C 
ATOM     16  N   UNL     1       0.206  11.765  19.085  0.00  0.00    +0.000 N 
ATOM     17  C   UNL     1       0.619  10.614  19.823  0.00  0.00    +0.000 A 
ATOM     18  C   UNL     1       1.309   9.492  19.340  0.00  0.00    +0.000 A 
ATOM     19  C   UNL     1       1.504   8.408  20.212  0.00  0.00    +0.000 A 
ATOM     20  C   UNL     1       1.015   8.424  21.542  0.00  0.00    +0.000 A 
ATOM     21  C   UNL     1       0.319   9.527  22.018  0.00  0.00    +0.000 A 
ATOM     22  C   UNL     1      -0.227   9.552  23.416  0.00  0.00    +0.000 C 
ATOM     23  C   UNL     1       0.142  10.585  21.138  0.00  0.00    +0.000 A 
ATOM     24  C   UNL     1      -0.560  11.837  21.363  0.00  0.00    +0.000 C 
ATOM     25  O   UNL     1      -1.174  12.125  22.379  0.00  0.00    +0.000 OA
ATOM     26  H   UNL     1       0.942  12.179  18.510  0.00  0.00    +0.000 HD
BRANCH  18  27
ATOM     27  O   UNL     1       1.749   9.501  18.040  0.00  0.00    +0.000 OA
ATOM     28  C   UNL     1       2.460   8.336  17.618  0.00  0.00    +0.000 C 
ENDBRANCH  18  27
ENDBRANCH   9  14
BRANCH   1  30
ATOM     29  C   UNL     1      -0.860  18.629  17.287  0.00  0.00    +0.000 C 
ATOM     30  O   UNL     1      -0.406  17.952  18.468  0.00  0.00    +0.000 OA
ENDBRANCH   1  30
TORSDOF 3
ENDMDL
MODEL 5
REMARK VINA RESULT:      -6.2      3.141      5.544
REMARK  Name = 
REMARK  9 active torsions:
REMARK  status: ('A' for Active; 'I' for Inactive)
REMARK    1  A    between atoms: C_1  and  O_2
REMARK    2  A    between atoms: O_2  and  C_3
REMARK    3  A    between atoms: C_6  and  C_7
REMARK    4  A    between atoms: C_11  and  C_12
REMARK    5  A    between atoms: C_11  and  C_13
REMARK    6  A    between atoms: C_13  and  C_14
REMARK    7  A    between atoms: C_17  and  O_18
REMARK    8  A    between atoms: O_18  and  C_19
REMARK    9  A    between atoms: C_22  and  C_23
REMARK                            x       y       z     vdW  Elec       q    Type
REMARK                         _______ _______ _______ _____ _____    ______ ____
ROOT
ATOM      1  C   UNL     1      -0.974  11.397  22.774  0.00  0.00    +0.000 A 
ATOM      2  C   UNL     1      -0.772  10.103  23.294  0.00  0.00    +0.000 A 
ATOM      3  C   UNL     1      -0.021   9.132  22.618  0.00  0.00    +0.000 A 
ATOM      4  C   UNL     1       0.542   9.416  21.381  0.00  0.00    +0.000 A 
ATOM      5  C   UNL     1       1.338   8.401  20.627  0.00  0.00    +0.000 C 
ATOM      6  C   UNL     1       0.341  10.700  20.889  0.00  0.00    +0.000 A 
ATOM      7  C   UNL     1      -0.379  11.711  21.539  0.00  0.00    +0.000 A 
ATOM      8  N   UNL     1      -0.270  12.975  20.891  0.00  0.00    +0.000 N 
ATOM      9  C   UNL     1       0.306  12.692  19.511  0.00  0.00    +0.000 C 
ATOM     10  C   UNL     1      -0.808  12.710  18.442  0.00  0.00    +0.000 C 
ATOM     11  C   UNL     1       0.771  11.237  19.613  0.00  0.00    +0.000 C 
ATOM     12  O   UNL     1       1.335  10.567  18.765  0.00  0.00    +0.000 OA
ATOM     13  H   UNL     1      -1.093  13.568  20.974  0.00  0.00    +0.000 HD
ENDROOT
BRANCH   9  14
ATOM     14  C   UNL     1       1.517  13.639  19.147  0.00  0.00    +0.000 C 
ATOM     15  C   UNL     1       2.623  12.936  18.338  0.00  0.00    +0.000 C 
ATOM     16  N   UNL     1       1.106  14.893  18.415  0.00  0.00    +0.000 N 
ATOM     17  C   UNL     1       1.386  15.973  19.306  0.00  0.00    +0.000 A 
ATOM     18  C   UNL     1       1.147  17.339  19.093  0.00  0.00    +0.000 A 
ATOM     19  C   UNL     1       1.620  18.252  20.052  0.00  0.00    +0.000 A 
ATOM     20  C   UNL     1       2.330  17.825  21.201  0.00  0.00    +0.000 A 
ATOM     21  C   UNL     1       2.581  16.474  21.407  0.00  0.00    +0.000 A 
ATOM     22  C   UNL     1       3.351  16.005  22.606  0.00  0.00    +0.000 C 
ATOM     23  C   UNL     1       2.101  15.594  20.448  0.00  0.00    +0.000 A 
ATOM     24  C   UNL     1       2.240  14.149  20.400  0.00  0.00    +0.000 C 
ATOM     25  O   UNL     1       2.877  13.479  21.198  0.00  0.00    +0.000 OA
ATOM     26  H   UNL     1       0.159  14.903  18.031  0.00  0.00    +0.000 HD
BRANCH  18  27
ATOM     27  O   UNL     1       0.476  17.721  17.959  0.00  0.00    +0.000 OA
ATOM     28  C   UNL     1       1.285  18.252  16.909  0.00  0.00    +0.000 C 
ENDBRANCH  18  27
ENDBRANCH   9  14
BRANCH   1  30
ATOM     29  C   UNL     1      -3.143  12.316  23.090  0.00  0.00    +0.000 C 
ATOM     30  O   UNL     1      -1.743  12.346  23.402  0.00  0.00    +0.000 OA
ENDBRANCH   1  30
TORSDOF 3
ENDMDL
MODEL 6
REMARK VINA RESULT:      -6.2      2.529      5.741
REMARK  Name = 
REMARK  9 active torsions:
REMARK  status: ('A' for Active; 'I' for Inactive)
REMARK    1  A    between atoms: C_1  and  O_2
REMARK    2  A    between atoms: O_2  and  C_3
REMARK    3  A    between atoms: C_6  and  C_7
REMARK    4  A    between atoms: C_11  and  C_12
REMARK    5  A    between atoms: C_11  and  C_13
REMARK    6  A    between atoms: C_13  and  C_14
REMARK    7  A    between atoms: C_17  and  O_18
REMARK    8  A    between atoms: O_18  and  C_19
REMARK    9  A    between atoms: C_22  and  C_23
REMARK                            x       y       z     vdW  Elec       q    Type
REMARK                         _______ _______ _______ _____ _____    ______ ____
ROOT
ATOM      1  C   UNL     1      -6.739  12.638  22.471  0.00  0.00    +0.000 A 
ATOM      2  C   UNL     1      -7.758  12.032  21.711  0.00  0.00    +0.000 A 
ATOM      3  C   UNL     1      -7.536  11.532  20.421  0.00  0.00    +0.000 A 
ATOM      4  C   UNL     1      -6.281  11.638  19.834  0.00  0.00    +0.000 A 
ATOM      5  C   UNL     1      -6.013  11.127  18.456  0.00  0.00    +0.000 C 
ATOM      6  C   UNL     1      -5.286  12.229  20.602  0.00  0.00    +0.000 A 
ATOM      7  C   UNL     1      -5.453  12.719  21.904  0.00  0.00    +0.000 A 
ATOM      8  N   UNL     1      -4.226  13.105  22.515  0.00  0.00    +0.000 N 
ATOM      9  C   UNL     1      -3.203  13.179  21.391  0.00  0.00    +0.000 C 
ATOM     10  C   UNL     1      -2.967  14.645  20.965  0.00  0.00    +0.000 C 
ATOM     11  C   UNL     1      -3.917  12.507  20.216  0.00  0.00    +0.000 C 
ATOM     12  O   UNL     1      -3.485  12.294  19.096  0.00  0.00    +0.000 OA
ATOM     13  H   UNL     1      -4.302  13.880  23.170  0.00  0.00    +0.000 HD
ENDROOT
BRANCH   9  14
ATOM     14  C   UNL     1      -1.860  12.420  21.734  0.00  0.00    +0.000 C 
ATOM     15  C   UNL     1      -1.932  11.606  23.040  0.00  0.00    +0.000 C 
ATOM     16  N   UNL     1      -1.375  11.517  20.627  0.00  0.00    +0.000 N 
ATOM     17  C   UNL     1      -0.157  12.095  20.158  0.00  0.00    +0.000 A 
ATOM     18  C   UNL     1       0.657  11.637  19.111  0.00  0.00    +0.000 A 
ATOM     19  C   UNL     1       1.887  12.283  18.897  0.00  0.00    +0.000 A 
ATOM     20  C   UNL     1       2.315  13.360  19.712  0.00  0.00    +0.000 A 
ATOM     21  C   UNL     1       1.518  13.805  20.758  0.00  0.00    +0.000 A 
ATOM     22  C   UNL     1       1.964  14.929  21.647  0.00  0.00    +0.000 C 
ATOM     23  C   UNL     1       0.307  13.153  20.947  0.00  0.00    +0.000 A 
ATOM     24  C   UNL     1      -0.698  13.394  21.967  0.00  0.00    +0.000 C 
ATOM     25  O   UNL     1      -0.591  14.197  22.881  0.00  0.00    +0.000 OA
ATOM     26  H   UNL     1      -2.049  11.305  19.889  0.00  0.00    +0.000 HD
BRANCH  18  27
ATOM     27  O   UNL     1       0.223  10.577  18.355  0.00  0.00    +0.000 OA
ATOM     28  C   UNL     1       1.158   9.510  18.188  0.00  0.00    +0.000 C 
ENDBRANCH  18  27
ENDBRANCH   9  14
BRANCH   1  30
ATOM     29  C   UNL     1      -7.649  14.426  23.747  0.00  0.00    +0.000 C 
ATOM     30  O   UNL     1      -6.949  13.173  23.719  0.00  0.00    +0.000 OA
ENDBRANCH   1  30
TORSDOF 3
ENDMDL
MODEL 7
REMARK VINA RESULT:      -6.2      2.934      6.698
REMARK  Name = 
REMARK  9 active torsions:
REMARK  status: ('A' for Active; 'I' for Inactive)
REMARK    1  A    between atoms: C_1  and  O_2
REMARK    2  A    between atoms: O_2  and  C_3
REMARK    3  A    between atoms: C_6  and  C_7
REMARK    4  A    between atoms: C_11  and  C_12
REMARK    5  A    between atoms: C_11  and  C_13
REMARK    6  A    between atoms: C_13  and  C_14
REMARK    7  A    between atoms: C_17  and  O_18
REMARK    8  A    between atoms: O_18  and  C_19
REMARK    9  A    between atoms: C_22  and  C_23
REMARK                            x       y       z     vdW  Elec       q    Type
REMARK                         _______ _______ _______ _____ _____    ______ ____
ROOT
ATOM      1  C   UNL     1       2.368  14.984  21.578  0.00  0.00    +0.000 A 
ATOM      2  C   UNL     1       2.168  16.368  21.415  0.00  0.00    +0.000 A 
ATOM      3  C   UNL     1       1.312  16.893  20.437  0.00  0.00    +0.000 A 
ATOM      4  C   UNL     1       0.635  16.045  19.570  0.00  0.00    +0.000 A 
ATOM      5  C   UNL     1      -0.275  16.571  18.508  0.00  0.00    +0.000 C 
ATOM      6  C   UNL     1       0.837  14.683  19.752  0.00  0.00    +0.000 A 
ATOM      7  C   UNL     1       1.661  14.111  20.730  0.00  0.00    +0.000 A 
ATOM      8  N   UNL     1       1.537  12.694  20.802  0.00  0.00    +0.000 N 
ATOM      9  C   UNL     1       0.810  12.270  19.535  0.00  0.00    +0.000 C 
ATOM     10  C   UNL     1       1.806  11.711  18.497  0.00  0.00    +0.000 C 
ATOM     11  C   UNL     1       0.299  13.594  18.960  0.00  0.00    +0.000 C 
ATOM     12  O   UNL     1      -0.378  13.768  17.962  0.00  0.00    +0.000 OA
ATOM     13  H   UNL     1       2.388  12.206  21.074  0.00  0.00    +0.000 HD
ENDROOT
BRANCH   9  14
ATOM     14  C   UNL     1      -0.392  11.286  19.819  0.00  0.00    +0.000 C 
ATOM     15  C   UNL     1      -0.019  10.112  20.743  0.00  0.00    +0.000 C 
ATOM     16  N   UNL     1      -1.617  11.969  20.377  0.00  0.00    +0.000 N 
ATOM     17  C   UNL     1      -2.621  11.853  19.368  0.00  0.00    +0.000 A 
ATOM     18  C   UNL     1      -3.929  12.361  19.404  0.00  0.00    +0.000 A 
ATOM     19  C   UNL     1      -4.800  12.020  18.355  0.00  0.00    +0.000 A 
ATOM     20  C   UNL     1      -4.392  11.178  17.291  0.00  0.00    +0.000 A 
ATOM     21  C   UNL     1      -3.104  10.662  17.261  0.00  0.00    +0.000 A 
ATOM     22  C   UNL     1      -2.661   9.751  16.155  0.00  0.00    +0.000 C 
ATOM     23  C   UNL     1      -2.262  11.016  18.306  0.00  0.00    +0.000 A 
ATOM     24  C   UNL     1      -0.887  10.605  18.536  0.00  0.00    +0.000 C 
ATOM     25  O   UNL     1      -0.269   9.808  17.848  0.00  0.00    +0.000 OA
ATOM     26  H   UNL     1      -1.484  12.920  20.726  0.00  0.00    +0.000 HD
BRANCH  18  27
ATOM     27  O   UNL     1      -4.298  13.155  20.460  0.00  0.00    +0.000 OA
ATOM     28  C   UNL     1      -5.230  12.575  21.375  0.00  0.00    +0.000 C 
ENDBRANCH  18  27
ENDBRANCH   9  14
BRANCH   1  30
ATOM     29  C   UNL     1       4.435  15.209  22.730  0.00  0.00    +0.000 C 
ATOM     30  O   UNL     1       3.237  14.454  22.501  0.00  0.00    +0.000 OA
ENDBRANCH   1  30
TORSDOF 3
ENDMDL
MODEL 8
REMARK VINA RESULT:      -6.1      3.893      7.632
REMARK  Name = 
REMARK  9 active torsions:
REMARK  status: ('A' for Active; 'I' for Inactive)
REMARK    1  A    between atoms: C_1  and  O_2
REMARK    2  A    between atoms: O_2  and  C_3
REMARK    3  A    between atoms: C_6  and  C_7
REMARK    4  A    between atoms: C_11  and  C_12
REMARK    5  A    between atoms: C_11  and  C_13
REMARK    6  A    between atoms: C_13  and  C_14
REMARK    7  A    between atoms: C_17  and  O_18
REMARK    8  A    between atoms: O_18  and  C_19
REMARK    9  A    between atoms: C_22  and  C_23
REMARK                            x       y       z     vdW  Elec       q    Type
REMARK                         _______ _______ _______ _____ _____    ______ ____
ROOT
ATOM      1  C   UNL     1       2.668  15.202  22.059  0.00  0.00    +0.000 A 
ATOM      2  C   UNL     1       2.194  16.467  22.457  0.00  0.00    +0.000 A 
ATOM      3  C   UNL     1       1.180  17.141  21.764  0.00  0.00    +0.000 A 
ATOM      4  C   UNL     1       0.611  16.577  20.629  0.00  0.00    +0.000 A 
ATOM      5  C   UNL     1      -0.463  17.272  19.859  0.00  0.00    +0.000 C 
ATOM      6  C   UNL     1       1.084  15.324  20.257  0.00  0.00    +0.000 A 
ATOM      7  C   UNL     1       2.076  14.601  20.932  0.00  0.00    +0.000 A 
ATOM      8  N   UNL     1       2.232  13.275  20.436  0.00  0.00    +0.000 N 
ATOM      9  C   UNL     1       1.503  13.236  19.102  0.00  0.00    +0.000 C 
ATOM     10  C   UNL     1       2.503  13.344  17.931  0.00  0.00    +0.000 C 
ATOM     11  C   UNL     1       0.704  14.543  19.097  0.00  0.00    +0.000 C 
ATOM     12  O   UNL     1      -0.070  14.947  18.246  0.00  0.00    +0.000 OA
ATOM     13  H   UNL     1       3.180  12.908  20.496  0.00  0.00    +0.000 HD
ENDROOT
BRANCH   9  14
ATOM     14  C   UNL     1       0.537  11.994  18.968  0.00  0.00    +0.000 C 
ATOM     15  C   UNL     1      -0.814  12.334  18.310  0.00  0.00    +0.000 C 
ATOM     16  N   UNL     1       1.150  10.826  18.234  0.00  0.00    +0.000 N 
ATOM     17  C   UNL     1       1.284   9.784  19.201  0.00  0.00    +0.000 A 
ATOM     18  C   UNL     1       1.833   8.508  19.010  0.00  0.00    +0.000 A 
ATOM     19  C   UNL     1       1.748   7.585  20.067  0.00  0.00    +0.000 A 
ATOM     20  C   UNL     1       1.118   7.912  21.293  0.00  0.00    +0.000 A 
ATOM     21  C   UNL     1       0.560   9.170  21.479  0.00  0.00    +0.000 A 
ATOM     22  C   UNL     1      -0.131   9.527  22.762  0.00  0.00    +0.000 C 
ATOM     23  C   UNL     1       0.660  10.064  20.422  0.00  0.00    +0.000 A 
ATOM     24  C   UNL     1       0.150  11.421  20.337  0.00  0.00    +0.000 C 
ATOM     25  O   UNL     1      -0.522  11.973  21.195  0.00  0.00    +0.000 OA
ATOM     26  H   UNL     1       2.005  11.021  17.709  0.00  0.00    +0.000 HD
BRANCH  18  27
ATOM     27  O   UNL     1       2.416   8.216  17.802  0.00  0.00    +0.000 OA
ATOM     28  C   UNL     1       3.410   7.191  17.825  0.00  0.00    +0.000 C 
ENDBRANCH  18  27
ENDBRANCH   9  14
BRANCH   1  30
ATOM     29  C   UNL     1       4.793  15.370  23.110  0.00  0.00    +0.000 C 
ATOM     30  O   UNL     1       3.692  14.547  22.700  0.00  0.00    +0.000 OA
ENDBRANCH   1  30
TORSDOF 3
ENDMDL
MODEL 9
REMARK VINA RESULT:      -6.1      3.315      6.153
REMARK  Name = 
REMARK  9 active torsions:
REMARK  status: ('A' for Active; 'I' for Inactive)
REMARK    1  A    between atoms: C_1  and  O_2
REMARK    2  A    between atoms: O_2  and  C_3
REMARK    3  A    between atoms: C_6  and  C_7
REMARK    4  A    between atoms: C_11  and  C_12
REMARK    5  A    between atoms: C_11  and  C_13
REMARK    6  A    between atoms: C_13  and  C_14
REMARK    7  A    between atoms: C_17  and  O_18
REMARK    8  A    between atoms: O_18  and  C_19
REMARK    9  A    between atoms: C_22  and  C_23
REMARK                            x       y       z     vdW  Elec       q    Type
REMARK                         _______ _______ _______ _____ _____    ______ ____
ROOT
ATOM      1  C   UNL     1       1.765   8.617  19.376  0.00  0.00    +0.000 A 
ATOM      2  C   UNL     1       1.561   7.681  20.408  0.00  0.00    +0.000 A 
ATOM      3  C   UNL     1       0.939   8.022  21.618  0.00  0.00    +0.000 A 
ATOM      4  C   UNL     1       0.512   9.324  21.844  0.00  0.00    +0.000 A 
ATOM      5  C   UNL     1      -0.143   9.725  23.126  0.00  0.00    +0.000 C 
ATOM      6  C   UNL     1       0.713  10.230  20.810  0.00  0.00    +0.000 A 
ATOM      7  C   UNL     1       1.305   9.931  19.576  0.00  0.00    +0.000 A 
ATOM      8  N   UNL     1       1.216  11.003  18.643  0.00  0.00    +0.000 N 
ATOM      9  C   UNL     1       0.820  12.231  19.449  0.00  0.00    +0.000 C 
ATOM     10  C   UNL     1       2.049  13.124  19.721  0.00  0.00    +0.000 C 
ATOM     11  C   UNL     1       0.411  11.648  20.805  0.00  0.00    +0.000 C 
ATOM     12  O   UNL     1      -0.019  12.241  21.778  0.00  0.00    +0.000 OA
ATOM     13  H   UNL     1       1.997  11.066  17.992  0.00  0.00    +0.000 HD
ENDROOT
BRANCH   9  14
ATOM     14  C   UNL     1      -0.381  13.027  18.801  0.00  0.00    +0.000 C 
ATOM     15  C   UNL     1      -0.072  14.518  18.565  0.00  0.00    +0.000 C 
ATOM     16  N   UNL     1      -0.881  12.426  17.510  0.00  0.00    +0.000 N 
ATOM     17  C   UNL     1      -2.202  11.958  17.784  0.00  0.00    +0.000 A 
ATOM     18  C   UNL     1      -3.070  11.293  16.906  0.00  0.00    +0.000 A 
ATOM     19  C   UNL     1      -4.382  11.034  17.341  0.00  0.00    +0.000 A 
ATOM     20  C   UNL     1      -4.835  11.436  18.621  0.00  0.00    +0.000 A 
ATOM     21  C   UNL     1      -3.982  12.108  19.486  0.00  0.00    +0.000 A 
ATOM     22  C   UNL     1      -4.452  12.562  20.837  0.00  0.00    +0.000 C 
ATOM     23  C   UNL     1      -2.692  12.349  19.035  0.00  0.00    +0.000 A 
ATOM     24  C   UNL     1      -1.613  13.044  19.715  0.00  0.00    +0.000 C 
ATOM     25  O   UNL     1      -1.708  13.592  20.802  0.00  0.00    +0.000 OA
ATOM     26  H   UNL     1      -0.274  11.732  17.070  0.00  0.00    +0.000 HD
BRANCH  18  27
ATOM     27  O   UNL     1      -2.606  10.937  15.665  0.00  0.00    +0.000 OA
ATOM     28  C   UNL     1      -3.580  10.402  14.767  0.00  0.00    +0.000 C 
ENDBRANCH  18  27
ENDBRANCH   9  14
BRANCH   1  30
ATOM     29  C   UNL     1       2.979   6.995  18.132  0.00  0.00    +0.000 C 
ATOM     30  O   UNL     1       2.412   8.311  18.203  0.00  0.00    +0.000 OA
ENDBRANCH   1  30
TORSDOF 3
ENDMDL
