MODEL 1
REMARK VINA RESULT:      -6.7      0.000      0.000
REMARK  Name = 
REMARK  10 active torsions:
REMARK  status: ('A' for Active; 'I' for Inactive)
REMARK    1  A    between atoms: C_1  and  C_2
REMARK    2  A    between atoms: C_4  and  C_5
REMARK    3  A    between atoms: C_8  and  N_9
REMARK    4  A    between atoms: C_14  and  C_15
REMARK    5  A    between atoms: C_15  and  C_17
REMARK    6  A    between atoms: C_22  and  C_23
REMARK    7  A    between atoms: C_28  and  O_29
REMARK    8  A    between atoms: O_29  and  C_30
REMARK    9  A    between atoms: C_30  and  C_31
REMARK   10  A    between atoms: C_30  and  C_32
REMARK                            x       y       z     vdW  Elec       q    Type
REMARK                         _______ _______ _______ _____ _____    ______ ____
ROOT
ATOM      1  N   UNL     1       9.825  13.107  18.460  0.00  0.00    +0.000 N 
ATOM      2  C   UNL     1      11.001  13.434  17.787  0.00  0.00    +0.000 C 
ATOM      3  O   UNL     1      11.718  12.777  17.068  0.00  0.00    +0.000 OA
ATOM      4  C   UNL     1      11.330  14.885  18.102  0.00  0.00    +0.000 C 
ATOM      5  O   UNL     1      12.332  15.439  17.685  0.00  0.00    +0.000 OA
ATOM      6  C   UNL     1      10.253  15.521  18.916  0.00  0.00    +0.000 C 
ATOM      7  C   UNL     1       9.289  14.306  19.140  0.00  0.00    +0.000 C 
ENDROOT
BRANCH   1  11
ATOM      8  C   UNL     1       8.289   9.092  18.137  0.00  0.00    +0.000 A 
ATOM      9  C   UNL     1       7.704  10.138  17.424  0.00  0.00    +0.000 A 
ATOM     10  C   UNL     1       8.162  11.471  17.577  0.00  0.00    +0.000 A 
ATOM     11  C   UNL     1       9.218  11.794  18.444  0.00  0.00    +0.000 A 
ATOM     12  C   UNL     1       9.691  10.737  19.228  0.00  0.00    +0.000 A 
ATOM     13  C   UNL     1       9.270   9.413  19.064  0.00  0.00    +0.000 A 
BRANCH   8  17
ATOM     14  C   UNL     1       6.678   4.914  16.082  0.00  0.00    +0.000 C 
ATOM     15  C   UNL     1       7.220   5.967  16.952  0.00  0.00    +0.000 A 
ATOM     16  N   UNL     1       7.346   7.258  16.739  0.00  0.00    +0.000 NA
ATOM     17  C   UNL     1       7.915   7.698  17.913  0.00  0.00    +0.000 A 
ATOM     18  N   UNL     1       8.127   6.721  18.813  0.00  0.00    +0.000 NA
ATOM     19  O   UNL     1       7.668   5.573  18.176  0.00  0.00    +0.000 OA
ENDBRANCH   8  17
ENDBRANCH   1  11
BRANCH   7  20
ATOM     20  C   UNL     1       8.560  14.147  20.476  0.00  0.00    +0.000 A 
ATOM     21  C   UNL     1       9.308  13.395  21.442  0.00  0.00    +0.000 A 
ATOM     22  C   UNL     1       8.848  13.131  22.729  0.00  0.00    +0.000 A 
ATOM     23  C   UNL     1       7.570  13.516  23.071  0.00  0.00    +0.000 A 
ATOM     24  C   UNL     1       6.810  14.243  22.155  0.00  0.00    +0.000 A 
ATOM     25  C   UNL     1       7.302  14.633  20.888  0.00  0.00    +0.000 A 
BRANCH  25  26
ATOM     26  O   UNL     1       6.360  15.401  20.257  0.00  0.00    +0.000 OA
BRANCH  26  27
ATOM     27  C   UNL     1       5.391  14.870  19.367  0.00  0.00    +0.000 C 
ATOM     28  C   UNL     1       4.104  15.678  19.524  0.00  0.00    +0.000 C 
ATOM     29  C   UNL     1       5.875  14.900  17.918  0.00  0.00    +0.000 C 
ENDBRANCH  26  27
ENDBRANCH  25  26
ENDBRANCH   7  20
BRANCH   6  30
ATOM     30  C   UNL     1      10.789  16.382  20.063  0.00  0.00    +0.000 C 
ATOM     31  O   UNL     1      11.837  16.105  20.640  0.00  0.00    +0.000 OA
BRANCH  30  32
ATOM     32  C   UNL     1       9.989  17.634  20.499  0.00  0.00    +0.000 C 
ATOM     33  C   UNL     1       8.738  17.890  19.658  0.00  0.00    +0.000 C 
ATOM     34  C   UNL     1       7.778  18.629  20.581  0.00  0.00    +0.000 C 
ATOM     35  C   UNL     1       7.994  17.979  21.931  0.00  0.00    +0.000 C 
ATOM     36  C   UNL     1       9.465  17.568  21.955  0.00  0.00    +0.000 C 
ENDBRANCH  30  32
ENDBRANCH   6  30
TORSDOF 7
ENDMDL
MODEL 2
REMARK VINA RESULT:      -6.4      1.174      2.591
REMARK  Name = 
REMARK  10 active torsions:
REMARK  status: ('A' for Active; 'I' for Inactive)
REMARK    1  A    between atoms: C_1  and  C_2
REMARK    2  A    between atoms: C_4  and  C_5
REMARK    3  A    between atoms: C_8  and  N_9
REMARK    4  A    between atoms: C_14  and  C_15
REMARK    5  A    between atoms: C_15  and  C_17
REMARK    6  A    between atoms: C_22  and  C_23
REMARK    7  A    between atoms: C_28  and  O_29
REMARK    8  A    between atoms: O_29  and  C_30
REMARK    9  A    between atoms: C_30  and  C_31
REMARK   10  A    between atoms: C_30  and  C_32
REMARK                            x       y       z     vdW  Elec       q    Type
REMARK                         _______ _______ _______ _____ _____    ______ ____
ROOT
ATOM      1  N   UNL     1       9.719  13.387  18.022  0.00  0.00    +0.000 N 
ATOM      2  C   UNL     1      11.070  13.656  17.816  0.00  0.00    +0.000 C 
ATOM      3  O   UNL     1      12.019  12.920  17.678  0.00  0.00    +0.000 OA
ATOM      4  C   UNL     1      11.244  15.167  17.791  0.00  0.00    +0.000 C 
ATOM      5  O   UNL     1      12.333  15.703  17.669  0.00  0.00    +0.000 OA
ATOM      6  C   UNL     1       9.929  15.867  17.873  0.00  0.00    +0.000 C 
ATOM      7  C   UNL     1       8.953  14.651  18.039  0.00  0.00    +0.000 C 
ENDROOT
BRANCH   1  11
ATOM      8  C   UNL     1       8.342   9.302  18.139  0.00  0.00    +0.000 A 
ATOM      9  C   UNL     1       7.691  10.252  17.352  0.00  0.00    +0.000 A 
ATOM     10  C   UNL     1       8.098  11.610  17.360  0.00  0.00    +0.000 A 
ATOM     11  C   UNL     1       9.167  12.056  18.154  0.00  0.00    +0.000 A 
ATOM     12  C   UNL     1       9.708  11.099  19.018  0.00  0.00    +0.000 A 
ATOM     13  C   UNL     1       9.338   9.749  18.996  0.00  0.00    +0.000 A 
BRANCH   8  17
ATOM     14  C   UNL     1       6.800   4.895  16.569  0.00  0.00    +0.000 C 
ATOM     15  C   UNL     1       7.347   6.043  17.305  0.00  0.00    +0.000 A 
ATOM     16  N   UNL     1       7.399   7.313  16.973  0.00  0.00    +0.000 NA
ATOM     17  C   UNL     1       8.020   7.880  18.063  0.00  0.00    +0.000 A 
ATOM     18  N   UNL     1       8.335   6.997  19.028  0.00  0.00    +0.000 NA
ATOM     19  O   UNL     1       7.890   5.779  18.526  0.00  0.00    +0.000 OA
ENDBRANCH   8  17
ENDBRANCH   1  11
BRANCH   7  20
ATOM     20  C   UNL     1       7.730  14.776  18.950  0.00  0.00    +0.000 A 
ATOM     21  C   UNL     1       6.565  15.263  18.268  0.00  0.00    +0.000 A 
ATOM     22  C   UNL     1       5.334  15.449  18.893  0.00  0.00    +0.000 A 
ATOM     23  C   UNL     1       5.244  15.259  20.255  0.00  0.00    +0.000 A 
ATOM     24  C   UNL     1       6.358  14.793  20.953  0.00  0.00    +0.000 A 
ATOM     25  C   UNL     1       7.582  14.476  20.319  0.00  0.00    +0.000 A 
BRANCH  25  26
ATOM     26  O   UNL     1       8.450  13.968  21.249  0.00  0.00    +0.000 OA
BRANCH  26  27
ATOM     27  C   UNL     1       8.029  13.383  22.472  0.00  0.00    +0.000 C 
ATOM     28  C   UNL     1       8.400  11.901  22.446  0.00  0.00    +0.000 C 
ATOM     29  C   UNL     1       8.657  14.078  23.679  0.00  0.00    +0.000 C 
ENDBRANCH  26  27
ENDBRANCH  25  26
ENDBRANCH   7  20
BRANCH   6  30
ATOM     30  C   UNL     1       9.938  17.064  18.827  0.00  0.00    +0.000 C 
ATOM     31  O   UNL     1       9.558  18.176  18.469  0.00  0.00    +0.000 OA
BRANCH  30  32
ATOM     32  C   UNL     1      10.435  16.863  20.280  0.00  0.00    +0.000 C 
ATOM     33  C   UNL     1      11.736  17.603  20.594  0.00  0.00    +0.000 C 
ATOM     34  C   UNL     1      11.689  17.879  22.091  0.00  0.00    +0.000 C 
ATOM     35  C   UNL     1      10.233  18.199  22.359  0.00  0.00    +0.000 C 
ATOM     36  C   UNL     1       9.441  17.361  21.357  0.00  0.00    +0.000 C 
ENDBRANCH  30  32
ENDBRANCH   6  30
TORSDOF 7
ENDMDL
MODEL 3
REMARK VINA RESULT:      -6.3     11.153     13.500
REMARK  Name = 
REMARK  10 active torsions:
REMARK  status: ('A' for Active; 'I' for Inactive)
REMARK    1  A    between atoms: C_1  and  C_2
REMARK    2  A    between atoms: C_4  and  C_5
REMARK    3  A    between atoms: C_8  and  N_9
REMARK    4  A    between atoms: C_14  and  C_15
REMARK    5  A    between atoms: C_15  and  C_17
REMARK    6  A    between atoms: C_22  and  C_23
REMARK    7  A    between atoms: C_28  and  O_29
REMARK    8  A    between atoms: O_29  and  C_30
REMARK    9  A    between atoms: C_30  and  C_31
REMARK   10  A    between atoms: C_30  and  C_32
REMARK                            x       y       z     vdW  Elec       q    Type
REMARK                         _______ _______ _______ _____ _____    ______ ____
ROOT
ATOM      1  N   UNL     1      -2.779  11.966  19.763  0.00  0.00    +0.000 N 
ATOM      2  C   UNL     1      -1.649  11.694  20.532  0.00  0.00    +0.000 C 
ATOM      3  O   UNL     1      -0.692  10.985  20.323  0.00  0.00    +0.000 OA
ATOM      4  C   UNL     1      -1.770  12.479  21.829  0.00  0.00    +0.000 C 
ATOM      5  O   UNL     1      -0.945  12.406  22.723  0.00  0.00    +0.000 OA
ATOM      6  C   UNL     1      -2.973  13.362  21.819  0.00  0.00    +0.000 C 
ATOM      7  C   UNL     1      -3.615  12.979  20.441  0.00  0.00    +0.000 C 
ENDROOT
BRANCH   1  11
ATOM      8  C   UNL     1      -3.343  10.452  15.765  0.00  0.00    +0.000 A 
ATOM      9  C   UNL     1      -4.272  11.321  16.336  0.00  0.00    +0.000 A 
ATOM     10  C   UNL     1      -4.127  11.769  17.673  0.00  0.00    +0.000 A 
ATOM     11  C   UNL     1      -3.048  11.364  18.475  0.00  0.00    +0.000 A 
ATOM     12  C   UNL     1      -2.211  10.399  17.905  0.00  0.00    +0.000 A 
ATOM     13  C   UNL     1      -2.324   9.973  16.577  0.00  0.00    +0.000 A 
BRANCH   8  17
ATOM     14  C   UNL     1      -4.937   9.515  11.198  0.00  0.00    +0.000 C 
ATOM     15  C   UNL     1      -4.171   9.706  12.438  0.00  0.00    +0.000 A 
ATOM     16  N   UNL     1      -4.577  10.066  13.635  0.00  0.00    +0.000 NA
ATOM     17  C   UNL     1      -3.404  10.068  14.357  0.00  0.00    +0.000 A 
ATOM     18  N   UNL     1      -2.323   9.720  13.637  0.00  0.00    +0.000 NA
ATOM     19  O   UNL     1      -2.830   9.482  12.365  0.00  0.00    +0.000 OA
ENDBRANCH   8  17
ENDBRANCH   1  11
BRANCH   7  20
ATOM     20  C   UNL     1      -5.137  12.910  20.303  0.00  0.00    +0.000 A 
ATOM     21  C   UNL     1      -5.692  11.671  20.768  0.00  0.00    +0.000 A 
ATOM     22  C   UNL     1      -7.055  11.386  20.748  0.00  0.00    +0.000 A 
ATOM     23  C   UNL     1      -7.914  12.289  20.159  0.00  0.00    +0.000 A 
ATOM     24  C   UNL     1      -7.410  13.502  19.688  0.00  0.00    +0.000 A 
ATOM     25  C   UNL     1      -6.049  13.867  19.813  0.00  0.00    +0.000 A 
BRANCH  25  26
ATOM     26  O   UNL     1      -5.881  15.140  19.337  0.00  0.00    +0.000 OA
BRANCH  26  27
ATOM     27  C   UNL     1      -6.942  15.923  18.812  0.00  0.00    +0.000 C 
ATOM     28  C   UNL     1      -6.801  17.344  19.355  0.00  0.00    +0.000 C 
ATOM     29  C   UNL     1      -6.944  15.925  17.284  0.00  0.00    +0.000 C 
ENDBRANCH  26  27
ENDBRANCH  25  26
ENDBRANCH   7  20
BRANCH   6  30
ATOM     30  C   UNL     1      -3.752  13.340  23.136  0.00  0.00    +0.000 C 
ATOM     31  O   UNL     1      -3.808  12.331  23.835  0.00  0.00    +0.000 OA
BRANCH  30  32
ATOM     32  C   UNL     1      -4.482  14.626  23.599  0.00  0.00    +0.000 C 
ATOM     33  C   UNL     1      -4.219  15.839  22.706  0.00  0.00    +0.000 C 
ATOM     34  C   UNL     1      -5.455  16.716  22.848  0.00  0.00    +0.000 C 
ATOM     35  C   UNL     1      -6.600  15.728  22.930  0.00  0.00    +0.000 C 
ATOM     36  C   UNL     1      -6.024  14.496  23.627  0.00  0.00    +0.000 C 
ENDBRANCH  30  32
ENDBRANCH   6  30
TORSDOF 7
ENDMDL
MODEL 4
REMARK VINA RESULT:      -6.3      1.542      2.233
REMARK  Name = 
REMARK  10 active torsions:
REMARK  status: ('A' for Active; 'I' for Inactive)
REMARK    1  A    between atoms: C_1  and  C_2
REMARK    2  A    between atoms: C_4  and  C_5
REMARK    3  A    between atoms: C_8  and  N_9
REMARK    4  A    between atoms: C_14  and  C_15
REMARK    5  A    between atoms: C_15  and  C_17
REMARK    6  A    between atoms: C_22  and  C_23
REMARK    7  A    between atoms: C_28  and  O_29
REMARK    8  A    between atoms: O_29  and  C_30
REMARK    9  A    between atoms: C_30  and  C_31
REMARK   10  A    between atoms: C_30  and  C_32
REMARK                            x       y       z     vdW  Elec       q    Type
REMARK                         _______ _______ _______ _____ _____    ______ ____
ROOT
ATOM      1  N   UNL     1       9.955  13.875  19.413  0.00  0.00    +0.000 N 
ATOM      2  C   UNL     1      11.191  14.488  19.217  0.00  0.00    +0.000 C 
ATOM      3  O   UNL     1      12.202  14.093  18.682  0.00  0.00    +0.000 OA
ATOM      4  C   UNL     1      11.125  15.876  19.835  0.00  0.00    +0.000 C 
ATOM      5  O   UNL     1      12.080  16.634  19.856  0.00  0.00    +0.000 OA
ATOM      6  C   UNL     1       9.754  16.181  20.338  0.00  0.00    +0.000 C 
ATOM      7  C   UNL     1       9.021  14.827  20.051  0.00  0.00    +0.000 C 
ENDROOT
BRANCH   1  11
ATOM      8  C   UNL     1       8.698   9.873  18.413  0.00  0.00    +0.000 A 
ATOM      9  C   UNL     1       9.608  10.098  19.446  0.00  0.00    +0.000 A 
ATOM     10  C   UNL     1      10.076  11.405  19.736  0.00  0.00    +0.000 A 
ATOM     11  C   UNL     1       9.645  12.522  19.003  0.00  0.00    +0.000 A 
ATOM     12  C   UNL     1       8.833  12.237  17.902  0.00  0.00    +0.000 A 
ATOM     13  C   UNL     1       8.339  10.957  17.625  0.00  0.00    +0.000 A 
BRANCH   8  17
ATOM     14  C   UNL     1       6.105   6.149  16.496  0.00  0.00    +0.000 C 
ATOM     15  C   UNL     1       6.983   7.031  17.277  0.00  0.00    +0.000 A 
ATOM     16  N   UNL     1       7.202   8.322  17.163  0.00  0.00    +0.000 NA
ATOM     17  C   UNL     1       8.113   8.558  18.168  0.00  0.00    +0.000 A 
ATOM     18  N   UNL     1       8.439   7.460  18.874  0.00  0.00    +0.000 NA
ATOM     19  O   UNL     1       7.692   6.448  18.283  0.00  0.00    +0.000 OA
ENDBRANCH   8  17
ENDBRANCH   1  11
BRANCH   7  20
ATOM     20  C   UNL     1       7.974  14.303  21.037  0.00  0.00    +0.000 A 
ATOM     21  C   UNL     1       8.514  13.394  22.006  0.00  0.00    +0.000 A 
ATOM     22  C   UNL     1       7.751  12.798  23.006  0.00  0.00    +0.000 A 
ATOM     23  C   UNL     1       6.388  13.002  23.013  0.00  0.00    +0.000 A 
ATOM     24  C   UNL     1       5.825  13.874  22.081  0.00  0.00    +0.000 A 
ATOM     25  C   UNL     1       6.597  14.589  21.137  0.00  0.00    +0.000 A 
BRANCH  25  26
ATOM     26  O   UNL     1       5.775  15.420  20.422  0.00  0.00    +0.000 OA
BRANCH  26  27
ATOM     27  C   UNL     1       4.891  14.962  19.411  0.00  0.00    +0.000 C 
ATOM     28  C   UNL     1       3.765  15.983  19.261  0.00  0.00    +0.000 C 
ATOM     29  C   UNL     1       5.612  14.752  18.080  0.00  0.00    +0.000 C 
ENDBRANCH  26  27
ENDBRANCH  25  26
ENDBRANCH   7  20
BRANCH   6  30
ATOM     30  C   UNL     1       9.750  16.857  21.712  0.00  0.00    +0.000 C 
ATOM     31  O   UNL     1       9.072  17.856  21.937  0.00  0.00    +0.000 OA
BRANCH  30  32
ATOM     32  C   UNL     1      10.619  16.258  22.846  0.00  0.00    +0.000 C 
ATOM     33  C   UNL     1      11.773  17.162  23.280  0.00  0.00    +0.000 C 
ATOM     34  C   UNL     1      12.038  16.803  24.735  0.00  0.00    +0.000 C 
ATOM     35  C   UNL     1      10.659  16.549  25.308  0.00  0.00    +0.000 C 
ATOM     36  C   UNL     1       9.838  15.978  24.153  0.00  0.00    +0.000 C 
ENDBRANCH  30  32
ENDBRANCH   6  30
TORSDOF 7
ENDMDL
MODEL 5
REMARK VINA RESULT:      -6.3      6.893     11.291
REMARK  Name = 
REMARK  10 active torsions:
REMARK  status: ('A' for Active; 'I' for Inactive)
REMARK    1  A    between atoms: C_1  and  C_2
REMARK    2  A    between atoms: C_4  and  C_5
REMARK    3  A    between atoms: C_8  and  N_9
REMARK    4  A    between atoms: C_14  and  C_15
REMARK    5  A    between atoms: C_15  and  C_17
REMARK    6  A    between atoms: C_22  and  C_23
REMARK    7  A    between atoms: C_28  and  O_29
REMARK    8  A    between atoms: O_29  and  C_30
REMARK    9  A    between atoms: C_30  and  C_31
REMARK   10  A    between atoms: C_30  and  C_32
REMARK                            x       y       z     vdW  Elec       q    Type
REMARK                         _______ _______ _______ _____ _____    ______ ____
ROOT
ATOM      1  N   UNL     1       0.045  14.365  21.226  0.00  0.00    +0.000 N 
ATOM      2  C   UNL     1      -0.166  14.951  22.472  0.00  0.00    +0.000 C 
ATOM      3  O   UNL     1       0.566  15.600  23.183  0.00  0.00    +0.000 OA
ATOM      4  C   UNL     1      -1.592  14.638  22.898  0.00  0.00    +0.000 C 
ATOM      5  O   UNL     1      -2.050  14.987  23.973  0.00  0.00    +0.000 OA
ATOM      6  C   UNL     1      -2.335  13.921  21.820  0.00  0.00    +0.000 C 
ATOM      7  C   UNL     1      -1.210  13.751  20.743  0.00  0.00    +0.000 C 
ENDROOT
BRANCH   1  11
ATOM      8  C   UNL     1       3.861  14.836  19.274  0.00  0.00    +0.000 A 
ATOM      9  C   UNL     1       2.679  15.184  18.621  0.00  0.00    +0.000 A 
ATOM     10  C   UNL     1       1.418  14.969  19.232  0.00  0.00    +0.000 A 
ATOM     11  C   UNL     1       1.303  14.404  20.512  0.00  0.00    +0.000 A 
ATOM     12  C   UNL     1       2.502  13.958  21.076  0.00  0.00    +0.000 A 
ATOM     13  C   UNL     1       3.756  14.193  20.499  0.00  0.00    +0.000 A 
BRANCH   8  17
ATOM     14  C   UNL     1       8.253  16.906  18.435  0.00  0.00    +0.000 C 
ATOM     15  C   UNL     1       7.032  16.088  18.442  0.00  0.00    +0.000 A 
ATOM     16  N   UNL     1       5.944  16.199  19.172  0.00  0.00    +0.000 NA
ATOM     17  C   UNL     1       5.174  15.151  18.719  0.00  0.00    +0.000 A 
ATOM     18  N   UNL     1       5.761  14.427  17.748  0.00  0.00    +0.000 NA
ATOM     19  O   UNL     1       6.992  15.046  17.565  0.00  0.00    +0.000 OA
ENDBRANCH   8  17
ENDBRANCH   1  11
BRANCH   7  20
ATOM     20  C   UNL     1      -1.146  12.472  19.905  0.00  0.00    +0.000 A 
ATOM     21  C   UNL     1      -1.805  12.594  18.636  0.00  0.00    +0.000 A 
ATOM     22  C   UNL     1      -1.868  11.562  17.703  0.00  0.00    +0.000 A 
ATOM     23  C   UNL     1      -1.367  10.325  18.046  0.00  0.00    +0.000 A 
ATOM     24  C   UNL     1      -0.726  10.166  19.275  0.00  0.00    +0.000 A 
ATOM     25  C   UNL     1      -0.538  11.232  20.185  0.00  0.00    +0.000 A 
BRANCH  25  26
ATOM     26  O   UNL     1       0.192  10.785  21.254  0.00  0.00    +0.000 OA
BRANCH  26  27
ATOM     27  C   UNL     1       0.030   9.496  21.826  0.00  0.00    +0.000 C 
ATOM     28  C   UNL     1       1.298   8.689  21.552  0.00  0.00    +0.000 C 
ATOM     29  C   UNL     1      -0.251   9.572  23.326  0.00  0.00    +0.000 C 
ENDBRANCH  26  27
ENDBRANCH  25  26
ENDBRANCH   7  20
BRANCH   6  30
ATOM     30  C   UNL     1      -3.176  12.752  22.340  0.00  0.00    +0.000 C 
ATOM     31  O   UNL     1      -2.693  11.879  23.055  0.00  0.00    +0.000 OA
BRANCH  30  32
ATOM     32  C   UNL     1      -4.675  12.676  21.955  0.00  0.00    +0.000 C 
ATOM     33  C   UNL     1      -5.479  13.911  22.362  0.00  0.00    +0.000 C 
ATOM     34  C   UNL     1      -6.625  13.991  21.362  0.00  0.00    +0.000 C 
ATOM     35  C   UNL     1      -6.000  13.555  20.053  0.00  0.00    +0.000 C 
ATOM     36  C   UNL     1      -4.925  12.539  20.433  0.00  0.00    +0.000 C 
ENDBRANCH  30  32
ENDBRANCH   6  30
TORSDOF 7
ENDMDL
MODEL 6
REMARK VINA RESULT:      -6.3      7.736     10.704
REMARK  Name = 
REMARK  10 active torsions:
REMARK  status: ('A' for Active; 'I' for Inactive)
REMARK    1  A    between atoms: C_1  and  C_2
REMARK    2  A    between atoms: C_4  and  C_5
REMARK    3  A    between atoms: C_8  and  N_9
REMARK    4  A    between atoms: C_14  and  C_15
REMARK    5  A    between atoms: C_15  and  C_17
REMARK    6  A    between atoms: C_22  and  C_23
REMARK    7  A    between atoms: C_28  and  O_29
REMARK    8  A    between atoms: O_29  and  C_30
REMARK    9  A    between atoms: C_30  and  C_31
REMARK   10  A    between atoms: C_30  and  C_32
REMARK                            x       y       z     vdW  Elec       q    Type
REMARK                         _______ _______ _______ _____ _____    ______ ____
ROOT
ATOM      1  N   UNL     1      -0.186  10.620  21.268  0.00  0.00    +0.000 N 
ATOM      2  C   UNL     1      -0.403  10.810  22.631  0.00  0.00    +0.000 C 
ATOM      3  O   UNL     1      -0.111  10.130  23.589  0.00  0.00    +0.000 OA
ATOM      4  C   UNL     1      -1.147  12.125  22.806  0.00  0.00    +0.000 C 
ATOM      5  O   UNL     1      -1.513  12.536  23.894  0.00  0.00    +0.000 OA
ATOM      6  C   UNL     1      -1.301  12.838  21.503  0.00  0.00    +0.000 C 
ATOM      7  C   UNL     1      -0.665  11.800  20.517  0.00  0.00    +0.000 C 
ENDROOT
BRANCH   1  11
ATOM      8  C   UNL     1       2.042   7.233  19.802  0.00  0.00    +0.000 A 
ATOM      9  C   UNL     1       1.982   8.418  19.069  0.00  0.00    +0.000 A 
ATOM     10  C   UNL     1       1.197   9.512  19.514  0.00  0.00    +0.000 A 
ATOM     11  C   UNL     1       0.453   9.452  20.703  0.00  0.00    +0.000 A 
ATOM     12  C   UNL     1       0.444   8.207  21.338  0.00  0.00    +0.000 A 
ATOM     13  C   UNL     1       1.239   7.130  20.929  0.00  0.00    +0.000 A 
BRANCH   8  17
ATOM     14  C   UNL     1       4.394   2.906  19.673  0.00  0.00    +0.000 C 
ATOM     15  C   UNL     1       3.873   4.261  19.446  0.00  0.00    +0.000 A 
ATOM     16  N   UNL     1       3.005   4.960  20.142  0.00  0.00    +0.000 NA
ATOM     17  C   UNL     1       2.931   6.136  19.429  0.00  0.00    +0.000 A 
ATOM     18  N   UNL     1       3.723   6.162  18.342  0.00  0.00    +0.000 NA
ATOM     19  O   UNL     1       4.346   4.919  18.351  0.00  0.00    +0.000 OA
ENDBRANCH   8  17
ENDBRANCH   1  11
BRANCH   7  20
ATOM     20  C   UNL     1      -1.266  11.608  19.122  0.00  0.00    +0.000 A 
ATOM     21  C   UNL     1      -2.087  10.436  19.016  0.00  0.00    +0.000 A 
ATOM     22  C   UNL     1      -2.742  10.063  17.846  0.00  0.00    +0.000 A 
ATOM     23  C   UNL     1      -2.516  10.790  16.696  0.00  0.00    +0.000 A 
ATOM     24  C   UNL     1      -1.717  11.932  16.759  0.00  0.00    +0.000 A 
ATOM     25  C   UNL     1      -1.144  12.402  17.963  0.00  0.00    +0.000 A 
BRANCH  25  26
ATOM     26  O   UNL     1      -0.489  13.579  17.719  0.00  0.00    +0.000 OA
BRANCH  26  27
ATOM     27  C   UNL     1       0.114  14.363  18.737  0.00  0.00    +0.000 C 
ATOM     28  C   UNL     1       1.629  14.197  18.634  0.00  0.00    +0.000 C 
ATOM     29  C   UNL     1      -0.279  15.835  18.628  0.00  0.00    +0.000 C 
ENDBRANCH  26  27
ENDBRANCH  25  26
ENDBRANCH   7  20
BRANCH   6  30
ATOM     30  C   UNL     1      -2.697  13.433  21.301  0.00  0.00    +0.000 C 
ATOM     31  O   UNL     1      -2.855  14.591  20.922  0.00  0.00    +0.000 OA
BRANCH  30  32
ATOM     32  C   UNL     1      -3.938  12.549  21.577  0.00  0.00    +0.000 C 
ATOM     33  C   UNL     1      -4.824  13.067  22.711  0.00  0.00    +0.000 C 
ATOM     34  C   UNL     1      -6.224  12.562  22.389  0.00  0.00    +0.000 C 
ATOM     35  C   UNL     1      -6.315  12.669  20.881  0.00  0.00    +0.000 C 
ATOM     36  C   UNL     1      -4.898  12.420  20.369  0.00  0.00    +0.000 C 
ENDBRANCH  30  32
ENDBRANCH   6  30
TORSDOF 7
ENDMDL
MODEL 7
REMARK VINA RESULT:      -6.3      8.770     11.810
REMARK  Name = 
REMARK  10 active torsions:
REMARK  status: ('A' for Active; 'I' for Inactive)
REMARK    1  A    between atoms: C_1  and  C_2
REMARK    2  A    between atoms: C_4  and  C_5
REMARK    3  A    between atoms: C_8  and  N_9
REMARK    4  A    between atoms: C_14  and  C_15
REMARK    5  A    between atoms: C_15  and  C_17
REMARK    6  A    between atoms: C_22  and  C_23
REMARK    7  A    between atoms: C_28  and  O_29
REMARK    8  A    between atoms: O_29  and  C_30
REMARK    9  A    between atoms: C_30  and  C_31
REMARK   10  A    between atoms: C_30  and  C_32
REMARK                            x       y       z     vdW  Elec       q    Type
REMARK                         _______ _______ _______ _____ _____    ______ ____
ROOT
ATOM      1  N   UNL     1      -3.362  12.239  20.151  0.00  0.00    +0.000 N 
ATOM      2  C   UNL     1      -4.414  12.831  20.847  0.00  0.00    +0.000 C 
ATOM      3  O   UNL     1      -5.592  12.923  20.586  0.00  0.00    +0.000 OA
ATOM      4  C   UNL     1      -3.847  13.433  22.124  0.00  0.00    +0.000 C 
ATOM      5  O   UNL     1      -4.530  14.058  22.917  0.00  0.00    +0.000 OA
ATOM      6  C   UNL     1      -2.400  13.104  22.283  0.00  0.00    +0.000 C 
ATOM      7  C   UNL     1      -2.121  12.327  20.950  0.00  0.00    +0.000 C 
ENDROOT
BRANCH   1  11
ATOM      8  C   UNL     1      -3.515  10.611  16.161  0.00  0.00    +0.000 A 
ATOM      9  C   UNL     1      -4.491  11.503  16.605  0.00  0.00    +0.000 A 
ATOM     10  C   UNL     1      -4.483  11.990  17.937  0.00  0.00    +0.000 A 
ATOM     11  C   UNL     1      -3.499  11.601  18.860  0.00  0.00    +0.000 A 
ATOM     12  C   UNL     1      -2.617  10.613  18.411  0.00  0.00    +0.000 A 
ATOM     13  C   UNL     1      -2.593  10.149  17.091  0.00  0.00    +0.000 A 
BRANCH   8  17
ATOM     14  C   UNL     1      -4.611   9.601  11.466  0.00  0.00    +0.000 C 
ATOM     15  C   UNL     1      -3.986   9.797  12.781  0.00  0.00    +0.000 A 
ATOM     16  N   UNL     1      -4.510  10.213  13.912  0.00  0.00    +0.000 NA
ATOM     17  C   UNL     1      -3.431  10.185  14.767  0.00  0.00    +0.000 A 
ATOM     18  N   UNL     1      -2.291   9.766  14.188  0.00  0.00    +0.000 NA
ATOM     19  O   UNL     1      -2.658   9.511  12.872  0.00  0.00    +0.000 OA
ENDBRANCH   8  17
ENDBRANCH   1  11
BRANCH   7  20
ATOM     20  C   UNL     1      -0.779  12.498  20.236  0.00  0.00    +0.000 A 
ATOM     21  C   UNL     1      -0.831  13.436  19.151  0.00  0.00    +0.000 A 
ATOM     22  C   UNL     1       0.270  13.758  18.363  0.00  0.00    +0.000 A 
ATOM     23  C   UNL     1       1.450  13.073  18.557  0.00  0.00    +0.000 A 
ATOM     24  C   UNL     1       1.537  12.148  19.599  0.00  0.00    +0.000 A 
ATOM     25  C   UNL     1       0.470  11.897  20.492  0.00  0.00    +0.000 A 
BRANCH  25  26
ATOM     26  O   UNL     1       0.885  11.008  21.448  0.00  0.00    +0.000 OA
BRANCH  26  27
ATOM     27  C   UNL     1       0.217   9.786  21.719  0.00  0.00    +0.000 C 
ATOM     28  C   UNL     1       1.216   8.644  21.538  0.00  0.00    +0.000 C 
ATOM     29  C   UNL     1      -0.380   9.765  23.125  0.00  0.00    +0.000 C 
ENDBRANCH  26  27
ENDBRANCH  25  26
ENDBRANCH   7  20
BRANCH   6  30
ATOM     30  C   UNL     1      -1.556  14.293  22.747  0.00  0.00    +0.000 C 
ATOM     31  O   UNL     1      -0.816  14.216  23.724  0.00  0.00    +0.000 OA
BRANCH  30  32
ATOM     32  C   UNL     1      -1.636  15.624  21.958  0.00  0.00    +0.000 C 
ATOM     33  C   UNL     1      -2.250  16.776  22.754  0.00  0.00    +0.000 C 
ATOM     34  C   UNL     1      -1.636  18.040  22.167  0.00  0.00    +0.000 C 
ATOM     35  C   UNL     1      -0.205  17.647  21.864  0.00  0.00    +0.000 C 
ATOM     36  C   UNL     1      -0.259  16.164  21.499  0.00  0.00    +0.000 C 
ENDBRANCH  30  32
ENDBRANCH   6  30
TORSDOF 7
ENDMDL
MODEL 8
REMARK VINA RESULT:      -6.2      6.920      9.164
REMARK  Name = 
REMARK  10 active torsions:
REMARK  status: ('A' for Active; 'I' for Inactive)
REMARK    1  A    between atoms: C_1  and  C_2
REMARK    2  A    between atoms: C_4  and  C_5
REMARK    3  A    between atoms: C_8  and  N_9
REMARK    4  A    between atoms: C_14  and  C_15
REMARK    5  A    between atoms: C_15  and  C_17
REMARK    6  A    between atoms: C_22  and  C_23
REMARK    7  A    between atoms: C_28  and  O_29
REMARK    8  A    between atoms: O_29  and  C_30
REMARK    9  A    between atoms: C_30  and  C_31
REMARK   10  A    between atoms: C_30  and  C_32
REMARK                            x       y       z     vdW  Elec       q    Type
REMARK                         _______ _______ _______ _____ _____    ______ ____
ROOT
ATOM      1  N   UNL     1      -0.298  11.745  22.087  0.00  0.00    +0.000 N 
ATOM      2  C   UNL     1      -1.380  11.859  22.958  0.00  0.00    +0.000 C 
ATOM      3  O   UNL     1      -2.105  11.021  23.443  0.00  0.00    +0.000 OA
ATOM      4  C   UNL     1      -1.580  13.336  23.262  0.00  0.00    +0.000 C 
ATOM      5  O   UNL     1      -2.486  13.747  23.966  0.00  0.00    +0.000 OA
ATOM      6  C   UNL     1      -0.507  14.167  22.641  0.00  0.00    +0.000 C 
ATOM      7  C   UNL     1       0.307  13.076  21.865  0.00  0.00    +0.000 C 
ENDROOT
BRANCH   1  11
ATOM      8  C   UNL     1       1.451   8.193  20.380  0.00  0.00    +0.000 A 
ATOM      9  C   UNL     1       0.700   9.067  19.594  0.00  0.00    +0.000 A 
ATOM     10  C   UNL     1       0.067  10.200  20.163  0.00  0.00    +0.000 A 
ATOM     11  C   UNL     1       0.170  10.494  21.532  0.00  0.00    +0.000 A 
ATOM     12  C   UNL     1       0.826   9.528  22.301  0.00  0.00    +0.000 A 
ATOM     13  C   UNL     1       1.482   8.422  21.748  0.00  0.00    +0.000 A 
BRANCH   8  17
ATOM     14  C   UNL     1       4.293   5.457  17.429  0.00  0.00    +0.000 C 
ATOM     15  C   UNL     1       3.436   6.001  18.491  0.00  0.00    +0.000 A 
ATOM     16  N   UNL     1       2.874   7.184  18.601  0.00  0.00    +0.000 NA
ATOM     17  C   UNL     1       2.207   7.086  19.801  0.00  0.00    +0.000 A 
ATOM     18  N   UNL     1       2.350   5.892  20.405  0.00  0.00    +0.000 NA
ATOM     19  O   UNL     1       3.165   5.173  19.538  0.00  0.00    +0.000 OA
ENDBRANCH   8  17
ENDBRANCH   1  11
BRANCH   7  20
ATOM     20  C   UNL     1       0.914  13.406  20.499  0.00  0.00    +0.000 A 
ATOM     21  C   UNL     1       2.341  13.553  20.535  0.00  0.00    +0.000 A 
ATOM     22  C   UNL     1       3.108  13.846  19.411  0.00  0.00    +0.000 A 
ATOM     23  C   UNL     1       2.469  14.112  18.219  0.00  0.00    +0.000 A 
ATOM     24  C   UNL     1       1.081  13.986  18.149  0.00  0.00    +0.000 A 
ATOM     25  C   UNL     1       0.292  13.567  19.244  0.00  0.00    +0.000 A 
BRANCH  25  26
ATOM     26  O   UNL     1      -1.013  13.461  18.843  0.00  0.00    +0.000 OA
BRANCH  26  27
ATOM     27  C   UNL     1      -1.753  12.252  18.906  0.00  0.00    +0.000 C 
ATOM     28  C   UNL     1      -3.022  12.509  19.717  0.00  0.00    +0.000 C 
ATOM     29  C   UNL     1      -2.097  11.724  17.514  0.00  0.00    +0.000 C 
ENDBRANCH  26  27
ENDBRANCH  25  26
ENDBRANCH   7  20
BRANCH   6  30
ATOM     30  C   UNL     1      -1.035  15.442  21.978  0.00  0.00    +0.000 C 
ATOM     31  O   UNL     1      -2.177  15.508  21.530  0.00  0.00    +0.000 OA
BRANCH  30  32
ATOM     32  C   UNL     1      -0.106  16.677  21.877  0.00  0.00    +0.000 C 
ATOM     33  C   UNL     1       1.238  16.496  22.584  0.00  0.00    +0.000 C 
ATOM     34  C   UNL     1       2.208  17.401  21.837  0.00  0.00    +0.000 C 
ATOM     35  C   UNL     1       1.782  17.281  20.389  0.00  0.00    +0.000 C 
ATOM     36  C   UNL     1       0.271  17.060  20.425  0.00  0.00    +0.000 C 
ENDBRANCH  30  32
ENDBRANCH   6  30
TORSDOF 7
ENDMDL
MODEL 9
REMARK VINA RESULT:      -6.1      7.193      9.327
REMARK  Name = 
REMARK  10 active torsions:
REMARK  status: ('A' for Active; 'I' for Inactive)
REMARK    1  A    between atoms: C_1  and  C_2
REMARK    2  A    between atoms: C_4  and  C_5
REMARK    3  A    between atoms: C_8  and  N_9
REMARK    4  A    between atoms: C_14  and  C_15
REMARK    5  A    between atoms: C_15  and  C_17
REMARK    6  A    between atoms: C_22  and  C_23
REMARK    7  A    between atoms: C_28  and  O_29
REMARK    8  A    between atoms: O_29  and  C_30
REMARK    9  A    between atoms: C_30  and  C_31
REMARK   10  A    between atoms: C_30  and  C_32
REMARK                            x       y       z     vdW  Elec       q    Type
REMARK                         _______ _______ _______ _____ _____    ______ ____
ROOT
ATOM      1  N   UNL     1       0.149  10.677  21.590  0.00  0.00    +0.000 N 
ATOM      2  C   UNL     1      -0.900  10.379  22.456  0.00  0.00    +0.000 C 
ATOM      3  O   UNL     1      -1.353   9.320  22.827  0.00  0.00    +0.000 OA
ATOM      4  C   UNL     1      -1.495  11.694  22.937  0.00  0.00    +0.000 C 
ATOM      5  O   UNL     1      -2.463  11.748  23.676  0.00  0.00    +0.000 OA
ATOM      6  C   UNL     1      -0.711  12.860  22.435  0.00  0.00    +0.000 C 
ATOM      7  C   UNL     1       0.355  12.141  21.539  0.00  0.00    +0.000 C 
ENDROOT
BRANCH   1  11
ATOM      8  C   UNL     1       2.138   7.541  19.399  0.00  0.00    +0.000 A 
ATOM      9  C   UNL     1       1.964   7.446  20.779  0.00  0.00    +0.000 A 
ATOM     10  C   UNL     1       1.370   8.503  21.514  0.00  0.00    +0.000 A 
ATOM     11  C   UNL     1       0.933   9.682  20.890  0.00  0.00    +0.000 A 
ATOM     12  C   UNL     1       1.240   9.786  19.530  0.00  0.00    +0.000 A 
ATOM     13  C   UNL     1       1.795   8.739  18.787  0.00  0.00    +0.000 A 
BRANCH   8  17
ATOM     14  C   UNL     1       2.678   3.121  17.292  0.00  0.00    +0.000 C 
ATOM     15  C   UNL     1       2.782   4.515  17.744  0.00  0.00    +0.000 A 
ATOM     16  N   UNL     1       2.053   5.178  18.613  0.00  0.00    +0.000 NA
ATOM     17  C   UNL     1       2.639   6.425  18.603  0.00  0.00    +0.000 A 
ATOM     18  N   UNL     1       3.687   6.524  17.764  0.00  0.00    +0.000 NA
ATOM     19  O   UNL     1       3.781   5.260  17.194  0.00  0.00    +0.000 OA
ENDBRANCH   8  17
ENDBRANCH   1  11
BRANCH   7  20
ATOM     20  C   UNL     1       0.813  12.789  20.231  0.00  0.00    +0.000 A 
ATOM     21  C   UNL     1       2.201  13.154  20.236  0.00  0.00    +0.000 A 
ATOM     22  C   UNL     1       2.840  13.751  19.153  0.00  0.00    +0.000 A 
ATOM     23  C   UNL     1       2.091  14.110  18.054  0.00  0.00    +0.000 A 
ATOM     24  C   UNL     1       0.736  13.778  18.016  0.00  0.00    +0.000 A 
ATOM     25  C   UNL     1       0.093  13.059  19.050  0.00  0.00    +0.000 A 
BRANCH  25  26
ATOM     26  O   UNL     1      -1.205  12.816  18.687  0.00  0.00    +0.000 OA
BRANCH  26  27
ATOM     27  C   UNL     1      -1.838  11.557  18.850  0.00  0.00    +0.000 C 
ATOM     28  C   UNL     1      -3.345  11.788  18.947  0.00  0.00    +0.000 C 
ATOM     29  C   UNL     1      -1.509  10.603  17.703  0.00  0.00    +0.000 C 
ENDBRANCH  26  27
ENDBRANCH  25  26
ENDBRANCH   7  20
BRANCH   6  30
ATOM     30  C   UNL     1      -1.589  14.007  21.927  0.00  0.00    +0.000 C 
ATOM     31  O   UNL     1      -2.729  13.812  21.515  0.00  0.00    +0.000 OA
BRANCH  30  32
ATOM     32  C   UNL     1      -1.022  15.448  21.942  0.00  0.00    +0.000 C 
ATOM     33  C   UNL     1       0.392  15.549  22.513  0.00  0.00    +0.000 C 
ATOM     34  C   UNL     1       1.011  16.766  21.839  0.00  0.00    +0.000 C 
ATOM     35  C   UNL     1       0.475  16.715  20.424  0.00  0.00    +0.000 C 
ATOM     36  C   UNL     1      -0.916  16.094  20.538  0.00  0.00    +0.000 C 
ENDBRANCH  30  32
ENDBRANCH   6  30
TORSDOF 7
ENDMDL
