MODEL 1
REMARK VINA RESULT:      -5.9      0.000      0.000
REMARK  Name = 
REMARK  13 active torsions:
REMARK  status: ('A' for Active; 'I' for Inactive)
REMARK    1  A    between atoms: C_1  and  C_2
REMARK    2  A    between atoms: C_2  and  C_3
REMARK    3  A    between atoms: C_3  and  C_4
REMARK    4  A    between atoms: C_4  and  N_5
REMARK    5  A    between atoms: C_6  and  S_7
REMARK    6  A    between atoms: S_7  and  C_8
REMARK    7  A    between atoms: C_8  and  C_9
REMARK    8  A    between atoms: C_9  and  O_11
REMARK    9  A    between atoms: O_11  and  C_12
REMARK   10  A    between atoms: C_12  and  C_13
REMARK   11  A    between atoms: N_20  and  C_21
REMARK   12  A    between atoms: C_26  and  O_27
REMARK   13  A    between atoms: O_27  and  C_28
REMARK                            x       y       z     vdW  Elec       q    Type
REMARK                         _______ _______ _______ _____ _____    ______ ____
ROOT
ATOM      1  N   UNL     1      -5.666  13.198  20.757  0.00  0.00    +0.000 N 
ATOM      2  C   UNL     1      -4.341  13.132  21.156  0.00  0.00    +0.000 A 
ATOM      3  N   UNL     1      -3.385  12.623  20.451  0.00  0.00    +0.000 NA
ATOM      4  C   UNL     1      -3.688  12.198  19.186  0.00  0.00    +0.000 A 
ATOM      5  C   UNL     1      -4.914  12.272  18.677  0.00  0.00    +0.000 A 
ATOM      6  S   UNL     1      -5.089  11.611  17.116  0.00  0.00    +0.000 S 
ATOM      7  C   UNL     1      -3.351  11.219  17.077  0.00  0.00    +0.000 A 
ATOM      8  S   UNL     1      -2.695  10.571  15.678  0.00  0.00    +0.000 S 
ATOM      9  N   UNL     1      -2.760  11.614  18.313  0.00  0.00    +0.000 N 
ATOM     10  C   UNL     1      -6.022  12.810  19.471  0.00  0.00    +0.000 A 
ATOM     11  O   UNL     1      -7.160  12.876  19.013  0.00  0.00    +0.000 OA
ENDROOT
BRANCH   9  12
ATOM     12  C   UNL     1      -1.361  11.396  18.608  0.00  0.00    +0.000 A 
ATOM     13  C   UNL     1      -0.948  10.100  18.979  0.00  0.00    +0.000 A 
ATOM     14  C   UNL     1       0.393   9.785  19.204  0.00  0.00    +0.000 A 
ATOM     15  C   UNL     1       1.351  10.780  19.127  0.00  0.00    +0.000 A 
ATOM     16  C   UNL     1       0.970  12.085  18.815  0.00  0.00    +0.000 A 
ATOM     17  C   UNL     1      -0.371  12.408  18.531  0.00  0.00    +0.000 A 
BRANCH  17  18
ATOM     18  O   UNL     1      -0.752  13.661  18.117  0.00  0.00    +0.000 OA
ATOM     19  C   UNL     1      -0.110  14.784  18.710  0.00  0.00    +0.000 C 
ENDBRANCH  17  18
ENDBRANCH   9  12
BRANCH   1  20
ATOM     20  C   UNL     1      -6.785  13.546  21.651  0.00  0.00    +0.000 C 
BRANCH  20  21
ATOM     21  C   UNL     1      -7.796  12.423  21.895  0.00  0.00    +0.000 C 
BRANCH  21  23
ATOM     22  C   UNL     1      -6.986  13.019  24.201  0.00  0.00    +0.000 C 
ATOM     23  C   UNL     1      -7.916  12.134  23.393  0.00  0.00    +0.000 C 
ENDBRANCH  21  23
ENDBRANCH  20  21
ENDBRANCH   1  20
BRANCH   2  24
ATOM     24  S   UNL     1      -3.880  13.872  22.669  0.00  0.00    +0.000 S 
BRANCH  24  25
ATOM     25  C   UNL     1      -2.832  12.591  23.379  0.00  0.00    +0.000 C 
BRANCH  25  26
ATOM     26  C   UNL     1      -1.377  13.023  23.399  0.00  0.00    +0.000 C 
ATOM     27  O   UNL     1      -0.936  14.121  23.711  0.00  0.00    +0.000 OA
BRANCH  26  28
ATOM     28  O   UNL     1      -0.612  11.984  22.945  0.00  0.00    +0.000 OA
BRANCH  28  29
ATOM     29  C   UNL     1      -1.193  10.679  23.094  0.00  0.00    +0.000 C 
ATOM     30  C   UNL     1      -0.065   9.664  23.119  0.00  0.00    +0.000 C 
ENDBRANCH  28  29
ENDBRANCH  26  28
ENDBRANCH  25  26
ENDBRANCH  24  25
ENDBRANCH   2  24
TORSDOF 10
ENDMDL
MODEL 2
REMARK VINA RESULT:      -5.8      2.285      7.041
REMARK  Name = 
REMARK  13 active torsions:
REMARK  status: ('A' for Active; 'I' for Inactive)
REMARK    1  A    between atoms: C_1  and  C_2
REMARK    2  A    between atoms: C_2  and  C_3
REMARK    3  A    between atoms: C_3  and  C_4
REMARK    4  A    between atoms: C_4  and  N_5
REMARK    5  A    between atoms: C_6  and  S_7
REMARK    6  A    between atoms: S_7  and  C_8
REMARK    7  A    between atoms: C_8  and  C_9
REMARK    8  A    between atoms: C_9  and  O_11
REMARK    9  A    between atoms: O_11  and  C_12
REMARK   10  A    between atoms: C_12  and  C_13
REMARK   11  A    between atoms: N_20  and  C_21
REMARK   12  A    between atoms: C_26  and  O_27
REMARK   13  A    between atoms: O_27  and  C_28
REMARK                            x       y       z     vdW  Elec       q    Type
REMARK                         _______ _______ _______ _____ _____    ______ ____
ROOT
ATOM      1  N   UNL     1      -0.907  11.753  21.018  0.00  0.00    +0.000 N 
ATOM      2  C   UNL     1      -1.702  12.037  19.920  0.00  0.00    +0.000 A 
ATOM      3  N   UNL     1      -2.937  12.414  19.982  0.00  0.00    +0.000 NA
ATOM      4  C   UNL     1      -3.470  12.630  21.223  0.00  0.00    +0.000 A 
ATOM      5  C   UNL     1      -2.779  12.450  22.346  0.00  0.00    +0.000 A 
ATOM      6  S   UNL     1      -3.660  12.695  23.784  0.00  0.00    +0.000 S 
ATOM      7  C   UNL     1      -5.104  13.132  22.836  0.00  0.00    +0.000 A 
ATOM      8  S   UNL     1      -6.482  13.643  23.642  0.00  0.00    +0.000 S 
ATOM      9  N   UNL     1      -4.796  13.026  21.448  0.00  0.00    +0.000 N 
ATOM     10  C   UNL     1      -1.390  11.986  22.300  0.00  0.00    +0.000 A 
ATOM     11  O   UNL     1      -0.745  11.809  23.331  0.00  0.00    +0.000 OA
ENDROOT
BRANCH   9  12
ATOM     12  C   UNL     1      -5.775  13.281  20.414  0.00  0.00    +0.000 A 
ATOM     13  C   UNL     1      -6.532  12.197  19.925  0.00  0.00    +0.000 A 
ATOM     14  C   UNL     1      -7.551  12.367  18.987  0.00  0.00    +0.000 A 
ATOM     15  C   UNL     1      -7.795  13.624  18.463  0.00  0.00    +0.000 A 
ATOM     16  C   UNL     1      -7.028  14.710  18.884  0.00  0.00    +0.000 A 
ATOM     17  C   UNL     1      -6.034  14.565  19.871  0.00  0.00    +0.000 A 
BRANCH  17  18
ATOM     18  O   UNL     1      -5.343  15.638  20.380  0.00  0.00    +0.000 OA
ATOM     19  C   UNL     1      -6.063  16.588  21.157  0.00  0.00    +0.000 C 
ENDBRANCH  17  18
ENDBRANCH   9  12
BRANCH   1  20
ATOM     20  C   UNL     1       0.407  11.090  20.942  0.00  0.00    +0.000 C 
BRANCH  20  21
ATOM     21  C   UNL     1       0.373   9.564  21.044  0.00  0.00    +0.000 C 
BRANCH  21  23
ATOM     22  C   UNL     1       1.778   7.571  20.425  0.00  0.00    +0.000 C 
ATOM     23  C   UNL     1       1.293   8.942  19.991  0.00  0.00    +0.000 C 
ENDBRANCH  21  23
ENDBRANCH  20  21
ENDBRANCH   1  20
BRANCH   2  24
ATOM     24  S   UNL     1      -0.985  11.993  18.328  0.00  0.00    +0.000 S 
BRANCH  24  25
ATOM     25  C   UNL     1      -1.343  10.300  17.831  0.00  0.00    +0.000 C 
BRANCH  25  26
ATOM     26  C   UNL     1      -2.798  10.145  17.425  0.00  0.00    +0.000 C 
ATOM     27  O   UNL     1      -3.559   9.240  17.735  0.00  0.00    +0.000 OA
BRANCH  26  28
ATOM     28  O   UNL     1      -3.122  11.174  16.584  0.00  0.00    +0.000 OA
BRANCH  28  29
ATOM     29  C   UNL     1      -3.874  10.805  15.418  0.00  0.00    +0.000 C 
ATOM     30  C   UNL     1      -2.946  10.060  14.477  0.00  0.00    +0.000 C 
ENDBRANCH  28  29
ENDBRANCH  26  28
ENDBRANCH  25  26
ENDBRANCH  24  25
ENDBRANCH   2  24
TORSDOF 10
ENDMDL
MODEL 3
REMARK VINA RESULT:      -5.7      2.254      5.714
REMARK  Name = 
REMARK  13 active torsions:
REMARK  status: ('A' for Active; 'I' for Inactive)
REMARK    1  A    between atoms: C_1  and  C_2
REMARK    2  A    between atoms: C_2  and  C_3
REMARK    3  A    between atoms: C_3  and  C_4
REMARK    4  A    between atoms: C_4  and  N_5
REMARK    5  A    between atoms: C_6  and  S_7
REMARK    6  A    between atoms: S_7  and  C_8
REMARK    7  A    between atoms: C_8  and  C_9
REMARK    8  A    between atoms: C_9  and  O_11
REMARK    9  A    between atoms: O_11  and  C_12
REMARK   10  A    between atoms: C_12  and  C_13
REMARK   11  A    between atoms: N_20  and  C_21
REMARK   12  A    between atoms: C_26  and  O_27
REMARK   13  A    between atoms: O_27  and  C_28
REMARK                            x       y       z     vdW  Elec       q    Type
REMARK                         _______ _______ _______ _____ _____    ______ ____
ROOT
ATOM      1  N   UNL     1      -3.379  10.978  18.092  0.00  0.00    +0.000 N 
ATOM      2  C   UNL     1      -2.286  11.442  18.806  0.00  0.00    +0.000 A 
ATOM      3  N   UNL     1      -2.341  12.333  19.740  0.00  0.00    +0.000 NA
ATOM      4  C   UNL     1      -3.577  12.788  20.109  0.00  0.00    +0.000 A 
ATOM      5  C   UNL     1      -4.700  12.365  19.535  0.00  0.00    +0.000 A 
ATOM      6  S   UNL     1      -6.123  13.122  20.088  0.00  0.00    +0.000 S 
ATOM      7  C   UNL     1      -5.172  14.086  21.246  0.00  0.00    +0.000 A 
ATOM      8  S   UNL     1      -5.975  15.095  22.318  0.00  0.00    +0.000 S 
ATOM      9  N   UNL     1      -3.792  13.761  21.094  0.00  0.00    +0.000 N 
ATOM     10  C   UNL     1      -4.659  11.383  18.448  0.00  0.00    +0.000 A 
ATOM     11  O   UNL     1      -5.690  10.992  17.906  0.00  0.00    +0.000 OA
ENDROOT
BRANCH   9  12
ATOM     12  C   UNL     1      -2.754  14.405  21.869  0.00  0.00    +0.000 A 
ATOM     13  C   UNL     1      -2.284  15.665  21.445  0.00  0.00    +0.000 A 
ATOM     14  C   UNL     1      -1.342  16.389  22.178  0.00  0.00    +0.000 A 
ATOM     15  C   UNL     1      -0.796  15.839  23.324  0.00  0.00    +0.000 A 
ATOM     16  C   UNL     1      -1.200  14.571  23.742  0.00  0.00    +0.000 A 
ATOM     17  C   UNL     1      -2.189  13.850  23.046  0.00  0.00    +0.000 A 
BRANCH  17  18
ATOM     18  O   UNL     1      -2.679  12.650  23.499  0.00  0.00    +0.000 OA
ATOM     19  C   UNL     1      -1.914  11.477  23.243  0.00  0.00    +0.000 C 
ENDBRANCH  17  18
ENDBRANCH   9  12
BRANCH   1  20
ATOM     20  C   UNL     1      -3.285  10.157  16.872  0.00  0.00    +0.000 C 
BRANCH  20  21
ATOM     21  C   UNL     1      -3.235  10.943  15.561  0.00  0.00    +0.000 C 
BRANCH  21  23
ATOM     22  C   UNL     1      -4.059   9.934  13.409  0.00  0.00    +0.000 C 
ATOM     23  C   UNL     1      -2.908  10.009  14.394  0.00  0.00    +0.000 C 
ENDBRANCH  21  23
ENDBRANCH  20  21
ENDBRANCH   1  20
BRANCH   2  24
ATOM     24  S   UNL     1      -0.724  10.716  18.518  0.00  0.00    +0.000 S 
BRANCH  24  25
ATOM     25  C   UNL     1      -0.394   9.952  20.115  0.00  0.00    +0.000 C 
BRANCH  25  26
ATOM     26  C   UNL     1       0.732  10.666  20.841  0.00  0.00    +0.000 C 
ATOM     27  O   UNL     1       1.260  10.334  21.893  0.00  0.00    +0.000 OA
BRANCH  26  28
ATOM     28  O   UNL     1       1.037  11.806  20.149  0.00  0.00    +0.000 OA
BRANCH  28  29
ATOM     29  C   UNL     1       1.003  13.020  20.915  0.00  0.00    +0.000 C 
ATOM     30  C   UNL     1       0.787  14.174  19.954  0.00  0.00    +0.000 C 
ENDBRANCH  28  29
ENDBRANCH  26  28
ENDBRANCH  25  26
ENDBRANCH  24  25
ENDBRANCH   2  24
TORSDOF 10
ENDMDL
MODEL 4
REMARK VINA RESULT:      -5.7      2.304      5.703
REMARK  Name = 
REMARK  13 active torsions:
REMARK  status: ('A' for Active; 'I' for Inactive)
REMARK    1  A    between atoms: C_1  and  C_2
REMARK    2  A    between atoms: C_2  and  C_3
REMARK    3  A    between atoms: C_3  and  C_4
REMARK    4  A    between atoms: C_4  and  N_5
REMARK    5  A    between atoms: C_6  and  S_7
REMARK    6  A    between atoms: S_7  and  C_8
REMARK    7  A    between atoms: C_8  and  C_9
REMARK    8  A    between atoms: C_9  and  O_11
REMARK    9  A    between atoms: O_11  and  C_12
REMARK   10  A    between atoms: C_12  and  C_13
REMARK   11  A    between atoms: N_20  and  C_21
REMARK   12  A    between atoms: C_26  and  O_27
REMARK   13  A    between atoms: O_27  and  C_28
REMARK                            x       y       z     vdW  Elec       q    Type
REMARK                         _______ _______ _______ _____ _____    ______ ____
ROOT
ATOM      1  N   UNL     1      -3.637  10.957  18.037  0.00  0.00    +0.000 N 
ATOM      2  C   UNL     1      -2.536  11.340  18.785  0.00  0.00    +0.000 A 
ATOM      3  N   UNL     1      -2.561  12.205  19.744  0.00  0.00    +0.000 NA
ATOM      4  C   UNL     1      -3.779  12.716  20.103  0.00  0.00    +0.000 A 
ATOM      5  C   UNL     1      -4.911  12.372  19.495  0.00  0.00    +0.000 A 
ATOM      6  S   UNL     1      -6.302  13.189  20.044  0.00  0.00    +0.000 S 
ATOM      7  C   UNL     1      -5.325  14.065  21.248  0.00  0.00    +0.000 A 
ATOM      8  S   UNL     1      -6.094  15.084  22.335  0.00  0.00    +0.000 S 
ATOM      9  N   UNL     1      -3.961  13.670  21.113  0.00  0.00    +0.000 N 
ATOM     10  C   UNL     1      -4.901  11.422  18.380  0.00  0.00    +0.000 A 
ATOM     11  O   UNL     1      -5.940  11.103  17.807  0.00  0.00    +0.000 OA
ENDROOT
BRANCH   9  12
ATOM     12  C   UNL     1      -2.906  14.233  21.927  0.00  0.00    +0.000 A 
ATOM     13  C   UNL     1      -2.320  15.448  21.518  0.00  0.00    +0.000 A 
ATOM     14  C   UNL     1      -1.352  16.099  22.286  0.00  0.00    +0.000 A 
ATOM     15  C   UNL     1      -0.899  15.514  23.455  0.00  0.00    +0.000 A 
ATOM     16  C   UNL     1      -1.419  14.285  23.860  0.00  0.00    +0.000 A 
ATOM     17  C   UNL     1      -2.435  13.642  23.127  0.00  0.00    +0.000 A 
BRANCH  17  18
ATOM     18  O   UNL     1      -3.038  12.489  23.565  0.00  0.00    +0.000 OA
ATOM     19  C   UNL     1      -4.079  12.604  24.529  0.00  0.00    +0.000 C 
ENDBRANCH  17  18
ENDBRANCH   9  12
BRANCH   1  20
ATOM     20  C   UNL     1      -3.563  10.168  16.794  0.00  0.00    +0.000 C 
BRANCH  20  21
ATOM     21  C   UNL     1      -3.285  10.977  15.526  0.00  0.00    +0.000 C 
BRANCH  21  23
ATOM     22  C   UNL     1      -3.990   9.902  13.363  0.00  0.00    +0.000 C 
ATOM     23  C   UNL     1      -2.875  10.046  14.382  0.00  0.00    +0.000 C 
ENDBRANCH  21  23
ENDBRANCH  20  21
ENDBRANCH   1  20
BRANCH   2  24
ATOM     24  S   UNL     1      -1.009  10.539  18.505  0.00  0.00    +0.000 S 
BRANCH  24  25
ATOM     25  C   UNL     1       0.102  11.548  19.498  0.00  0.00    +0.000 C 
BRANCH  25  26
ATOM     26  C   UNL     1       0.622  10.774  20.696  0.00  0.00    +0.000 C 
ATOM     27  O   UNL     1       0.726  11.174  21.847  0.00  0.00    +0.000 OA
BRANCH  26  28
ATOM     28  O   UNL     1       1.025   9.539  20.268  0.00  0.00    +0.000 OA
BRANCH  28  29
ATOM     29  C   UNL     1       0.866   8.474  21.219  0.00  0.00    +0.000 C 
ATOM     30  C   UNL     1       1.641   7.272  20.712  0.00  0.00    +0.000 C 
ENDBRANCH  28  29
ENDBRANCH  26  28
ENDBRANCH  25  26
ENDBRANCH  24  25
ENDBRANCH   2  24
TORSDOF 10
ENDMDL
MODEL 5
REMARK VINA RESULT:      -5.7      2.451      6.912
REMARK  Name = 
REMARK  13 active torsions:
REMARK  status: ('A' for Active; 'I' for Inactive)
REMARK    1  A    between atoms: C_1  and  C_2
REMARK    2  A    between atoms: C_2  and  C_3
REMARK    3  A    between atoms: C_3  and  C_4
REMARK    4  A    between atoms: C_4  and  N_5
REMARK    5  A    between atoms: C_6  and  S_7
REMARK    6  A    between atoms: S_7  and  C_8
REMARK    7  A    between atoms: C_8  and  C_9
REMARK    8  A    between atoms: C_9  and  O_11
REMARK    9  A    between atoms: O_11  and  C_12
REMARK   10  A    between atoms: C_12  and  C_13
REMARK   11  A    between atoms: N_20  and  C_21
REMARK   12  A    between atoms: C_26  and  O_27
REMARK   13  A    between atoms: O_27  and  C_28
REMARK                            x       y       z     vdW  Elec       q    Type
REMARK                         _______ _______ _______ _____ _____    ______ ____
ROOT
ATOM      1  N   UNL     1      -3.152  11.256  18.440  0.00  0.00    +0.000 N 
ATOM      2  C   UNL     1      -4.287  11.935  18.852  0.00  0.00    +0.000 A 
ATOM      3  N   UNL     1      -4.353  12.695  19.895  0.00  0.00    +0.000 NA
ATOM      4  C   UNL     1      -3.196  12.914  20.592  0.00  0.00    +0.000 A 
ATOM      5  C   UNL     1      -2.034  12.364  20.250  0.00  0.00    +0.000 A 
ATOM      6  S   UNL     1      -0.738  12.700  21.303  0.00  0.00    +0.000 S 
ATOM      7  C   UNL     1      -1.802  13.721  22.303  0.00  0.00    +0.000 A 
ATOM      8  S   UNL     1      -1.145  14.557  23.599  0.00  0.00    +0.000 S 
ATOM      9  N   UNL     1      -3.116  13.702  21.749  0.00  0.00    +0.000 N 
ATOM     10  C   UNL     1      -1.944  11.468  19.094  0.00  0.00    +0.000 A 
ATOM     11  O   UNL     1      -0.878  10.949  18.774  0.00  0.00    +0.000 OA
ENDROOT
BRANCH   9  12
ATOM     12  C   UNL     1      -4.224  14.407  22.355  0.00  0.00    +0.000 A 
ATOM     13  C   UNL     1      -5.068  13.699  23.235  0.00  0.00    +0.000 A 
ATOM     14  C   UNL     1      -6.111  14.322  23.922  0.00  0.00    +0.000 A 
ATOM     15  C   UNL     1      -6.378  15.660  23.695  0.00  0.00    +0.000 A 
ATOM     16  C   UNL     1      -5.596  16.377  22.789  0.00  0.00    +0.000 A 
ATOM     17  C   UNL     1      -4.505  15.778  22.129  0.00  0.00    +0.000 A 
BRANCH  17  18
ATOM     18  O   UNL     1      -3.657  16.491  21.318  0.00  0.00    +0.000 OA
ATOM     19  C   UNL     1      -2.841  17.491  21.921  0.00  0.00    +0.000 C 
ENDBRANCH  17  18
ENDBRANCH   9  12
BRANCH   1  20
ATOM     20  C   UNL     1      -3.142  10.204  17.407  0.00  0.00    +0.000 C 
BRANCH  20  21
ATOM     21  C   UNL     1      -2.678  10.656  16.022  0.00  0.00    +0.000 C 
BRANCH  21  23
ATOM     22  C   UNL     1      -2.986   9.871  13.652  0.00  0.00    +0.000 C 
ATOM     23  C   UNL     1      -3.682  10.216  14.956  0.00  0.00    +0.000 C 
ENDBRANCH  21  23
ENDBRANCH  20  21
ENDBRANCH   1  20
BRANCH   2  24
ATOM     24  S   UNL     1      -5.719  11.861  17.855  0.00  0.00    +0.000 S 
BRANCH  24  25
ATOM     25  C   UNL     1      -6.604  10.490  18.617  0.00  0.00    +0.000 C 
BRANCH  25  26
ATOM     26  C   UNL     1      -7.230  10.908  19.935  0.00  0.00    +0.000 C 
ATOM     27  O   UNL     1      -7.238  10.276  20.982  0.00  0.00    +0.000 OA
BRANCH  26  28
ATOM     28  O   UNL     1      -7.856  12.110  19.753  0.00  0.00    +0.000 OA
BRANCH  28  29
ATOM     29  C   UNL     1      -7.780  13.019  20.862  0.00  0.00    +0.000 C 
ATOM     30  C   UNL     1      -7.582  14.418  20.309  0.00  0.00    +0.000 C 
ENDBRANCH  28  29
ENDBRANCH  26  28
ENDBRANCH  25  26
ENDBRANCH  24  25
ENDBRANCH   2  24
TORSDOF 10
ENDMDL
MODEL 6
REMARK VINA RESULT:      -5.6      2.422      5.951
REMARK  Name = 
REMARK  13 active torsions:
REMARK  status: ('A' for Active; 'I' for Inactive)
REMARK    1  A    between atoms: C_1  and  C_2
REMARK    2  A    between atoms: C_2  and  C_3
REMARK    3  A    between atoms: C_3  and  C_4
REMARK    4  A    between atoms: C_4  and  N_5
REMARK    5  A    between atoms: C_6  and  S_7
REMARK    6  A    between atoms: S_7  and  C_8
REMARK    7  A    between atoms: C_8  and  C_9
REMARK    8  A    between atoms: C_9  and  O_11
REMARK    9  A    between atoms: O_11  and  C_12
REMARK   10  A    between atoms: C_12  and  C_13
REMARK   11  A    between atoms: N_20  and  C_21
REMARK   12  A    between atoms: C_26  and  O_27
REMARK   13  A    between atoms: O_27  and  C_28
REMARK                            x       y       z     vdW  Elec       q    Type
REMARK                         _______ _______ _______ _____ _____    ______ ____
ROOT
ATOM      1  N   UNL     1      -4.339  11.788  18.687  0.00  0.00    +0.000 N 
ATOM      2  C   UNL     1      -3.401  12.469  19.445  0.00  0.00    +0.000 A 
ATOM      3  N   UNL     1      -3.669  13.153  20.509  0.00  0.00    +0.000 NA
ATOM      4  C   UNL     1      -4.958  13.131  20.966  0.00  0.00    +0.000 A 
ATOM      5  C   UNL     1      -5.929  12.459  20.353  0.00  0.00    +0.000 A 
ATOM      6  S   UNL     1      -7.477  12.635  21.043  0.00  0.00    +0.000 S 
ATOM      7  C   UNL     1      -6.799  13.676  22.321  0.00  0.00    +0.000 A 
ATOM      8  S   UNL     1      -7.803  14.210  23.552  0.00  0.00    +0.000 S 
ATOM      9  N   UNL     1      -5.400  13.833  22.096  0.00  0.00    +0.000 N 
ATOM     10  C   UNL     1      -5.656  11.708  19.124  0.00  0.00    +0.000 A 
ATOM     11  O   UNL     1      -6.546  11.091  18.546  0.00  0.00    +0.000 OA
ENDROOT
BRANCH   9  12
ATOM     12  C   UNL     1      -4.566  14.656  22.944  0.00  0.00    +0.000 A 
ATOM     13  C   UNL     1      -4.589  16.053  22.755  0.00  0.00    +0.000 A 
ATOM     14  C   UNL     1      -3.876  16.924  23.580  0.00  0.00    +0.000 A 
ATOM     15  C   UNL     1      -3.067  16.412  24.579  0.00  0.00    +0.000 A 
ATOM     16  C   UNL     1      -2.979  15.032  24.759  0.00  0.00    +0.000 A 
ATOM     17  C   UNL     1      -3.735  14.142  23.971  0.00  0.00    +0.000 A 
BRANCH  17  18
ATOM     18  O   UNL     1      -3.747  12.788  24.202  0.00  0.00    +0.000 OA
ATOM     19  C   UNL     1      -4.764  12.265  25.050  0.00  0.00    +0.000 C 
ENDBRANCH  17  18
ENDBRANCH   9  12
BRANCH   1  20
ATOM     20  C   UNL     1      -4.076  11.223  17.351  0.00  0.00    +0.000 C 
BRANCH  20  21
ATOM     21  C   UNL     1      -3.408   9.847  17.347  0.00  0.00    +0.000 C 
BRANCH  21  23
ATOM     22  C   UNL     1      -2.948  10.115  14.888  0.00  0.00    +0.000 C 
ATOM     23  C   UNL     1      -2.353   9.773  16.242  0.00  0.00    +0.000 C 
ENDBRANCH  21  23
ENDBRANCH  20  21
ENDBRANCH   1  20
BRANCH   2  24
ATOM     24  S   UNL     1      -1.713  12.328  19.019  0.00  0.00    +0.000 S 
BRANCH  24  25
ATOM     25  C   UNL     1      -0.924  12.674  20.601  0.00  0.00    +0.000 C 
BRANCH  25  26
ATOM     26  C   UNL     1       0.433  12.000  20.693  0.00  0.00    +0.000 C 
ATOM     27  O   UNL     1       1.294  11.951  19.826  0.00  0.00    +0.000 OA
BRANCH  26  28
ATOM     28  O   UNL     1       0.528  11.387  21.912  0.00  0.00    +0.000 OA
BRANCH  28  29
ATOM     29  C   UNL     1      -0.472  10.392  22.182  0.00  0.00    +0.000 C 
ATOM     30  C   UNL     1       0.045   9.497  23.293  0.00  0.00    +0.000 C 
ENDBRANCH  28  29
ENDBRANCH  26  28
ENDBRANCH  25  26
ENDBRANCH  24  25
ENDBRANCH   2  24
TORSDOF 10
ENDMDL
MODEL 7
REMARK VINA RESULT:      -5.6      1.984      6.291
REMARK  Name = 
REMARK  13 active torsions:
REMARK  status: ('A' for Active; 'I' for Inactive)
REMARK    1  A    between atoms: C_1  and  C_2
REMARK    2  A    between atoms: C_2  and  C_3
REMARK    3  A    between atoms: C_3  and  C_4
REMARK    4  A    between atoms: C_4  and  N_5
REMARK    5  A    between atoms: C_6  and  S_7
REMARK    6  A    between atoms: S_7  and  C_8
REMARK    7  A    between atoms: C_8  and  C_9
REMARK    8  A    between atoms: C_9  and  O_11
REMARK    9  A    between atoms: O_11  and  C_12
REMARK   10  A    between atoms: C_12  and  C_13
REMARK   11  A    between atoms: N_20  and  C_21
REMARK   12  A    between atoms: C_26  and  O_27
REMARK   13  A    between atoms: O_27  and  C_28
REMARK                            x       y       z     vdW  Elec       q    Type
REMARK                         _______ _______ _______ _____ _____    ______ ____
ROOT
ATOM      1  N   UNL     1      -0.868  11.247  18.929  0.00  0.00    +0.000 N 
ATOM      2  C   UNL     1      -1.256  11.916  20.079  0.00  0.00    +0.000 A 
ATOM      3  N   UNL     1      -2.436  12.401  20.286  0.00  0.00    +0.000 NA
ATOM      4  C   UNL     1      -3.394  12.161  19.340  0.00  0.00    +0.000 A 
ATOM      5  C   UNL     1      -3.150  11.475  18.226  0.00  0.00    +0.000 A 
ATOM      6  S   UNL     1      -4.462  11.365  17.144  0.00  0.00    +0.000 S 
ATOM      7  C   UNL     1      -5.487  12.281  18.278  0.00  0.00    +0.000 A 
ATOM      8  S   UNL     1      -7.106  12.508  17.909  0.00  0.00    +0.000 S 
ATOM      9  N   UNL     1      -4.711  12.633  19.421  0.00  0.00    +0.000 N 
ATOM     10  C   UNL     1      -1.810  10.950  17.952  0.00  0.00    +0.000 A 
ATOM     11  O   UNL     1      -1.572  10.322  16.923  0.00  0.00    +0.000 OA
ENDROOT
BRANCH   9  12
ATOM     12  C   UNL     1      -5.249  13.416  20.512  0.00  0.00    +0.000 A 
ATOM     13  C   UNL     1      -4.943  14.792  20.565  0.00  0.00    +0.000 A 
ATOM     14  C   UNL     1      -5.484  15.634  21.537  0.00  0.00    +0.000 A 
ATOM     15  C   UNL     1      -6.297  15.106  22.525  0.00  0.00    +0.000 A 
ATOM     16  C   UNL     1      -6.576  13.739  22.533  0.00  0.00    +0.000 A 
ATOM     17  C   UNL     1      -6.083  12.885  21.528  0.00  0.00    +0.000 A 
BRANCH  17  18
ATOM     18  O   UNL     1      -6.433  11.559  21.455  0.00  0.00    +0.000 OA
ATOM     19  C   UNL     1      -7.820  11.236  21.420  0.00  0.00    +0.000 C 
ENDBRANCH  17  18
ENDBRANCH   9  12
BRANCH   1  20
ATOM     20  C   UNL     1       0.528  10.918  18.591  0.00  0.00    +0.000 C 
BRANCH  20  21
ATOM     21  C   UNL     1       0.944   9.474  18.875  0.00  0.00    +0.000 C 
BRANCH  21  23
ATOM     22  C   UNL     1       2.720   7.864  18.114  0.00  0.00    +0.000 C 
ATOM     23  C   UNL     1       1.694   8.892  17.676  0.00  0.00    +0.000 C 
ENDBRANCH  21  23
ENDBRANCH  20  21
ENDBRANCH   1  20
BRANCH   2  24
ATOM     24  S   UNL     1      -0.123  12.039  21.402  0.00  0.00    +0.000 S 
BRANCH  24  25
ATOM     25  C   UNL     1      -1.018  13.124  22.527  0.00  0.00    +0.000 C 
BRANCH  25  26
ATOM     26  C   UNL     1      -2.063  12.353  23.314  0.00  0.00    +0.000 C 
ATOM     27  O   UNL     1      -2.090  11.148  23.524  0.00  0.00    +0.000 OA
BRANCH  26  28
ATOM     28  O   UNL     1      -3.031  13.230  23.718  0.00  0.00    +0.000 OA
BRANCH  28  29
ATOM     29  C   UNL     1      -2.635  14.610  23.763  0.00  0.00    +0.000 C 
ATOM     30  C   UNL     1      -3.381  15.274  24.906  0.00  0.00    +0.000 C 
ENDBRANCH  28  29
ENDBRANCH  26  28
ENDBRANCH  25  26
ENDBRANCH  24  25
ENDBRANCH   2  24
TORSDOF 10
ENDMDL
MODEL 8
REMARK VINA RESULT:      -5.6      5.560      9.205
REMARK  Name = 
REMARK  13 active torsions:
REMARK  status: ('A' for Active; 'I' for Inactive)
REMARK    1  A    between atoms: C_1  and  C_2
REMARK    2  A    between atoms: C_2  and  C_3
REMARK    3  A    between atoms: C_3  and  C_4
REMARK    4  A    between atoms: C_4  and  N_5
REMARK    5  A    between atoms: C_6  and  S_7
REMARK    6  A    between atoms: S_7  and  C_8
REMARK    7  A    between atoms: C_8  and  C_9
REMARK    8  A    between atoms: C_9  and  O_11
REMARK    9  A    between atoms: O_11  and  C_12
REMARK   10  A    between atoms: C_12  and  C_13
REMARK   11  A    between atoms: N_20  and  C_21
REMARK   12  A    between atoms: C_26  and  O_27
REMARK   13  A    between atoms: O_27  and  C_28
REMARK                            x       y       z     vdW  Elec       q    Type
REMARK                         _______ _______ _______ _____ _____    ______ ____
ROOT
ATOM      1  N   UNL     1       2.360   6.533  19.185  0.00  0.00    +0.000 N 
ATOM      2  C   UNL     1       2.563   7.707  18.479  0.00  0.00    +0.000 A 
ATOM      3  N   UNL     1       2.057   8.854  18.794  0.00  0.00    +0.000 NA
ATOM      4  C   UNL     1       1.340   8.930  19.957  0.00  0.00    +0.000 A 
ATOM      5  C   UNL     1       1.136   7.880  20.747  0.00  0.00    +0.000 A 
ATOM      6  S   UNL     1       0.146   8.177  22.102  0.00  0.00    +0.000 S 
ATOM      7  C   UNL     1       0.000   9.890  21.632  0.00  0.00    +0.000 A 
ATOM      8  S   UNL     1      -0.827  10.943  22.641  0.00  0.00    +0.000 S 
ATOM      9  N   UNL     1       0.723  10.100  20.421  0.00  0.00    +0.000 N 
ATOM     10  C   UNL     1       1.667   6.562  20.390  0.00  0.00    +0.000 A 
ATOM     11  O   UNL     1       1.477   5.584  21.108  0.00  0.00    +0.000 OA
ENDROOT
BRANCH   9  12
ATOM     12  C   UNL     1       0.768  11.385  19.758  0.00  0.00    +0.000 A 
ATOM     13  C   UNL     1       1.839  12.254  20.052  0.00  0.00    +0.000 A 
ATOM     14  C   UNL     1       2.001  13.477  19.399  0.00  0.00    +0.000 A 
ATOM     15  C   UNL     1       1.055  13.892  18.478  0.00  0.00    +0.000 A 
ATOM     16  C   UNL     1      -0.046  13.080  18.204  0.00  0.00    +0.000 A 
ATOM     17  C   UNL     1      -0.195  11.819  18.812  0.00  0.00    +0.000 A 
BRANCH  17  18
ATOM     18  O   UNL     1      -1.211  10.958  18.476  0.00  0.00    +0.000 OA
ATOM     19  C   UNL     1      -2.156  11.389  17.502  0.00  0.00    +0.000 C 
ENDBRANCH  17  18
ENDBRANCH   9  12
BRANCH   1  20
ATOM     20  C   UNL     1       2.726   5.193  18.692  0.00  0.00    +0.000 C 
BRANCH  20  21
ATOM     21  C   UNL     1       1.679   4.518  17.806  0.00  0.00    +0.000 C 
BRANCH  21  23
ATOM     22  C   UNL     1       2.641   2.194  17.861  0.00  0.00    +0.000 C 
ATOM     23  C   UNL     1       1.464   3.069  18.249  0.00  0.00    +0.000 C 
ENDBRANCH  21  23
ENDBRANCH  20  21
ENDBRANCH   1  20
BRANCH   2  24
ATOM     24  S   UNL     1       3.658   7.692  17.119  0.00  0.00    +0.000 S 
BRANCH  24  25
ATOM     25  C   UNL     1       5.103   6.899  17.843  0.00  0.00    +0.000 C 
BRANCH  25  26
ATOM     26  C   UNL     1       6.305   7.004  16.921  0.00  0.00    +0.000 C 
ATOM     27  O   UNL     1       7.299   7.699  17.080  0.00  0.00    +0.000 OA
BRANCH  26  28
ATOM     28  O   UNL     1       6.074   6.225  15.821  0.00  0.00    +0.000 OA
BRANCH  28  29
ATOM     29  C   UNL     1       6.824   5.002  15.763  0.00  0.00    +0.000 C 
ATOM     30  C   UNL     1       5.839   3.852  15.656  0.00  0.00    +0.000 C 
ENDBRANCH  28  29
ENDBRANCH  26  28
ENDBRANCH  25  26
ENDBRANCH  24  25
ENDBRANCH   2  24
TORSDOF 10
ENDMDL
MODEL 9
REMARK VINA RESULT:      -5.5      2.423      5.654
REMARK  Name = 
REMARK  13 active torsions:
REMARK  status: ('A' for Active; 'I' for Inactive)
REMARK    1  A    between atoms: C_1  and  C_2
REMARK    2  A    between atoms: C_2  and  C_3
REMARK    3  A    between atoms: C_3  and  C_4
REMARK    4  A    between atoms: C_4  and  N_5
REMARK    5  A    between atoms: C_6  and  S_7
REMARK    6  A    between atoms: S_7  and  C_8
REMARK    7  A    between atoms: C_8  and  C_9
REMARK    8  A    between atoms: C_9  and  O_11
REMARK    9  A    between atoms: O_11  and  C_12
REMARK   10  A    between atoms: C_12  and  C_13
REMARK   11  A    between atoms: N_20  and  C_21
REMARK   12  A    between atoms: C_26  and  O_27
REMARK   13  A    between atoms: O_27  and  C_28
REMARK                            x       y       z     vdW  Elec       q    Type
REMARK                         _______ _______ _______ _____ _____    ______ ____
ROOT
ATOM      1  N   UNL     1      -3.461  11.694  18.191  0.00  0.00    +0.000 N 
ATOM      2  C   UNL     1      -2.738  12.297  19.208  0.00  0.00    +0.000 A 
ATOM      3  N   UNL     1      -3.247  12.742  20.310  0.00  0.00    +0.000 NA
ATOM      4  C   UNL     1      -4.580  12.524  20.524  0.00  0.00    +0.000 A 
ATOM      5  C   UNL     1      -5.359  11.900  19.644  0.00  0.00    +0.000 A 
ATOM      6  S   UNL     1      -7.005  11.809  20.073  0.00  0.00    +0.000 S 
ATOM      7  C   UNL     1      -6.661  12.643  21.609  0.00  0.00    +0.000 A 
ATOM      8  S   UNL     1      -7.900  12.848  22.719  0.00  0.00    +0.000 S 
ATOM      9  N   UNL     1      -5.272  12.959  21.663  0.00  0.00    +0.000 N 
ATOM     10  C   UNL     1      -4.812  11.421  18.372  0.00  0.00    +0.000 A 
ATOM     11  O   UNL     1      -5.523  10.850  17.549  0.00  0.00    +0.000 OA
ENDROOT
BRANCH   9  12
ATOM     12  C   UNL     1      -4.681  13.675  22.773  0.00  0.00    +0.000 A 
ATOM     13  C   UNL     1      -4.095  12.929  23.816  0.00  0.00    +0.000 A 
ATOM     14  C   UNL     1      -3.435  13.540  24.884  0.00  0.00    +0.000 A 
ATOM     15  C   UNL     1      -3.402  14.920  24.967  0.00  0.00    +0.000 A 
ATOM     16  C   UNL     1      -4.019  15.689  23.980  0.00  0.00    +0.000 A 
ATOM     17  C   UNL     1      -4.641  15.089  22.868  0.00  0.00    +0.000 A 
BRANCH  17  18
ATOM     18  O   UNL     1      -5.157  15.826  21.831  0.00  0.00    +0.000 OA
ATOM     19  C   UNL     1      -4.788  17.198  21.737  0.00  0.00    +0.000 C 
ENDBRANCH  17  18
ENDBRANCH   9  12
BRANCH   1  20
ATOM     20  C   UNL     1      -2.928  11.417  16.845  0.00  0.00    +0.000 C 
BRANCH  20  21
ATOM     21  C   UNL     1      -2.331  10.022  16.657  0.00  0.00    +0.000 C 
BRANCH  21  23
ATOM     22  C   UNL     1      -3.487  10.321  14.443  0.00  0.00    +0.000 C 
ATOM     23  C   UNL     1      -2.989   9.319  15.468  0.00  0.00    +0.000 C 
ENDBRANCH  21  23
ENDBRANCH  20  21
ENDBRANCH   1  20
BRANCH   2  24
ATOM     24  S   UNL     1      -1.000  12.384  19.066  0.00  0.00    +0.000 S 
BRANCH  24  25
ATOM     25  C   UNL     1      -0.576  13.322  20.543  0.00  0.00    +0.000 C 
BRANCH  25  26
ATOM     26  C   UNL     1       0.536  12.642  21.322  0.00  0.00    +0.000 C 
ATOM     27  O   UNL     1       1.741  12.785  21.166  0.00  0.00    +0.000 OA
BRANCH  26  28
ATOM     28  O   UNL     1      -0.030  11.773  22.213  0.00  0.00    +0.000 OA
BRANCH  28  29
ATOM     29  C   UNL     1       0.230  10.382  21.970  0.00  0.00    +0.000 C 
ATOM     30  C   UNL     1      -0.369   9.586  23.114  0.00  0.00    +0.000 C 
ENDBRANCH  28  29
ENDBRANCH  26  28
ENDBRANCH  25  26
ENDBRANCH  24  25
ENDBRANCH   2  24
TORSDOF 10
ENDMDL
