MODEL 1
REMARK VINA RESULT:      -7.1      0.000      0.000
REMARK  Name = 
REMARK  11 active torsions:
REMARK  status: ('A' for Active; 'I' for Inactive)
REMARK    1  A    between atoms: C_1  and  C_2
REMARK    2  A    between atoms: C_2  and  C_3
REMARK    3  A    between atoms: C_4  and  C_5
REMARK    4  A    between atoms: C_10  and  C_11
REMARK    5  A    between atoms: C_13  and  C_14
REMARK    6  A    between atoms: C_15  and  C_16
REMARK    7  A    between atoms: C_16  and  C_17
REMARK    8  A    between atoms: C_16  and  C_18
REMARK    9  A    between atoms: C_18  and  C_19
REMARK   10  A    between atoms: C_19  and  N_20
REMARK   11  A    between atoms: C_21  and  C_22
REMARK                            x       y       z     vdW  Elec       q    Type
REMARK                         _______ _______ _______ _____ _____    ______ ____
ROOT
ATOM      1  C   UNL     1       2.230   7.467  19.760  0.00  0.00    +0.000 A 
ATOM      2  N   UNL     1       1.569   7.554  20.954  0.00  0.00    +0.000 N 
ATOM      3  C   UNL     1       0.730   8.644  20.955  0.00  0.00    +0.000 A 
ATOM      4  C   UNL     1      -0.113   8.944  22.147  0.00  0.00    +0.000 C 
ATOM      5  C   UNL     1       0.867   9.295  19.732  0.00  0.00    +0.000 A 
ATOM      6  C   UNL     1       1.823   8.528  18.969  0.00  0.00    +0.000 A 
ATOM      7  C   UNL     1       2.330   8.791  17.592  0.00  0.00    +0.000 C 
ATOM      8  H   UNL     1       1.685   6.915  21.730  0.00  0.00    +0.000 HD
ENDROOT
BRANCH   1  16
ATOM      9  C   UNL     1       3.739   4.056  18.948  0.00  0.00    +0.000 C 
ATOM     10  C   UNL     1       3.004   2.977  18.605  0.00  0.00    +0.000 C 
ATOM     11  C   UNL     1       3.390   1.591  18.250  0.00  0.00    +0.000 C 
ATOM     12  C   UNL     1       1.586   3.415  18.590  0.00  0.00    +0.000 C 
ATOM     13  O   UNL     1       0.626   2.731  18.306  0.00  0.00    +0.000 OA
ATOM     14  N   UNL     1       1.602   4.742  18.952  0.00  0.00    +0.000 N 
ATOM     15  C   UNL     1       2.867   5.195  19.195  0.00  0.00    +0.000 C 
ATOM     16  C   UNL     1       3.189   6.436  19.582  0.00  0.00    +0.000 C 
ATOM     17  H   UNL     1       0.768   5.310  19.006  0.00  0.00    +0.000 HD
BRANCH   9  19
ATOM     18  C   UNL     1       5.880   4.511  17.736  0.00  0.00    +0.000 C 
ATOM     19  C   UNL     1       5.233   4.101  19.053  0.00  0.00    +0.000 C 
ENDBRANCH   9  19
ENDBRANCH   1  16
BRANCH   5  20
ATOM     20  C   UNL     1       0.167  10.574  19.282  0.00  0.00    +0.000 C 
ATOM     21  C   UNL     1       0.340  11.706  20.302  0.00  0.00    +0.000 C 
BRANCH  20  22
ATOM     22  C   UNL     1      -1.313  10.331  18.914  0.00  0.00    +0.000 C 
BRANCH  22  23
ATOM     23  C   UNL     1      -2.064  11.623  18.583  0.00  0.00    +0.000 C 
BRANCH  23  24
ATOM     24  N   UNL     1      -1.643  12.145  17.288  0.00  0.00    +0.000 NA
ATOM     25  H   UNL     1      -0.709  11.800  17.066  0.00  0.00    +0.000 HD
ATOM     26  H   UNL     1      -1.570  13.160  17.339  0.00  0.00    +0.000 HD
ENDBRANCH  23  24
ENDBRANCH  22  23
ENDBRANCH  20  22
ENDBRANCH   5  20
TORSDOF 6
ENDMDL
MODEL 2
REMARK VINA RESULT:      -6.9      2.567      7.387
REMARK  Name = 
REMARK  11 active torsions:
REMARK  status: ('A' for Active; 'I' for Inactive)
REMARK    1  A    between atoms: C_1  and  C_2
REMARK    2  A    between atoms: C_2  and  C_3
REMARK    3  A    between atoms: C_4  and  C_5
REMARK    4  A    between atoms: C_10  and  C_11
REMARK    5  A    between atoms: C_13  and  C_14
REMARK    6  A    between atoms: C_15  and  C_16
REMARK    7  A    between atoms: C_16  and  C_17
REMARK    8  A    between atoms: C_16  and  C_18
REMARK    9  A    between atoms: C_18  and  C_19
REMARK   10  A    between atoms: C_19  and  N_20
REMARK   11  A    between atoms: C_21  and  C_22
REMARK                            x       y       z     vdW  Elec       q    Type
REMARK                         _______ _______ _______ _____ _____    ______ ____
ROOT
ATOM      1  C   UNL     1       2.279   6.930  19.541  0.00  0.00    +0.000 A 
ATOM      2  N   UNL     1       1.875   6.092  20.543  0.00  0.00    +0.000 N 
ATOM      3  C   UNL     1       2.600   4.924  20.509  0.00  0.00    +0.000 A 
ATOM      4  C   UNL     1       2.352   3.854  21.516  0.00  0.00    +0.000 C 
ATOM      5  C   UNL     1       3.487   4.999  19.438  0.00  0.00    +0.000 A 
ATOM      6  C   UNL     1       3.281   6.292  18.829  0.00  0.00    +0.000 A 
ATOM      7  C   UNL     1       3.972   6.876  17.645  0.00  0.00    +0.000 C 
ATOM      8  H   UNL     1       1.142   6.296  21.211  0.00  0.00    +0.000 HD
ENDROOT
BRANCH   1  16
ATOM      9  C   UNL     1       0.491  10.198  20.377  0.00  0.00    +0.000 C 
ATOM     10  C   UNL     1       0.181  10.577  21.635  0.00  0.00    +0.000 C 
ATOM     11  C   UNL     1      -0.492  11.788  22.163  0.00  0.00    +0.000 C 
ATOM     12  C   UNL     1       0.692   9.518  22.538  0.00  0.00    +0.000 C 
ATOM     13  O   UNL     1       0.622   9.511  23.749  0.00  0.00    +0.000 OA
ATOM     14  N   UNL     1       1.257   8.569  21.719  0.00  0.00    +0.000 N 
ATOM     15  C   UNL     1       1.164   8.907  20.399  0.00  0.00    +0.000 C 
ATOM     16  C   UNL     1       1.609   8.170  19.373  0.00  0.00    +0.000 C 
ATOM     17  H   UNL     1       1.708   7.735  22.067  0.00  0.00    +0.000 HD
BRANCH   9  19
ATOM     18  C   UNL     1      -1.109  10.556  18.488  0.00  0.00    +0.000 C 
ATOM     19  C   UNL     1       0.207  10.978  19.130  0.00  0.00    +0.000 C 
ENDBRANCH   9  19
ENDBRANCH   1  16
BRANCH   5  20
ATOM     20  C   UNL     1       4.473   3.929  18.978  0.00  0.00    +0.000 C 
ATOM     21  C   UNL     1       5.890   4.494  18.816  0.00  0.00    +0.000 C 
BRANCH  20  22
ATOM     22  C   UNL     1       3.984   3.190  17.713  0.00  0.00    +0.000 C 
BRANCH  22  23
ATOM     23  C   UNL     1       3.283   1.866  18.031  0.00  0.00    +0.000 C 
BRANCH  23  24
ATOM     24  N   UNL     1       4.245   0.875  18.499  0.00  0.00    +0.000 NA
ATOM     25  H   UNL     1       4.031   0.615  19.462  0.00  0.00    +0.000 HD
ATOM     26  H   UNL     1       5.177   1.288  18.513  0.00  0.00    +0.000 HD
ENDBRANCH  23  24
ENDBRANCH  22  23
ENDBRANCH  20  22
ENDBRANCH   5  20
TORSDOF 6
ENDMDL
MODEL 3
REMARK VINA RESULT:      -6.8      1.072      1.414
REMARK  Name = 
REMARK  11 active torsions:
REMARK  status: ('A' for Active; 'I' for Inactive)
REMARK    1  A    between atoms: C_1  and  C_2
REMARK    2  A    between atoms: C_2  and  C_3
REMARK    3  A    between atoms: C_4  and  C_5
REMARK    4  A    between atoms: C_10  and  C_11
REMARK    5  A    between atoms: C_13  and  C_14
REMARK    6  A    between atoms: C_15  and  C_16
REMARK    7  A    between atoms: C_16  and  C_17
REMARK    8  A    between atoms: C_16  and  C_18
REMARK    9  A    between atoms: C_18  and  C_19
REMARK   10  A    between atoms: C_19  and  N_20
REMARK   11  A    between atoms: C_21  and  C_22
REMARK                            x       y       z     vdW  Elec       q    Type
REMARK                         _______ _______ _______ _____ _____    ______ ____
ROOT
ATOM      1  C   UNL     1       2.250   7.472  19.719  0.00  0.00    +0.000 A 
ATOM      2  N   UNL     1       1.690   7.458  20.967  0.00  0.00    +0.000 N 
ATOM      3  C   UNL     1       0.854   8.538  21.125  0.00  0.00    +0.000 A 
ATOM      4  C   UNL     1       0.112   8.735  22.402  0.00  0.00    +0.000 C 
ATOM      5  C   UNL     1       0.890   9.288  19.952  0.00  0.00    +0.000 A 
ATOM      6  C   UNL     1       1.780   8.591  19.053  0.00  0.00    +0.000 A 
ATOM      7  C   UNL     1       2.172   8.968  17.665  0.00  0.00    +0.000 C 
ATOM      8  H   UNL     1       1.869   6.758  21.676  0.00  0.00    +0.000 HD
ENDROOT
BRANCH   1  16
ATOM      9  C   UNL     1       3.695   4.069  18.767  0.00  0.00    +0.000 C 
ATOM     10  C   UNL     1       2.953   2.946  18.664  0.00  0.00    +0.000 C 
ATOM     11  C   UNL     1       3.313   1.554  18.305  0.00  0.00    +0.000 C 
ATOM     12  C   UNL     1       1.551   3.334  18.954  0.00  0.00    +0.000 C 
ATOM     13  O   UNL     1       0.585   2.600  18.940  0.00  0.00    +0.000 OA
ATOM     14  N   UNL     1       1.585   4.681  19.231  0.00  0.00    +0.000 N 
ATOM     15  C   UNL     1       2.848   5.191  19.147  0.00  0.00    +0.000 C 
ATOM     16  C   UNL     1       3.191   6.465  19.380  0.00  0.00    +0.000 C 
ATOM     17  H   UNL     1       0.760   5.223  19.445  0.00  0.00    +0.000 HD
BRANCH   9  19
ATOM     18  C   UNL     1       5.481   4.358  17.039  0.00  0.00    +0.000 C 
ATOM     19  C   UNL     1       5.169   4.172  18.519  0.00  0.00    +0.000 C 
ENDBRANCH   9  19
ENDBRANCH   1  16
BRANCH   5  20
ATOM     20  C   UNL     1       0.155  10.594  19.666  0.00  0.00    +0.000 C 
ATOM     21  C   UNL     1      -0.681  10.506  18.384  0.00  0.00    +0.000 C 
BRANCH  20  22
ATOM     22  C   UNL     1       1.106  11.811  19.669  0.00  0.00    +0.000 C 
BRANCH  22  23
ATOM     23  C   UNL     1       1.058  12.607  18.362  0.00  0.00    +0.000 C 
BRANCH  23  24
ATOM     24  N   UNL     1       2.347  12.558  17.683  0.00  0.00    +0.000 NA
ATOM     25  H   UNL     1       2.979  13.244  18.094  0.00  0.00    +0.000 HD
ATOM     26  H   UNL     1       2.226  12.827  16.707  0.00  0.00    +0.000 HD
ENDBRANCH  23  24
ENDBRANCH  22  23
ENDBRANCH  20  22
ENDBRANCH   5  20
TORSDOF 6
ENDMDL
MODEL 4
REMARK VINA RESULT:      -6.6      2.630      7.390
REMARK  Name = 
REMARK  11 active torsions:
REMARK  status: ('A' for Active; 'I' for Inactive)
REMARK    1  A    between atoms: C_1  and  C_2
REMARK    2  A    between atoms: C_2  and  C_3
REMARK    3  A    between atoms: C_4  and  C_5
REMARK    4  A    between atoms: C_10  and  C_11
REMARK    5  A    between atoms: C_13  and  C_14
REMARK    6  A    between atoms: C_15  and  C_16
REMARK    7  A    between atoms: C_16  and  C_17
REMARK    8  A    between atoms: C_16  and  C_18
REMARK    9  A    between atoms: C_18  and  C_19
REMARK   10  A    between atoms: C_19  and  N_20
REMARK   11  A    between atoms: C_21  and  C_22
REMARK                            x       y       z     vdW  Elec       q    Type
REMARK                         _______ _______ _______ _____ _____    ______ ____
ROOT
ATOM      1  C   UNL     1       2.093   7.469  19.417  0.00  0.00    +0.000 A 
ATOM      2  N   UNL     1       1.832   6.541  20.386  0.00  0.00    +0.000 N 
ATOM      3  C   UNL     1       2.610   5.423  20.198  0.00  0.00    +0.000 A 
ATOM      4  C   UNL     1       2.516   4.273  21.140  0.00  0.00    +0.000 C 
ATOM      5  C   UNL     1       3.385   5.624  19.058  0.00  0.00    +0.000 A 
ATOM      6  C   UNL     1       3.053   6.942  18.569  0.00  0.00    +0.000 A 
ATOM      7  C   UNL     1       3.596   7.648  17.373  0.00  0.00    +0.000 C 
ATOM      8  H   UNL     1       1.157   6.655  21.132  0.00  0.00    +0.000 HD
ENDROOT
BRANCH   1  16
ATOM      9  C   UNL     1       0.150  10.513  20.656  0.00  0.00    +0.000 C 
ATOM     10  C   UNL     1      -0.135  10.736  21.957  0.00  0.00    +0.000 C 
ATOM     11  C   UNL     1      -0.856  11.840  22.634  0.00  0.00    +0.000 C 
ATOM     12  C   UNL     1       0.470   9.620  22.724  0.00  0.00    +0.000 C 
ATOM     13  O   UNL     1       0.445   9.480  23.929  0.00  0.00    +0.000 OA
ATOM     14  N   UNL     1       1.059   8.801  21.789  0.00  0.00    +0.000 N 
ATOM     15  C   UNL     1       0.897   9.271  20.518  0.00  0.00    +0.000 C 
ATOM     16  C   UNL     1       1.346   8.676  19.405  0.00  0.00    +0.000 C 
ATOM     17  H   UNL     1       1.570   7.963  22.031  0.00  0.00    +0.000 HD
BRANCH   9  19
ATOM     18  C   UNL     1      -1.529  10.963  18.858  0.00  0.00    +0.000 C 
ATOM     19  C   UNL     1      -0.225  11.402  19.511  0.00  0.00    +0.000 C 
ENDBRANCH   9  19
ENDBRANCH   1  16
BRANCH   5  20
ATOM     20  C   UNL     1       4.375   4.649  18.429  0.00  0.00    +0.000 C 
ATOM     21  C   UNL     1       3.705   3.321  18.055  0.00  0.00    +0.000 C 
BRANCH  20  22
ATOM     22  C   UNL     1       5.633   4.450  19.303  0.00  0.00    +0.000 C 
BRANCH  22  23
ATOM     23  C   UNL     1       6.670   5.560  19.113  0.00  0.00    +0.000 C 
BRANCH  23  24
ATOM     24  N   UNL     1       7.703   5.479  20.140  0.00  0.00    +0.000 NA
ATOM     25  H   UNL     1       8.183   6.376  20.216  0.00  0.00    +0.000 HD
ATOM     26  H   UNL     1       8.408   4.799  19.859  0.00  0.00    +0.000 HD
ENDBRANCH  23  24
ENDBRANCH  22  23
ENDBRANCH  20  22
ENDBRANCH   5  20
TORSDOF 6
ENDMDL
MODEL 5
REMARK VINA RESULT:      -6.6      2.414      7.276
REMARK  Name = 
REMARK  11 active torsions:
REMARK  status: ('A' for Active; 'I' for Inactive)
REMARK    1  A    between atoms: C_1  and  C_2
REMARK    2  A    between atoms: C_2  and  C_3
REMARK    3  A    between atoms: C_4  and  C_5
REMARK    4  A    between atoms: C_10  and  C_11
REMARK    5  A    between atoms: C_13  and  C_14
REMARK    6  A    between atoms: C_15  and  C_16
REMARK    7  A    between atoms: C_16  and  C_17
REMARK    8  A    between atoms: C_16  and  C_18
REMARK    9  A    between atoms: C_18  and  C_19
REMARK   10  A    between atoms: C_19  and  N_20
REMARK   11  A    between atoms: C_21  and  C_22
REMARK                            x       y       z     vdW  Elec       q    Type
REMARK                         _______ _______ _______ _____ _____    ______ ____
ROOT
ATOM      1  C   UNL     1       1.859   7.674  20.115  0.00  0.00    +0.000 A 
ATOM      2  N   UNL     1       1.587   6.606  20.925  0.00  0.00    +0.000 N 
ATOM      3  C   UNL     1       2.034   5.442  20.345  0.00  0.00    +0.000 A 
ATOM      4  C   UNL     1       1.866   4.138  21.045  0.00  0.00    +0.000 C 
ATOM      5  C   UNL     1       2.594   5.763  19.110  0.00  0.00    +0.000 A 
ATOM      6  C   UNL     1       2.485   7.197  18.976  0.00  0.00    +0.000 A 
ATOM      7  C   UNL     1       2.929   8.055  17.841  0.00  0.00    +0.000 C 
ATOM      8  H   UNL     1       1.118   6.660  21.820  0.00  0.00    +0.000 HD
ENDROOT
BRANCH   1  16
ATOM      9  C   UNL     1      -0.035  10.989  20.132  0.00  0.00    +0.000 C 
ATOM     10  C   UNL     1      -0.895  11.361  19.161  0.00  0.00    +0.000 C 
ATOM     11  C   UNL     1      -1.721  12.579  18.987  0.00  0.00    +0.000 C 
ATOM     12  C   UNL     1      -0.944  10.245  18.185  0.00  0.00    +0.000 C 
ATOM     13  O   UNL     1      -1.625  10.198  17.181  0.00  0.00    +0.000 OA
ATOM     14  N   UNL     1      -0.074   9.293  18.662  0.00  0.00    +0.000 N 
ATOM     15  C   UNL     1       0.520   9.677  19.829  0.00  0.00    +0.000 C 
ATOM     16  C   UNL     1       1.423   8.964  20.515  0.00  0.00    +0.000 C 
ATOM     17  H   UNL     1       0.080   8.405  18.204  0.00  0.00    +0.000 HD
BRANCH   9  19
ATOM     18  C   UNL     1      -0.713  11.570  22.469  0.00  0.00    +0.000 C 
ATOM     19  C   UNL     1       0.305  11.784  21.355  0.00  0.00    +0.000 C 
ENDBRANCH   9  19
ENDBRANCH   1  16
BRANCH   5  20
ATOM     20  C   UNL     1       3.190   4.801  18.087  0.00  0.00    +0.000 C 
ATOM     21  C   UNL     1       2.121   3.880  17.485  0.00  0.00    +0.000 C 
BRANCH  20  22
ATOM     22  C   UNL     1       4.394   4.018  18.653  0.00  0.00    +0.000 C 
BRANCH  22  23
ATOM     23  C   UNL     1       5.615   4.906  18.907  0.00  0.00    +0.000 C 
BRANCH  23  24
ATOM     24  N   UNL     1       6.818   4.295  18.353  0.00  0.00    +0.000 NA
ATOM     25  H   UNL     1       7.571   4.334  19.040  0.00  0.00    +0.000 HD
ATOM     26  H   UNL     1       7.134   4.836  17.550  0.00  0.00    +0.000 HD
ENDBRANCH  23  24
ENDBRANCH  22  23
ENDBRANCH  20  22
ENDBRANCH   5  20
TORSDOF 6
ENDMDL
MODEL 6
REMARK VINA RESULT:      -6.6      1.267      1.696
REMARK  Name = 
REMARK  11 active torsions:
REMARK  status: ('A' for Active; 'I' for Inactive)
REMARK    1  A    between atoms: C_1  and  C_2
REMARK    2  A    between atoms: C_2  and  C_3
REMARK    3  A    between atoms: C_4  and  C_5
REMARK    4  A    between atoms: C_10  and  C_11
REMARK    5  A    between atoms: C_13  and  C_14
REMARK    6  A    between atoms: C_15  and  C_16
REMARK    7  A    between atoms: C_16  and  C_17
REMARK    8  A    between atoms: C_16  and  C_18
REMARK    9  A    between atoms: C_18  and  C_19
REMARK   10  A    between atoms: C_19  and  N_20
REMARK   11  A    between atoms: C_21  and  C_22
REMARK                            x       y       z     vdW  Elec       q    Type
REMARK                         _______ _______ _______ _____ _____    ______ ____
ROOT
ATOM      1  C   UNL     1       2.113   7.747  19.645  0.00  0.00    +0.000 A 
ATOM      2  N   UNL     1       1.832   7.789  20.982  0.00  0.00    +0.000 N 
ATOM      3  C   UNL     1       0.990   8.840  21.259  0.00  0.00    +0.000 A 
ATOM      4  C   UNL     1       0.525   9.085  22.654  0.00  0.00    +0.000 C 
ATOM      5  C   UNL     1       0.734   9.513  20.068  0.00  0.00    +0.000 A 
ATOM      6  C   UNL     1       1.451   8.801  19.037  0.00  0.00    +0.000 A 
ATOM      7  C   UNL     1       1.518   9.105  17.579  0.00  0.00    +0.000 C 
ATOM      8  H   UNL     1       2.196   7.144  21.673  0.00  0.00    +0.000 HD
ENDROOT
BRANCH   1  16
ATOM      9  C   UNL     1       3.509   4.358  18.579  0.00  0.00    +0.000 C 
ATOM     10  C   UNL     1       2.824   3.200  18.692  0.00  0.00    +0.000 C 
ATOM     11  C   UNL     1       3.176   1.805  18.336  0.00  0.00    +0.000 C 
ATOM     12  C   UNL     1       1.494   3.545  19.253  0.00  0.00    +0.000 C 
ATOM     13  O   UNL     1       0.588   2.771  19.480  0.00  0.00    +0.000 OA
ATOM     14  N   UNL     1       1.513   4.906  19.448  0.00  0.00    +0.000 N 
ATOM     15  C   UNL     1       2.701   5.463  19.074  0.00  0.00    +0.000 C 
ATOM     16  C   UNL     1       3.015   6.762  19.165  0.00  0.00    +0.000 C 
ATOM     17  H   UNL     1       0.723   5.424  19.805  0.00  0.00    +0.000 HD
BRANCH   9  19
ATOM     18  C   UNL     1       5.911   4.811  19.111  0.00  0.00    +0.000 C 
ATOM     19  C   UNL     1       4.891   4.508  18.021  0.00  0.00    +0.000 C 
ENDBRANCH   9  19
ENDBRANCH   1  16
BRANCH   5  20
ATOM     20  C   UNL     1      -0.116  10.766  19.878  0.00  0.00    +0.000 C 
ATOM     21  C   UNL     1      -1.291  10.516  18.924  0.00  0.00    +0.000 C 
BRANCH  20  22
ATOM     22  C   UNL     1       0.730  11.989  19.464  0.00  0.00    +0.000 C 
BRANCH  22  23
ATOM     23  C   UNL     1       1.222  12.806  20.662  0.00  0.00    +0.000 C 
BRANCH  23  24
ATOM     24  N   UNL     1       0.322  12.645  21.797  0.00  0.00    +0.000 NA
ATOM     25  H   UNL     1      -0.371  11.926  21.588  0.00  0.00    +0.000 HD
ATOM     26  H   UNL     1      -0.197  13.510  21.943  0.00  0.00    +0.000 HD
ENDBRANCH  23  24
ENDBRANCH  22  23
ENDBRANCH  20  22
ENDBRANCH   5  20
TORSDOF 6
ENDMDL
MODEL 7
REMARK VINA RESULT:      -6.5      1.434      1.501
REMARK  Name = 
REMARK  11 active torsions:
REMARK  status: ('A' for Active; 'I' for Inactive)
REMARK    1  A    between atoms: C_1  and  C_2
REMARK    2  A    between atoms: C_2  and  C_3
REMARK    3  A    between atoms: C_4  and  C_5
REMARK    4  A    between atoms: C_10  and  C_11
REMARK    5  A    between atoms: C_13  and  C_14
REMARK    6  A    between atoms: C_15  and  C_16
REMARK    7  A    between atoms: C_16  and  C_17
REMARK    8  A    between atoms: C_16  and  C_18
REMARK    9  A    between atoms: C_18  and  C_19
REMARK   10  A    between atoms: C_19  and  N_20
REMARK   11  A    between atoms: C_21  and  C_22
REMARK                            x       y       z     vdW  Elec       q    Type
REMARK                         _______ _______ _______ _____ _____    ______ ____
ROOT
ATOM      1  C   UNL     1       2.000   7.902  19.636  0.00  0.00    +0.000 A 
ATOM      2  N   UNL     1       1.520   7.838  20.915  0.00  0.00    +0.000 N 
ATOM      3  C   UNL     1       0.765   8.952  21.196  0.00  0.00    +0.000 A 
ATOM      4  C   UNL     1       0.119   9.106  22.530  0.00  0.00    +0.000 C 
ATOM      5  C   UNL     1       0.772   9.774  20.072  0.00  0.00    +0.000 A 
ATOM      6  C   UNL     1       1.559   9.089  19.074  0.00  0.00    +0.000 A 
ATOM      7  C   UNL     1       1.884   9.534  17.688  0.00  0.00    +0.000 C 
ATOM      8  H   UNL     1       1.701   7.084  21.565  0.00  0.00    +0.000 HD
ENDROOT
BRANCH   1  16
ATOM      9  C   UNL     1       3.707   4.500  19.352  0.00  0.00    +0.000 C 
ATOM     10  C   UNL     1       3.486   3.481  20.210  0.00  0.00    +0.000 C 
ATOM     11  C   UNL     1       4.030   2.103  20.269  0.00  0.00    +0.000 C 
ATOM     12  C   UNL     1       2.476   3.958  21.187  0.00  0.00    +0.000 C 
ATOM     13  O   UNL     1       2.005   3.317  22.103  0.00  0.00    +0.000 OA
ATOM     14  N   UNL     1       2.193   5.255  20.829  0.00  0.00    +0.000 N 
ATOM     15  C   UNL     1       2.907   5.654  19.736  0.00  0.00    +0.000 C 
ATOM     16  C   UNL     1       2.853   6.868  19.171  0.00  0.00    +0.000 C 
ATOM     17  H   UNL     1       1.516   5.827  21.313  0.00  0.00    +0.000 HD
BRANCH   9  19
ATOM     18  C   UNL     1       3.951   3.845  16.950  0.00  0.00    +0.000 C 
ATOM     19  C   UNL     1       4.624   4.466  18.168  0.00  0.00    +0.000 C 
ENDBRANCH   9  19
ENDBRANCH   1  16
BRANCH   5  20
ATOM     20  C   UNL     1       0.103  11.137  19.918  0.00  0.00    +0.000 C 
ATOM     21  C   UNL     1       0.318  12.018  21.156  0.00  0.00    +0.000 C 
BRANCH  20  22
ATOM     22  C   UNL     1      -1.386  11.015  19.531  0.00  0.00    +0.000 C 
BRANCH  22  23
ATOM     23  C   UNL     1      -1.601  10.889  18.021  0.00  0.00    +0.000 C 
BRANCH  23  24
ATOM     24  N   UNL     1      -1.612  12.204  17.391  0.00  0.00    +0.000 NA
ATOM     25  H   UNL     1      -1.452  12.924  18.096  0.00  0.00    +0.000 HD
ATOM     26  H   UNL     1      -2.535  12.385  17.000  0.00  0.00    +0.000 HD
ENDBRANCH  23  24
ENDBRANCH  22  23
ENDBRANCH  20  22
ENDBRANCH   5  20
TORSDOF 6
ENDMDL
MODEL 8
REMARK VINA RESULT:      -6.5      2.662      7.304
REMARK  Name = 
REMARK  11 active torsions:
REMARK  status: ('A' for Active; 'I' for Inactive)
REMARK    1  A    between atoms: C_1  and  C_2
REMARK    2  A    between atoms: C_2  and  C_3
REMARK    3  A    between atoms: C_4  and  C_5
REMARK    4  A    between atoms: C_10  and  C_11
REMARK    5  A    between atoms: C_13  and  C_14
REMARK    6  A    between atoms: C_15  and  C_16
REMARK    7  A    between atoms: C_16  and  C_17
REMARK    8  A    between atoms: C_16  and  C_18
REMARK    9  A    between atoms: C_18  and  C_19
REMARK   10  A    between atoms: C_19  and  N_20
REMARK   11  A    between atoms: C_21  and  C_22
REMARK                            x       y       z     vdW  Elec       q    Type
REMARK                         _______ _______ _______ _____ _____    ______ ____
ROOT
ATOM      1  C   UNL     1       2.186   7.173  19.537  0.00  0.00    +0.000 A 
ATOM      2  N   UNL     1       1.825   6.264  20.493  0.00  0.00    +0.000 N 
ATOM      3  C   UNL     1       2.614   5.141  20.406  0.00  0.00    +0.000 A 
ATOM      4  C   UNL     1       2.422   4.010  21.356  0.00  0.00    +0.000 C 
ATOM      5  C   UNL     1       3.500   5.319  19.346  0.00  0.00    +0.000 A 
ATOM      6  C   UNL     1       3.224   6.627  18.801  0.00  0.00    +0.000 A 
ATOM      7  C   UNL     1       3.887   7.308  17.652  0.00  0.00    +0.000 C 
ATOM      8  H   UNL     1       1.079   6.394  21.165  0.00  0.00    +0.000 HD
ENDROOT
BRANCH   1  16
ATOM      9  C   UNL     1       0.254  10.314  20.524  0.00  0.00    +0.000 C 
ATOM     10  C   UNL     1      -0.042  10.637  21.800  0.00  0.00    +0.000 C 
ATOM     11  C   UNL     1      -0.762  11.793  22.385  0.00  0.00    +0.000 C 
ATOM     12  C   UNL     1       0.547   9.577  22.656  0.00  0.00    +0.000 C 
ATOM     13  O   UNL     1       0.509   9.529  23.867  0.00  0.00    +0.000 OA
ATOM     14  N   UNL     1       1.139   8.686  21.792  0.00  0.00    +0.000 N 
ATOM     15  C   UNL     1       0.993   9.060  20.487  0.00  0.00    +0.000 C 
ATOM     16  C   UNL     1       1.448   8.380  19.426  0.00  0.00    +0.000 C 
ATOM     17  H   UNL     1       1.641   7.866  22.101  0.00  0.00    +0.000 HD
BRANCH   9  19
ATOM     18  C   UNL     1      -1.420  10.659  18.697  0.00  0.00    +0.000 C 
ATOM     19  C   UNL     1      -0.103  11.117  19.311  0.00  0.00    +0.000 C 
ENDBRANCH   9  19
ENDBRANCH   1  16
BRANCH   5  20
ATOM     20  C   UNL     1       4.545   4.330  18.839  0.00  0.00    +0.000 C 
ATOM     21  C   UNL     1       5.968   4.884  18.982  0.00  0.00    +0.000 C 
BRANCH  20  22
ATOM     22  C   UNL     1       4.242   3.843  17.406  0.00  0.00    +0.000 C 
BRANCH  22  23
ATOM     23  C   UNL     1       5.290   4.300  16.388  0.00  0.00    +0.000 C 
BRANCH  23  24
ATOM     24  N   UNL     1       5.979   3.152  15.809  0.00  0.00    +0.000 NA
ATOM     25  H   UNL     1       6.987   3.271  15.907  0.00  0.00    +0.000 HD
ATOM     26  H   UNL     1       5.790   3.114  14.808  0.00  0.00    +0.000 HD
ENDBRANCH  23  24
ENDBRANCH  22  23
ENDBRANCH  20  22
ENDBRANCH   5  20
TORSDOF 6
ENDMDL
MODEL 9
REMARK VINA RESULT:      -6.5      2.582      7.317
REMARK  Name = 
REMARK  11 active torsions:
REMARK  status: ('A' for Active; 'I' for Inactive)
REMARK    1  A    between atoms: C_1  and  C_2
REMARK    2  A    between atoms: C_2  and  C_3
REMARK    3  A    between atoms: C_4  and  C_5
REMARK    4  A    between atoms: C_10  and  C_11
REMARK    5  A    between atoms: C_13  and  C_14
REMARK    6  A    between atoms: C_15  and  C_16
REMARK    7  A    between atoms: C_16  and  C_17
REMARK    8  A    between atoms: C_16  and  C_18
REMARK    9  A    between atoms: C_18  and  C_19
REMARK   10  A    between atoms: C_19  and  N_20
REMARK   11  A    between atoms: C_21  and  C_22
REMARK                            x       y       z     vdW  Elec       q    Type
REMARK                         _______ _______ _______ _____ _____    ______ ____
ROOT
ATOM      1  C   UNL     1       2.628   6.861  18.753  0.00  0.00    +0.000 A 
ATOM      2  N   UNL     1       2.249   5.859  19.603  0.00  0.00    +0.000 N 
ATOM      3  C   UNL     1       3.108   4.791  19.494  0.00  0.00    +0.000 A 
ATOM      4  C   UNL     1       2.911   3.577  20.334  0.00  0.00    +0.000 C 
ATOM      5  C   UNL     1       4.062   5.102  18.528  0.00  0.00    +0.000 A 
ATOM      6  C   UNL     1       3.752   6.435  18.066  0.00  0.00    +0.000 A 
ATOM      7  C   UNL     1       4.460   7.242  17.032  0.00  0.00    +0.000 C 
ATOM      8  H   UNL     1       1.446   5.892  20.219  0.00  0.00    +0.000 HD
ENDROOT
BRANCH   1  16
ATOM      9  C   UNL     1       0.660   9.952  19.823  0.00  0.00    +0.000 C 
ATOM     10  C   UNL     1       0.472  10.307  21.112  0.00  0.00    +0.000 C 
ATOM     11  C   UNL     1      -0.241  11.453  21.727  0.00  0.00    +0.000 C 
ATOM     12  C   UNL     1       1.186   9.304  21.939  0.00  0.00    +0.000 C 
ATOM     13  O   UNL     1       1.265   9.297  23.150  0.00  0.00    +0.000 OA
ATOM     14  N   UNL     1       1.732   8.408  21.050  0.00  0.00    +0.000 N 
ATOM     15  C   UNL     1       1.447   8.729  19.754  0.00  0.00    +0.000 C 
ATOM     16  C   UNL     1       1.830   8.032  18.677  0.00  0.00    +0.000 C 
ATOM     17  H   UNL     1       2.298   7.621  21.335  0.00  0.00    +0.000 HD
BRANCH   9  19
ATOM     18  C   UNL     1      -1.254  10.260  18.242  0.00  0.00    +0.000 C 
ATOM     19  C   UNL     1       0.154  10.697  18.626  0.00  0.00    +0.000 C 
ENDBRANCH   9  19
ENDBRANCH   1  16
BRANCH   5  20
ATOM     20  C   UNL     1       5.202   4.216  18.034  0.00  0.00    +0.000 C 
ATOM     21  C   UNL     1       6.574   4.809  18.380  0.00  0.00    +0.000 C 
BRANCH  20  22
ATOM     22  C   UNL     1       5.067   3.874  16.535  0.00  0.00    +0.000 C 
BRANCH  22  23
ATOM     23  C   UNL     1       6.333   4.194  15.735  0.00  0.00    +0.000 C 
BRANCH  23  24
ATOM     24  N   UNL     1       6.266   3.598  14.406  0.00  0.00    +0.000 NA
ATOM     25  H   UNL     1       7.203   3.542  14.007  0.00  0.00    +0.000 HD
ATOM     26  H   UNL     1       5.727   4.204  13.790  0.00  0.00    +0.000 HD
ENDBRANCH  23  24
ENDBRANCH  22  23
ENDBRANCH  20  22
ENDBRANCH   5  20
TORSDOF 6
ENDMDL
