MODEL 1
REMARK VINA RESULT:      -6.6      0.000      0.000
REMARK  Name = 
REMARK  3 active torsions:
REMARK  status: ('A' for Active; 'I' for Inactive)
REMARK    1  A    between atoms: C_1  and  C_2
REMARK    2  A    between atoms: C_2  and  N_3
REMARK    3  A    between atoms: N_10  and  C_11
REMARK                            x       y       z     vdW  Elec       q    Type
REMARK                         _______ _______ _______ _____ _____    ______ ____
ROOT
ATOM      1  N   UNL     1       5.729   6.271  17.027  0.00  0.00    +0.000 N 
ATOM      2  C   UNL     1       4.455   6.654  17.467  0.00  0.00    +0.000 A 
ATOM      3  C   UNL     1       4.034   7.991  17.443  0.00  0.00    +0.000 A 
ATOM      4  C   UNL     1       2.776   8.357  17.918  0.00  0.00    +0.000 A 
ATOM      5  C   UNL     1       1.928   7.393  18.460  0.00  0.00    +0.000 A 
ATOM      6  C   UNL     1       2.338   6.062  18.505  0.00  0.00    +0.000 A 
ATOM      7  C   UNL     1       3.584   5.686  17.982  0.00  0.00    +0.000 A 
ATOM      8  N   UNL     1       3.976   4.329  18.033  0.00  0.00    +0.000 N 
ATOM      9  C   UNL     1       3.920   3.641  19.310  0.00  0.00    +0.000 C 
ATOM     10  C   UNL     1       4.437   3.602  16.938  0.00  0.00    +0.000 C 
ATOM     11  O   UNL     1       4.328   2.372  16.913  0.00  0.00    +0.000 OA
ATOM     12  C   UNL     1       5.151   4.237  15.801  0.00  0.00    +0.000 A 
ATOM     13  C   UNL     1       5.294   3.473  14.629  0.00  0.00    +0.000 A 
ATOM     14  C   UNL     1       6.221   3.853  13.673  0.00  0.00    +0.000 A 
ATOM     15 CL   UNL     1       6.456   2.919  12.253  0.00  0.00    +0.000 Cl
ATOM     16  C   UNL     1       6.986   4.975  13.920  0.00  0.00    +0.000 A 
ATOM     17  N   UNL     1       6.854   5.747  15.025  0.00  0.00    +0.000 NA
ATOM     18  C   UNL     1       5.924   5.400  15.954  0.00  0.00    +0.000 A 
ENDROOT
BRANCH   1  20
ATOM     19  C   UNL     1       7.632   6.062  18.560  0.00  0.00    +0.000 C 
ATOM     20  C   UNL     1       6.899   6.967  17.567  0.00  0.00    +0.000 C 
ENDBRANCH   1  20
TORSDOF 1
ENDMDL
MODEL 2
REMARK VINA RESULT:      -6.4      3.267      5.347
REMARK  Name = 
REMARK  3 active torsions:
REMARK  status: ('A' for Active; 'I' for Inactive)
REMARK    1  A    between atoms: C_1  and  C_2
REMARK    2  A    between atoms: C_2  and  N_3
REMARK    3  A    between atoms: N_10  and  C_11
REMARK                            x       y       z     vdW  Elec       q    Type
REMARK                         _______ _______ _______ _____ _____    ______ ____
ROOT
ATOM      1  N   UNL     1       4.606   6.914  17.197  0.00  0.00    +0.000 N 
ATOM      2  C   UNL     1       5.765   6.580  17.911  0.00  0.00    +0.000 A 
ATOM      3  C   UNL     1       7.001   7.183  17.639  0.00  0.00    +0.000 A 
ATOM      4  C   UNL     1       8.150   6.812  18.336  0.00  0.00    +0.000 A 
ATOM      5  C   UNL     1       8.088   5.804  19.297  0.00  0.00    +0.000 A 
ATOM      6  C   UNL     1       6.869   5.186  19.568  0.00  0.00    +0.000 A 
ATOM      7  C   UNL     1       5.704   5.592  18.902  0.00  0.00    +0.000 A 
ATOM      8  N   UNL     1       4.478   4.955  19.198  0.00  0.00    +0.000 N 
ATOM      9  C   UNL     1       4.420   3.506  19.134  0.00  0.00    +0.000 C 
ATOM     10  C   UNL     1       3.304   5.625  19.531  0.00  0.00    +0.000 C 
ATOM     11  O   UNL     1       2.431   5.064  20.202  0.00  0.00    +0.000 OA
ATOM     12  C   UNL     1       2.994   6.990  19.034  0.00  0.00    +0.000 A 
ATOM     13  C   UNL     1       1.947   7.680  19.669  0.00  0.00    +0.000 A 
ATOM     14  C   UNL     1       1.386   8.789  19.057  0.00  0.00    +0.000 A 
ATOM     15 CL   UNL     1       0.076   9.626  19.780  0.00  0.00    +0.000 Cl
ATOM     16  C   UNL     1       1.878   9.167  17.824  0.00  0.00    +0.000 A 
ATOM     17  N   UNL     1       2.903   8.542  17.199  0.00  0.00    +0.000 NA
ATOM     18  C   UNL     1       3.481   7.472  17.807  0.00  0.00    +0.000 A 
ENDROOT
BRANCH   1  20
ATOM     19  C   UNL     1       5.223   5.540  15.262  0.00  0.00    +0.000 C 
ATOM     20  C   UNL     1       4.646   6.877  15.734  0.00  0.00    +0.000 C 
ENDBRANCH   1  20
TORSDOF 1
ENDMDL
MODEL 3
REMARK VINA RESULT:      -6.1      2.975      5.116
REMARK  Name = 
REMARK  3 active torsions:
REMARK  status: ('A' for Active; 'I' for Inactive)
REMARK    1  A    between atoms: C_1  and  C_2
REMARK    2  A    between atoms: C_2  and  N_3
REMARK    3  A    between atoms: N_10  and  C_11
REMARK                            x       y       z     vdW  Elec       q    Type
REMARK                         _______ _______ _______ _____ _____    ______ ____
ROOT
ATOM      1  N   UNL     1       5.965   4.624  18.348  0.00  0.00    +0.000 N 
ATOM      2  C   UNL     1       5.937   4.790  16.957  0.00  0.00    +0.000 A 
ATOM      3  C   UNL     1       6.796   4.075  16.109  0.00  0.00    +0.000 A 
ATOM      4  C   UNL     1       6.779   4.280  14.730  0.00  0.00    +0.000 A 
ATOM      5  C   UNL     1       5.923   5.231  14.177  0.00  0.00    +0.000 A 
ATOM      6  C   UNL     1       5.074   5.960  15.008  0.00  0.00    +0.000 A 
ATOM      7  C   UNL     1       5.057   5.720  16.390  0.00  0.00    +0.000 A 
ATOM      8  N   UNL     1       4.184   6.467  17.212  0.00  0.00    +0.000 N 
ATOM      9  C   UNL     1       4.215   7.915  17.118  0.00  0.00    +0.000 C 
ATOM     10  C   UNL     1       3.299   5.908  18.131  0.00  0.00    +0.000 C 
ATOM     11  O   UNL     1       2.280   6.519  18.472  0.00  0.00    +0.000 OA
ATOM     12  C   UNL     1       3.565   4.615  18.812  0.00  0.00    +0.000 A 
ATOM     13  C   UNL     1       2.484   4.005  19.473  0.00  0.00    +0.000 A 
ATOM     14  C   UNL     1       2.722   3.001  20.396  0.00  0.00    +0.000 A 
ATOM     15 CL   UNL     1       1.431   2.268  21.254  0.00  0.00    +0.000 Cl
ATOM     16  C   UNL     1       4.033   2.644  20.641  0.00  0.00    +0.000 A 
ATOM     17  N   UNL     1       5.094   3.191  20.002  0.00  0.00    +0.000 NA
ATOM     18  C   UNL     1       4.867   4.156  19.071  0.00  0.00    +0.000 A 
ENDROOT
BRANCH   1  20
ATOM     19  C   UNL     1       7.799   6.161  18.887  0.00  0.00    +0.000 C 
ATOM     20  C   UNL     1       7.247   4.742  19.046  0.00  0.00    +0.000 C 
ENDBRANCH   1  20
TORSDOF 1
ENDMDL
MODEL 4
REMARK VINA RESULT:      -5.9      6.630      9.245
REMARK  Name = 
REMARK  3 active torsions:
REMARK  status: ('A' for Active; 'I' for Inactive)
REMARK    1  A    between atoms: C_1  and  C_2
REMARK    2  A    between atoms: C_2  and  N_3
REMARK    3  A    between atoms: N_10  and  C_11
REMARK                            x       y       z     vdW  Elec       q    Type
REMARK                         _______ _______ _______ _____ _____    ______ ____
ROOT
ATOM      1  N   UNL     1      -0.107  10.545  18.603  0.00  0.00    +0.000 N 
ATOM      2  C   UNL     1       0.817   9.509  18.796  0.00  0.00    +0.000 A 
ATOM      3  C   UNL     1       1.560   8.972  17.734  0.00  0.00    +0.000 A 
ATOM      4  C   UNL     1       2.447   7.917  17.939  0.00  0.00    +0.000 A 
ATOM      5  C   UNL     1       2.583   7.357  19.209  0.00  0.00    +0.000 A 
ATOM      6  C   UNL     1       1.841   7.870  20.270  0.00  0.00    +0.000 A 
ATOM      7  C   UNL     1       0.983   8.963  20.074  0.00  0.00    +0.000 A 
ATOM      8  N   UNL     1       0.246   9.470  21.168  0.00  0.00    +0.000 N 
ATOM      9  C   UNL     1      -0.553   8.545  21.950  0.00  0.00    +0.000 C 
ATOM     10  C   UNL     1       0.215  10.811  21.540  0.00  0.00    +0.000 C 
ATOM     11  O   UNL     1      -0.042  11.132  22.706  0.00  0.00    +0.000 OA
ATOM     12  C   UNL     1       0.393  11.916  20.564  0.00  0.00    +0.000 A 
ATOM     13  C   UNL     1       0.648  13.197  21.086  0.00  0.00    +0.000 A 
ATOM     14  C   UNL     1       0.488  14.311  20.279  0.00  0.00    +0.000 A 
ATOM     15 CL   UNL     1       0.744  15.890  20.895  0.00  0.00    +0.000 Cl
ATOM     16  C   UNL     1       0.067  14.114  18.979  0.00  0.00    +0.000 A 
ATOM     17  N   UNL     1      -0.160  12.894  18.437  0.00  0.00    +0.000 NA
ATOM     18  C   UNL     1       0.025  11.793  19.214  0.00  0.00    +0.000 A 
ENDROOT
BRANCH   1  20
ATOM     19  C   UNL     1      -2.473  10.040  18.205  0.00  0.00    +0.000 C 
ATOM     20  C   UNL     1      -1.128  10.393  17.565  0.00  0.00    +0.000 C 
ENDBRANCH   1  20
TORSDOF 1
ENDMDL
MODEL 5
REMARK VINA RESULT:      -5.8      8.797     11.063
REMARK  Name = 
REMARK  3 active torsions:
REMARK  status: ('A' for Active; 'I' for Inactive)
REMARK    1  A    between atoms: C_1  and  C_2
REMARK    2  A    between atoms: C_2  and  N_3
REMARK    3  A    between atoms: N_10  and  C_11
REMARK                            x       y       z     vdW  Elec       q    Type
REMARK                         _______ _______ _______ _____ _____    ______ ____
ROOT
ATOM      1  N   UNL     1       8.741  14.382  19.155  0.00  0.00    +0.000 N 
ATOM      2  C   UNL     1       9.900  14.073  18.430  0.00  0.00    +0.000 A 
ATOM      3  C   UNL     1      10.621  15.054  17.734  0.00  0.00    +0.000 A 
ATOM      4  C   UNL     1      11.751  14.721  16.989  0.00  0.00    +0.000 A 
ATOM      5  C   UNL     1      12.162  13.392  16.900  0.00  0.00    +0.000 A 
ATOM      6  C   UNL     1      11.447  12.404  17.575  0.00  0.00    +0.000 A 
ATOM      7  C   UNL     1      10.338  12.744  18.363  0.00  0.00    +0.000 A 
ATOM      8  N   UNL     1       9.632  11.727  19.043  0.00  0.00    +0.000 N 
ATOM      9  C   UNL     1       9.171  10.580  18.283  0.00  0.00    +0.000 C 
ATOM     10  C   UNL     1       9.327  11.755  20.402  0.00  0.00    +0.000 C 
ATOM     11  O   UNL     1       9.138  10.703  21.023  0.00  0.00    +0.000 OA
ATOM     12  C   UNL     1       9.125  13.022  21.150  0.00  0.00    +0.000 A 
ATOM     13  C   UNL     1       9.127  12.944  22.554  0.00  0.00    +0.000 A 
ATOM     14  C   UNL     1       8.616  13.993  23.299  0.00  0.00    +0.000 A 
ATOM     15 CL   UNL     1       8.560  13.912  25.011  0.00  0.00    +0.000 Cl
ATOM     16  C   UNL     1       8.106  15.083  22.622  0.00  0.00    +0.000 A 
ATOM     17  N   UNL     1       8.114  15.201  21.273  0.00  0.00    +0.000 NA
ATOM     18  C   UNL     1       8.643  14.189  20.534  0.00  0.00    +0.000 A 
ENDROOT
BRANCH   1  20
ATOM     19  C   UNL     1       6.848  14.185  17.609  0.00  0.00    +0.000 C 
ATOM     20  C   UNL     1       7.672  15.128  18.488  0.00  0.00    +0.000 C 
ENDBRANCH   1  20
TORSDOF 1
ENDMDL
MODEL 6
REMARK VINA RESULT:      -5.8      9.498     12.150
REMARK  Name = 
REMARK  3 active torsions:
REMARK  status: ('A' for Active; 'I' for Inactive)
REMARK    1  A    between atoms: C_1  and  C_2
REMARK    2  A    between atoms: C_2  and  N_3
REMARK    3  A    between atoms: N_10  and  C_11
REMARK                            x       y       z     vdW  Elec       q    Type
REMARK                         _______ _______ _______ _____ _____    ______ ____
ROOT
ATOM      1  N   UNL     1      -5.047  11.894  18.333  0.00  0.00    +0.000 N 
ATOM      2  C   UNL     1      -5.814  11.835  19.504  0.00  0.00    +0.000 A 
ATOM      3  C   UNL     1      -6.961  11.033  19.598  0.00  0.00    +0.000 A 
ATOM      4  C   UNL     1      -7.732  11.016  20.759  0.00  0.00    +0.000 A 
ATOM      5  C   UNL     1      -7.386  11.828  21.838  0.00  0.00    +0.000 A 
ATOM      6  C   UNL     1      -6.258  12.640  21.754  0.00  0.00    +0.000 A 
ATOM      7  C   UNL     1      -5.454  12.623  20.604  0.00  0.00    +0.000 A 
ATOM      8  N   UNL     1      -4.311  13.451  20.544  0.00  0.00    +0.000 N 
ATOM      9  C   UNL     1      -4.467  14.865  20.829  0.00  0.00    +0.000 C 
ATOM     10  C   UNL     1      -3.035  13.006  20.208  0.00  0.00    +0.000 C 
ATOM     11  O   UNL     1      -2.035  13.618  20.600  0.00  0.00    +0.000 OA
ATOM     12  C   UNL     1      -2.804  11.851  19.304  0.00  0.00    +0.000 A 
ATOM     13  C   UNL     1      -1.508  11.306  19.280  0.00  0.00    +0.000 A 
ATOM     14  C   UNL     1      -1.133  10.473  18.239  0.00  0.00    +0.000 A 
ATOM     15 CL   UNL     1       0.454   9.829  18.153  0.00  0.00    +0.000 Cl
ATOM     16  C   UNL     1      -2.059  10.218  17.247  0.00  0.00    +0.000 A 
ATOM     17  N   UNL     1      -3.323  10.704  17.255  0.00  0.00    +0.000 NA
ATOM     18  C   UNL     1      -3.709  11.497  18.289  0.00  0.00    +0.000 A 
ENDROOT
BRANCH   1  20
ATOM     19  C   UNL     1      -6.458  13.515  17.153  0.00  0.00    +0.000 C 
ATOM     20  C   UNL     1      -5.720  12.177  17.064  0.00  0.00    +0.000 C 
ENDBRANCH   1  20
TORSDOF 1
ENDMDL
MODEL 7
REMARK VINA RESULT:      -5.7      8.124      9.860
REMARK  Name = 
REMARK  3 active torsions:
REMARK  status: ('A' for Active; 'I' for Inactive)
REMARK    1  A    between atoms: C_1  and  C_2
REMARK    2  A    between atoms: C_2  and  N_3
REMARK    3  A    between atoms: N_10  and  C_11
REMARK                            x       y       z     vdW  Elec       q    Type
REMARK                         _______ _______ _______ _____ _____    ______ ____
ROOT
ATOM      1  N   UNL     1       0.542  11.114  19.419  0.00  0.00    +0.000 N 
ATOM      2  C   UNL     1       0.160  10.794  20.729  0.00  0.00    +0.000 A 
ATOM      3  C   UNL     1       0.692   9.687  21.406  0.00  0.00    +0.000 A 
ATOM      4  C   UNL     1       0.274   9.364  22.695  0.00  0.00    +0.000 A 
ATOM      5  C   UNL     1      -0.712  10.127  23.320  0.00  0.00    +0.000 A 
ATOM      6  C   UNL     1      -1.260  11.222  22.655  0.00  0.00    +0.000 A 
ATOM      7  C   UNL     1      -0.805  11.576  21.376  0.00  0.00    +0.000 A 
ATOM      8  N   UNL     1      -1.371  12.694  20.724  0.00  0.00    +0.000 N 
ATOM      9  C   UNL     1      -2.815  12.765  20.603  0.00  0.00    +0.000 C 
ATOM     10  C   UNL     1      -0.633  13.734  20.164  0.00  0.00    +0.000 C 
ATOM     11  O   UNL     1      -1.135  14.855  20.028  0.00  0.00    +0.000 OA
ATOM     12  C   UNL     1       0.737  13.542  19.624  0.00  0.00    +0.000 A 
ATOM     13  C   UNL     1       1.493  14.700  19.370  0.00  0.00    +0.000 A 
ATOM     14  C   UNL     1       2.618  14.622  18.567  0.00  0.00    +0.000 A 
ATOM     15 CL   UNL     1       3.536  16.022  18.198  0.00  0.00    +0.000 Cl
ATOM     16  C   UNL     1       2.948  13.393  18.030  0.00  0.00    +0.000 A 
ATOM     17  N   UNL     1       2.257  12.255  18.277  0.00  0.00    +0.000 NA
ATOM     18  C   UNL     1       1.170  12.317  19.091  0.00  0.00    +0.000 A 
ENDROOT
BRANCH   1  20
ATOM     19  C   UNL     1      -0.934  10.013  17.799  0.00  0.00    +0.000 C 
ATOM     20  C   UNL     1       0.476  10.072  18.393  0.00  0.00    +0.000 C 
ENDBRANCH   1  20
TORSDOF 1
ENDMDL
MODEL 8
REMARK VINA RESULT:      -5.7      8.611     10.564
REMARK  Name = 
REMARK  3 active torsions:
REMARK  status: ('A' for Active; 'I' for Inactive)
REMARK    1  A    between atoms: C_1  and  C_2
REMARK    2  A    between atoms: C_2  and  N_3
REMARK    3  A    between atoms: N_10  and  C_11
REMARK                            x       y       z     vdW  Elec       q    Type
REMARK                         _______ _______ _______ _____ _____    ______ ____
ROOT
ATOM      1  N   UNL     1      10.185  13.984  19.789  0.00  0.00    +0.000 N 
ATOM      2  C   UNL     1      10.605  15.004  18.925  0.00  0.00    +0.000 A 
ATOM      3  C   UNL     1      11.941  15.430  18.876  0.00  0.00    +0.000 A 
ATOM      4  C   UNL     1      12.333  16.470  18.036  0.00  0.00    +0.000 A 
ATOM      5  C   UNL     1      11.386  17.127  17.250  0.00  0.00    +0.000 A 
ATOM      6  C   UNL     1      10.053  16.724  17.299  0.00  0.00    +0.000 A 
ATOM      7  C   UNL     1       9.666  15.646  18.108  0.00  0.00    +0.000 A 
ATOM      8  N   UNL     1       8.310  15.252  18.136  0.00  0.00    +0.000 N 
ATOM      9  C   UNL     1       7.303  16.261  18.408  0.00  0.00    +0.000 C 
ATOM     10  C   UNL     1       7.866  13.946  17.939  0.00  0.00    +0.000 C 
ATOM     11  O   UNL     1       6.722  13.729  17.525  0.00  0.00    +0.000 OA
ATOM     12  C   UNL     1       8.689  12.761  18.292  0.00  0.00    +0.000 A 
ATOM     13  C   UNL     1       8.278  11.520  17.775  0.00  0.00    +0.000 A 
ATOM     14  C   UNL     1       8.777  10.350  18.323  0.00  0.00    +0.000 A 
ATOM     15 CL   UNL     1       8.262   8.818  17.748  0.00  0.00    +0.000 Cl
ATOM     16  C   UNL     1       9.660  10.453  19.378  0.00  0.00    +0.000 A 
ATOM     17  N   UNL     1      10.097  11.632  19.882  0.00  0.00    +0.000 NA
ATOM     18  C   UNL     1       9.637  12.786  19.329  0.00  0.00    +0.000 A 
ENDROOT
BRANCH   1  20
ATOM     19  C   UNL     1       9.412  14.819  21.961  0.00  0.00    +0.000 C 
ATOM     20  C   UNL     1      10.524  14.082  21.210  0.00  0.00    +0.000 C 
ENDBRANCH   1  20
TORSDOF 1
ENDMDL
MODEL 9
REMARK VINA RESULT:      -5.7      8.895     11.292
REMARK  Name = 
REMARK  3 active torsions:
REMARK  status: ('A' for Active; 'I' for Inactive)
REMARK    1  A    between atoms: C_1  and  C_2
REMARK    2  A    between atoms: C_2  and  N_3
REMARK    3  A    between atoms: N_10  and  C_11
REMARK                            x       y       z     vdW  Elec       q    Type
REMARK                         _______ _______ _______ _____ _____    ______ ____
ROOT
ATOM      1  N   UNL     1      -1.981  12.500  21.707  0.00  0.00    +0.000 N 
ATOM      2  C   UNL     1      -1.125  11.400  21.856  0.00  0.00    +0.000 A 
ATOM      3  C   UNL     1      -1.022  10.700  23.067  0.00  0.00    +0.000 A 
ATOM      4  C   UNL     1      -0.138   9.632  23.206  0.00  0.00    +0.000 A 
ATOM      5  C   UNL     1       0.685   9.264  22.142  0.00  0.00    +0.000 A 
ATOM      6  C   UNL     1       0.604   9.960  20.938  0.00  0.00    +0.000 A 
ATOM      7  C   UNL     1      -0.319  11.004  20.781  0.00  0.00    +0.000 A 
ATOM      8  N   UNL     1      -0.387  11.691  19.548  0.00  0.00    +0.000 N 
ATOM      9  C   UNL     1       0.839  12.233  18.991  0.00  0.00    +0.000 C 
ATOM     10  C   UNL     1      -1.561  11.904  18.831  0.00  0.00    +0.000 C 
ATOM     11  O   UNL     1      -1.526  12.080  17.609  0.00  0.00    +0.000 OA
ATOM     12  C   UNL     1      -2.889  12.022  19.488  0.00  0.00    +0.000 A 
ATOM     13  C   UNL     1      -4.022  11.929  18.661  0.00  0.00    +0.000 A 
ATOM     14  C   UNL     1      -5.251  12.361  19.132  0.00  0.00    +0.000 A 
ATOM     15 CL   UNL     1      -6.645  12.305  18.134  0.00  0.00    +0.000 Cl
ATOM     16  C   UNL     1      -5.309  12.884  20.408  0.00  0.00    +0.000 A 
ATOM     17  N   UNL     1      -4.243  12.963  21.239  0.00  0.00    +0.000 NA
ATOM     18  C   UNL     1      -3.039  12.512  20.796  0.00  0.00    +0.000 A 
ENDROOT
BRANCH   1  20
ATOM     19  C   UNL     1      -0.562  14.315  22.545  0.00  0.00    +0.000 C 
ATOM     20  C   UNL     1      -1.903  13.590  22.682  0.00  0.00    +0.000 C 
ENDBRANCH   1  20
TORSDOF 1
ENDMDL
