MODEL 1
REMARK VINA RESULT:      -7.0      0.000      0.000
REMARK  Name = 
REMARK  9 active torsions:
REMARK  status: ('A' for Active; 'I' for Inactive)
REMARK    1  A    between atoms: C_1  and  C_2
REMARK    2  A    between atoms: C_2  and  O_3
REMARK    3  A    between atoms: O_3  and  C_4
REMARK    4  A    between atoms: C_7  and  C_8
REMARK    5  A    between atoms: C_8  and  N_9
REMARK    6  A    between atoms: C_12  and  N_13
REMARK    7  A    between atoms: N_13  and  C_14
REMARK    8  A    between atoms: N_13  and  C_15
REMARK    9  A    between atoms: C_15  and  C_16
REMARK                            x       y       z     vdW  Elec       q    Type
REMARK                         _______ _______ _______ _____ _____    ______ ____
ROOT
ATOM      1  N   UNL     1       1.764   5.782  19.581  0.00  0.00    +0.000 NA
ATOM      2  C   UNL     1       1.871   5.379  18.168  0.00  0.00    +0.000 C 
ATOM      3  C   UNL     1       1.486   3.934  17.863  0.00  0.00    +0.000 C 
ATOM      4  C   UNL     1       2.109   2.900  18.817  0.00  0.00    +0.000 C 
ATOM      5  C   UNL     1       1.699   3.335  20.230  0.00  0.00    +0.000 C 
ATOM      6  C   UNL     1       2.123   4.756  20.572  0.00  0.00    +0.000 C 
ENDROOT
BRANCH   4   7
ATOM      7  N   UNL     1       3.531   2.544  18.561  0.00  0.00    +0.000 NA
ATOM      8  C   UNL     1       3.879   1.121  18.526  0.00  0.00    +0.000 C 
BRANCH   7   9
ATOM      9  C   UNL     1       4.098   3.174  17.347  0.00  0.00    +0.000 C 
BRANCH   9  10
ATOM     10  C   UNL     1       5.278   4.077  17.612  0.00  0.00    +0.000 A 
ATOM     11  C   UNL     1       5.463   4.570  18.917  0.00  0.00    +0.000 A 
ATOM     12  C   UNL     1       6.527   5.430  19.213  0.00  0.00    +0.000 A 
ATOM     13  C   UNL     1       7.405   5.814  18.212  0.00  0.00    +0.000 A 
ATOM     14  C   UNL     1       7.253   5.314  16.918  0.00  0.00    +0.000 A 
ATOM     15  C   UNL     1       6.207   4.433  16.626  0.00  0.00    +0.000 A 
ATOM     16 CL   UNL     1       6.151   3.797  15.017  0.00  0.00    +0.000 Cl
ENDBRANCH   9  10
ENDBRANCH   7   9
ENDBRANCH   4   7
BRANCH   1  17
ATOM     17  C   UNL     1       2.576   6.992  19.847  0.00  0.00    +0.000 C 
BRANCH  17  21
ATOM     18  C   UNL     1       0.849  10.231  18.581  0.00  0.00    +0.000 A 
ATOM     19  N   UNL     1       1.677   9.904  17.608  0.00  0.00    +0.000 NA
ATOM     20  C   UNL     1       2.345   8.749  17.955  0.00  0.00    +0.000 A 
ATOM     21  C   UNL     1       2.041   8.219  19.189  0.00  0.00    +0.000 A 
ATOM     22  S   UNL     1       0.847   9.194  19.941  0.00  0.00    +0.000 S 
BRANCH  18  23
ATOM     23  O   UNL     1       0.043  11.291  18.532  0.00  0.00    +0.000 OA
BRANCH  23  25
ATOM     24  C   UNL     1      -2.019  10.462  17.672  0.00  0.00    +0.000 C 
ATOM     25  C   UNL     1      -1.308  11.020  18.891  0.00  0.00    +0.000 C 
ENDBRANCH  23  25
ENDBRANCH  18  23
ENDBRANCH  17  21
ENDBRANCH   1  17
TORSDOF 7
ENDMDL
MODEL 2
REMARK VINA RESULT:      -6.9      3.907      7.054
REMARK  Name = 
REMARK  9 active torsions:
REMARK  status: ('A' for Active; 'I' for Inactive)
REMARK    1  A    between atoms: C_1  and  C_2
REMARK    2  A    between atoms: C_2  and  O_3
REMARK    3  A    between atoms: O_3  and  C_4
REMARK    4  A    between atoms: C_7  and  C_8
REMARK    5  A    between atoms: C_8  and  N_9
REMARK    6  A    between atoms: C_12  and  N_13
REMARK    7  A    between atoms: N_13  and  C_14
REMARK    8  A    between atoms: N_13  and  C_15
REMARK    9  A    between atoms: C_15  and  C_16
REMARK                            x       y       z     vdW  Elec       q    Type
REMARK                         _______ _______ _______ _____ _____    ______ ____
ROOT
ATOM      1  N   UNL     1       4.227   3.708  17.672  0.00  0.00    +0.000 NA
ATOM      2  C   UNL     1       3.872   2.896  18.849  0.00  0.00    +0.000 C 
ATOM      3  C   UNL     1       2.378   2.766  19.135  0.00  0.00    +0.000 C 
ATOM      4  C   UNL     1       1.608   4.097  19.086  0.00  0.00    +0.000 C 
ATOM      5  C   UNL     1       1.895   4.695  17.702  0.00  0.00    +0.000 C 
ATOM      6  C   UNL     1       3.378   4.882  17.420  0.00  0.00    +0.000 C 
ENDROOT
BRANCH   4   7
ATOM      7  N   UNL     1       1.730   4.972  20.284  0.00  0.00    +0.000 NA
ATOM      8  C   UNL     1       2.196   4.357  21.528  0.00  0.00    +0.000 C 
BRANCH   7   9
ATOM      9  C   UNL     1       2.540   6.190  20.055  0.00  0.00    +0.000 C 
BRANCH   9  10
ATOM     10  C   UNL     1       1.759   7.479  20.153  0.00  0.00    +0.000 A 
ATOM     11  C   UNL     1       1.024   7.727  21.327  0.00  0.00    +0.000 A 
ATOM     12  C   UNL     1       0.264   8.895  21.462  0.00  0.00    +0.000 A 
ATOM     13  C   UNL     1       0.221   9.816  20.427  0.00  0.00    +0.000 A 
ATOM     14  C   UNL     1       0.966   9.599  19.267  0.00  0.00    +0.000 A 
ATOM     15  C   UNL     1       1.747   8.447  19.140  0.00  0.00    +0.000 A 
ATOM     16 CL   UNL     1       2.704   8.308  17.704  0.00  0.00    +0.000 Cl
ENDBRANCH   9  10
ENDBRANCH   7   9
ENDBRANCH   4   7
BRANCH   1  17
ATOM     17  C   UNL     1       5.636   4.157  17.746  0.00  0.00    +0.000 C 
BRANCH  17  21
ATOM     18  C   UNL     1       6.868   4.536  14.084  0.00  0.00    +0.000 A 
ATOM     19  N   UNL     1       7.554   5.443  14.752  0.00  0.00    +0.000 NA
ATOM     20  C   UNL     1       7.196   5.389  16.081  0.00  0.00    +0.000 A 
ATOM     21  C   UNL     1       6.230   4.465  16.414  0.00  0.00    +0.000 A 
ATOM     22  S   UNL     1       5.768   3.605  15.004  0.00  0.00    +0.000 S 
BRANCH  18  23
ATOM     23  O   UNL     1       7.010   4.327  12.775  0.00  0.00    +0.000 OA
BRANCH  23  25
ATOM     24  C   UNL     1       6.845   2.343  11.464  0.00  0.00    +0.000 C 
ATOM     25  C   UNL     1       6.074   3.408  12.222  0.00  0.00    +0.000 C 
ENDBRANCH  23  25
ENDBRANCH  18  23
ENDBRANCH  17  21
ENDBRANCH   1  17
TORSDOF 7
ENDMDL
MODEL 3
REMARK VINA RESULT:      -6.9      3.029      5.953
REMARK  Name = 
REMARK  9 active torsions:
REMARK  status: ('A' for Active; 'I' for Inactive)
REMARK    1  A    between atoms: C_1  and  C_2
REMARK    2  A    between atoms: C_2  and  O_3
REMARK    3  A    between atoms: O_3  and  C_4
REMARK    4  A    between atoms: C_7  and  C_8
REMARK    5  A    between atoms: C_8  and  N_9
REMARK    6  A    between atoms: C_12  and  N_13
REMARK    7  A    between atoms: N_13  and  C_14
REMARK    8  A    between atoms: N_13  and  C_15
REMARK    9  A    between atoms: C_15  and  C_16
REMARK                            x       y       z     vdW  Elec       q    Type
REMARK                         _______ _______ _______ _____ _____    ______ ____
ROOT
ATOM      1  N   UNL     1       3.609   2.903  17.616  0.00  0.00    +0.000 NA
ATOM      2  C   UNL     1       3.174   2.181  18.825  0.00  0.00    +0.000 C 
ATOM      3  C   UNL     1       1.716   2.383  19.226  0.00  0.00    +0.000 C 
ATOM      4  C   UNL     1       1.260   3.852  19.225  0.00  0.00    +0.000 C 
ATOM      5  C   UNL     1       1.564   4.383  17.817  0.00  0.00    +0.000 C 
ATOM      6  C   UNL     1       3.025   4.238  17.420  0.00  0.00    +0.000 C 
ENDROOT
BRANCH   4   7
ATOM      7  N   UNL     1       1.665   4.668  20.401  0.00  0.00    +0.000 NA
ATOM      8  C   UNL     1       2.218   3.961  21.559  0.00  0.00    +0.000 C 
BRANCH   7   9
ATOM      9  C   UNL     1       2.588   5.778  20.070  0.00  0.00    +0.000 C 
BRANCH   9  10
ATOM     10  C   UNL     1       1.939   7.141  20.066  0.00  0.00    +0.000 A 
ATOM     11  C   UNL     1       1.144   7.507  21.169  0.00  0.00    +0.000 A 
ATOM     12  C   UNL     1       0.500   8.749  21.206  0.00  0.00    +0.000 A 
ATOM     13  C   UNL     1       0.633   9.630  20.144  0.00  0.00    +0.000 A 
ATOM     14  C   UNL     1       1.440   9.295  19.055  0.00  0.00    +0.000 A 
ATOM     15  C   UNL     1       2.106   8.066  19.027  0.00  0.00    +0.000 A 
ATOM     16 CL   UNL     1       3.151   7.776  17.678  0.00  0.00    +0.000 Cl
ENDBRANCH   9  10
ENDBRANCH   7   9
ENDBRANCH   4   7
BRANCH   1  17
ATOM     17  C   UNL     1       5.084   3.027  17.577  0.00  0.00    +0.000 C 
BRANCH  17  21
ATOM     18  C   UNL     1       6.442   6.572  16.760  0.00  0.00    +0.000 A 
ATOM     19  N   UNL     1       5.997   6.120  15.604  0.00  0.00    +0.000 NA
ATOM     20  C   UNL     1       5.481   4.855  15.782  0.00  0.00    +0.000 A 
ATOM     21  C   UNL     1       5.553   4.344  17.059  0.00  0.00    +0.000 A 
ATOM     22  S   UNL     1       6.278   5.508  18.090  0.00  0.00    +0.000 S 
BRANCH  18  23
ATOM     23  O   UNL     1       6.980   7.780  16.917  0.00  0.00    +0.000 OA
BRANCH  23  25
ATOM     24  C   UNL     1       8.365   9.310  18.112  0.00  0.00    +0.000 C 
ATOM     25  C   UNL     1       7.972   7.854  17.937  0.00  0.00    +0.000 C 
ENDBRANCH  23  25
ENDBRANCH  18  23
ENDBRANCH  17  21
ENDBRANCH   1  17
TORSDOF 7
ENDMDL
MODEL 4
REMARK VINA RESULT:      -6.7      2.296      2.599
REMARK  Name = 
REMARK  9 active torsions:
REMARK  status: ('A' for Active; 'I' for Inactive)
REMARK    1  A    between atoms: C_1  and  C_2
REMARK    2  A    between atoms: C_2  and  O_3
REMARK    3  A    between atoms: O_3  and  C_4
REMARK    4  A    between atoms: C_7  and  C_8
REMARK    5  A    between atoms: C_8  and  N_9
REMARK    6  A    between atoms: C_12  and  N_13
REMARK    7  A    between atoms: N_13  and  C_14
REMARK    8  A    between atoms: N_13  and  C_15
REMARK    9  A    between atoms: C_15  and  C_16
REMARK                            x       y       z     vdW  Elec       q    Type
REMARK                         _______ _______ _______ _____ _____    ______ ____
ROOT
ATOM      1  N   UNL     1       1.591   6.659  20.042  0.00  0.00    +0.000 NA
ATOM      2  C   UNL     1       2.393   6.792  18.813  0.00  0.00    +0.000 C 
ATOM      3  C   UNL     1       2.424   5.563  17.909  0.00  0.00    +0.000 C 
ATOM      4  C   UNL     1       2.699   4.242  18.649  0.00  0.00    +0.000 C 
ATOM      5  C   UNL     1       1.626   4.145  19.743  0.00  0.00    +0.000 C 
ATOM      6  C   UNL     1       1.616   5.338  20.687  0.00  0.00    +0.000 C 
ENDROOT
BRANCH   4   7
ATOM      7  N   UNL     1       4.118   3.975  19.012  0.00  0.00    +0.000 NA
ATOM      8  C   UNL     1       4.411   2.737  19.737  0.00  0.00    +0.000 C 
BRANCH   7   9
ATOM      9  C   UNL     1       5.053   4.056  17.867  0.00  0.00    +0.000 C 
BRANCH   9  10
ATOM     10  C   UNL     1       6.069   5.168  17.976  0.00  0.00    +0.000 A 
ATOM     11  C   UNL     1       7.021   5.105  19.012  0.00  0.00    +0.000 A 
ATOM     12  C   UNL     1       7.970   6.120  19.174  0.00  0.00    +0.000 A 
ATOM     13  C   UNL     1       7.973   7.209  18.315  0.00  0.00    +0.000 A 
ATOM     14  C   UNL     1       7.054   7.273  17.266  0.00  0.00    +0.000 A 
ATOM     15  C   UNL     1       6.122   6.248  17.086  0.00  0.00    +0.000 A 
ATOM     16 CL   UNL     1       5.082   6.373  15.707  0.00  0.00    +0.000 Cl
ENDBRANCH   9  10
ENDBRANCH   7   9
ENDBRANCH   4   7
BRANCH   1  17
ATOM     17  C   UNL     1       1.988   7.676  21.044  0.00  0.00    +0.000 C 
BRANCH  17  21
ATOM     18  C   UNL     1      -0.452  10.610  21.757  0.00  0.00    +0.000 A 
ATOM     19  N   UNL     1      -0.306  10.622  20.446  0.00  0.00    +0.000 NA
ATOM     20  C   UNL     1       0.547   9.603  20.079  0.00  0.00    +0.000 A 
ATOM     21  C   UNL     1       1.059   8.840  21.105  0.00  0.00    +0.000 A 
ATOM     22  S   UNL     1       0.425   9.405  22.596  0.00  0.00    +0.000 S 
BRANCH  18  23
ATOM     23  O   UNL     1      -1.237  11.463  22.414  0.00  0.00    +0.000 OA
BRANCH  23  25
ATOM     24  C   UNL     1      -1.567  13.577  23.465  0.00  0.00    +0.000 C 
ATOM     25  C   UNL     1      -0.754  12.802  22.445  0.00  0.00    +0.000 C 
ENDBRANCH  23  25
ENDBRANCH  18  23
ENDBRANCH  17  21
ENDBRANCH   1  17
TORSDOF 7
ENDMDL
MODEL 5
REMARK VINA RESULT:      -6.7      0.994      1.220
REMARK  Name = 
REMARK  9 active torsions:
REMARK  status: ('A' for Active; 'I' for Inactive)
REMARK    1  A    between atoms: C_1  and  C_2
REMARK    2  A    between atoms: C_2  and  O_3
REMARK    3  A    between atoms: O_3  and  C_4
REMARK    4  A    between atoms: C_7  and  C_8
REMARK    5  A    between atoms: C_8  and  N_9
REMARK    6  A    between atoms: C_12  and  N_13
REMARK    7  A    between atoms: N_13  and  C_14
REMARK    8  A    between atoms: N_13  and  C_15
REMARK    9  A    between atoms: C_15  and  C_16
REMARK                            x       y       z     vdW  Elec       q    Type
REMARK                         _______ _______ _______ _____ _____    ______ ____
ROOT
ATOM      1  N   UNL     1       1.715   5.699  19.534  0.00  0.00    +0.000 NA
ATOM      2  C   UNL     1       1.875   5.268  18.134  0.00  0.00    +0.000 C 
ATOM      3  C   UNL     1       1.500   3.817  17.842  0.00  0.00    +0.000 C 
ATOM      4  C   UNL     1       2.087   2.802  18.838  0.00  0.00    +0.000 C 
ATOM      5  C   UNL     1       1.625   3.265  20.227  0.00  0.00    +0.000 C 
ATOM      6  C   UNL     1       2.036   4.691  20.557  0.00  0.00    +0.000 C 
ENDROOT
BRANCH   4   7
ATOM      7  N   UNL     1       3.518   2.441  18.643  0.00  0.00    +0.000 NA
ATOM      8  C   UNL     1       3.874   1.022  18.706  0.00  0.00    +0.000 C 
BRANCH   7   9
ATOM      9  C   UNL     1       4.113   2.999  17.407  0.00  0.00    +0.000 C 
BRANCH   9  10
ATOM     10  C   UNL     1       5.227   3.988  17.650  0.00  0.00    +0.000 A 
ATOM     11  C   UNL     1       5.438   4.451  18.962  0.00  0.00    +0.000 A 
ATOM     12  C   UNL     1       6.441   5.386  19.239  0.00  0.00    +0.000 A 
ATOM     13  C   UNL     1       7.233   5.876  18.212  0.00  0.00    +0.000 A 
ATOM     14  C   UNL     1       7.057   5.408  16.909  0.00  0.00    +0.000 A 
ATOM     15  C   UNL     1       6.073   4.454  16.634  0.00  0.00    +0.000 A 
ATOM     16 CL   UNL     1       5.987   3.870  15.007  0.00  0.00    +0.000 Cl
ENDBRANCH   9  10
ENDBRANCH   7   9
ENDBRANCH   4   7
BRANCH   1  17
ATOM     17  C   UNL     1       2.517   6.914  19.807  0.00  0.00    +0.000 C 
BRANCH  17  21
ATOM     18  C   UNL     1       0.482  10.203  19.469  0.00  0.00    +0.000 A 
ATOM     19  N   UNL     1       0.963   9.993  18.259  0.00  0.00    +0.000 NA
ATOM     20  C   UNL     1       1.704   8.832  18.264  0.00  0.00    +0.000 A 
ATOM     21  C   UNL     1       1.804   8.180  19.473  0.00  0.00    +0.000 A 
ATOM     22  S   UNL     1       0.907   9.044  20.652  0.00  0.00    +0.000 S 
BRANCH  18  23
ATOM     23  O   UNL     1      -0.297  11.239  19.779  0.00  0.00    +0.000 OA
BRANCH  23  25
ATOM     24  C   UNL     1       0.882  12.972  20.915  0.00  0.00    +0.000 C 
ATOM     25  C   UNL     1      -0.057  11.790  21.070  0.00  0.00    +0.000 C 
ENDBRANCH  23  25
ENDBRANCH  18  23
ENDBRANCH  17  21
ENDBRANCH   1  17
TORSDOF 7
ENDMDL
MODEL 6
REMARK VINA RESULT:      -6.7      1.358      1.531
REMARK  Name = 
REMARK  9 active torsions:
REMARK  status: ('A' for Active; 'I' for Inactive)
REMARK    1  A    between atoms: C_1  and  C_2
REMARK    2  A    between atoms: C_2  and  O_3
REMARK    3  A    between atoms: O_3  and  C_4
REMARK    4  A    between atoms: C_7  and  C_8
REMARK    5  A    between atoms: C_8  and  N_9
REMARK    6  A    between atoms: C_12  and  N_13
REMARK    7  A    between atoms: N_13  and  C_14
REMARK    8  A    between atoms: N_13  and  C_15
REMARK    9  A    between atoms: C_15  and  C_16
REMARK                            x       y       z     vdW  Elec       q    Type
REMARK                         _______ _______ _______ _____ _____    ______ ____
ROOT
ATOM      1  N   UNL     1       1.584   6.080  19.505  0.00  0.00    +0.000 NA
ATOM      2  C   UNL     1       1.875   5.780  18.092  0.00  0.00    +0.000 C 
ATOM      3  C   UNL     1       1.506   4.374  17.625  0.00  0.00    +0.000 C 
ATOM      4  C   UNL     1       1.972   3.254  18.571  0.00  0.00    +0.000 C 
ATOM      5  C   UNL     1       1.381   3.594  19.946  0.00  0.00    +0.000 C 
ATOM      6  C   UNL     1       1.783   4.972  20.452  0.00  0.00    +0.000 C 
ENDROOT
BRANCH   4   7
ATOM      7  N   UNL     1       3.408   2.874  18.482  0.00  0.00    +0.000 NA
ATOM      8  C   UNL     1       3.749   1.462  18.668  0.00  0.00    +0.000 C 
BRANCH   7   9
ATOM      9  C   UNL     1       4.075   3.337  17.244  0.00  0.00    +0.000 C 
BRANCH   9  10
ATOM     10  C   UNL     1       5.214   4.299  17.478  0.00  0.00    +0.000 A 
ATOM     11  C   UNL     1       5.567   4.608  18.805  0.00  0.00    +0.000 A 
ATOM     12  C   UNL     1       6.599   5.513  19.079  0.00  0.00    +0.000 A 
ATOM     13  C   UNL     1       7.280   6.123  18.037  0.00  0.00    +0.000 A 
ATOM     14  C   UNL     1       6.962   5.807  16.715  0.00  0.00    +0.000 A 
ATOM     15  C   UNL     1       5.949   4.884  16.438  0.00  0.00    +0.000 A 
ATOM     16 CL   UNL     1       5.686   4.491  14.773  0.00  0.00    +0.000 Cl
ENDBRANCH   9  10
ENDBRANCH   7   9
ENDBRANCH   4   7
BRANCH   1  17
ATOM     17  C   UNL     1       2.376   7.241  19.972  0.00  0.00    +0.000 C 
BRANCH  17  21
ATOM     18  C   UNL     1       0.214  10.398  20.633  0.00  0.00    +0.000 A 
ATOM     19  N   UNL     1       0.329   9.830  21.818  0.00  0.00    +0.000 NA
ATOM     20  C   UNL     1       1.094   8.690  21.698  0.00  0.00    +0.000 A 
ATOM     21  C   UNL     1       1.536   8.384  20.430  0.00  0.00    +0.000 A 
ATOM     22  S   UNL     1       0.992   9.592  19.340  0.00  0.00    +0.000 S 
BRANCH  18  23
ATOM     23  O   UNL     1      -0.451  11.534  20.426  0.00  0.00    +0.000 OA
BRANCH  23  25
ATOM     24  C   UNL     1      -2.603  12.380  19.849  0.00  0.00    +0.000 C 
ATOM     25  C   UNL     1      -1.480  11.443  19.446  0.00  0.00    +0.000 C 
ENDBRANCH  23  25
ENDBRANCH  18  23
ENDBRANCH  17  21
ENDBRANCH   1  17
TORSDOF 7
ENDMDL
MODEL 7
REMARK VINA RESULT:      -6.6      1.734      1.940
REMARK  Name = 
REMARK  9 active torsions:
REMARK  status: ('A' for Active; 'I' for Inactive)
REMARK    1  A    between atoms: C_1  and  C_2
REMARK    2  A    between atoms: C_2  and  O_3
REMARK    3  A    between atoms: O_3  and  C_4
REMARK    4  A    between atoms: C_7  and  C_8
REMARK    5  A    between atoms: C_8  and  N_9
REMARK    6  A    between atoms: C_12  and  N_13
REMARK    7  A    between atoms: N_13  and  C_14
REMARK    8  A    between atoms: N_13  and  C_15
REMARK    9  A    between atoms: C_15  and  C_16
REMARK                            x       y       z     vdW  Elec       q    Type
REMARK                         _______ _______ _______ _____ _____    ______ ____
ROOT
ATOM      1  N   UNL     1       1.583   6.630  19.828  0.00  0.00    +0.000 NA
ATOM      2  C   UNL     1       2.299   6.612  18.540  0.00  0.00    +0.000 C 
ATOM      3  C   UNL     1       2.310   5.272  17.810  0.00  0.00    +0.000 C 
ATOM      4  C   UNL     1       2.674   4.072  18.700  0.00  0.00    +0.000 C 
ATOM      5  C   UNL     1       1.678   4.100  19.868  0.00  0.00    +0.000 C 
ATOM      6  C   UNL     1       1.691   5.410  20.641  0.00  0.00    +0.000 C 
ENDROOT
BRANCH   4   7
ATOM      7  N   UNL     1       4.120   3.888  18.997  0.00  0.00    +0.000 NA
ATOM      8  C   UNL     1       4.520   2.661  19.690  0.00  0.00    +0.000 C 
BRANCH   7   9
ATOM      9  C   UNL     1       4.999   4.042  17.815  0.00  0.00    +0.000 C 
BRANCH   9  10
ATOM     10  C   UNL     1       6.031   5.135  17.951  0.00  0.00    +0.000 A 
ATOM     11  C   UNL     1       6.982   5.034  18.983  0.00  0.00    +0.000 A 
ATOM     12  C   UNL     1       7.946   6.031  19.169  0.00  0.00    +0.000 A 
ATOM     13  C   UNL     1       7.965   7.139  18.336  0.00  0.00    +0.000 A 
ATOM     14  C   UNL     1       7.048   7.243  17.290  0.00  0.00    +0.000 A 
ATOM     15  C   UNL     1       6.100   6.236  17.086  0.00  0.00    +0.000 A 
ATOM     16 CL   UNL     1       5.062   6.409  15.711  0.00  0.00    +0.000 Cl
ENDBRANCH   9  10
ENDBRANCH   7   9
ENDBRANCH   4   7
BRANCH   1  17
ATOM     17  C   UNL     1       2.012   7.782  20.654  0.00  0.00    +0.000 C 
BRANCH  17  21
ATOM     18  C   UNL     1      -0.316  10.852  20.172  0.00  0.00    +0.000 A 
ATOM     19  N   UNL     1      -0.655  10.370  21.352  0.00  0.00    +0.000 NA
ATOM     20  C   UNL     1       0.124   9.268  21.629  0.00  0.00    +0.000 A 
ATOM     21  C   UNL     1       1.031   8.905  20.658  0.00  0.00    +0.000 A 
ATOM     22  S   UNL     1       0.923  10.008  19.349  0.00  0.00    +0.000 S 
BRANCH  18  23
ATOM     23  O   UNL     1      -0.877  11.934  19.634  0.00  0.00    +0.000 OA
BRANCH  23  25
ATOM     24  C   UNL     1      -2.483  10.888  18.217  0.00  0.00    +0.000 C 
ATOM     25  C   UNL     1      -1.258  11.782  18.270  0.00  0.00    +0.000 C 
ENDBRANCH  23  25
ENDBRANCH  18  23
ENDBRANCH  17  21
ENDBRANCH   1  17
TORSDOF 7
ENDMDL
MODEL 8
REMARK VINA RESULT:      -6.5      3.111      6.050
REMARK  Name = 
REMARK  9 active torsions:
REMARK  status: ('A' for Active; 'I' for Inactive)
REMARK    1  A    between atoms: C_1  and  C_2
REMARK    2  A    between atoms: C_2  and  O_3
REMARK    3  A    between atoms: O_3  and  C_4
REMARK    4  A    between atoms: C_7  and  C_8
REMARK    5  A    between atoms: C_8  and  N_9
REMARK    6  A    between atoms: C_12  and  N_13
REMARK    7  A    between atoms: N_13  and  C_14
REMARK    8  A    between atoms: N_13  and  C_15
REMARK    9  A    between atoms: C_15  and  C_16
REMARK                            x       y       z     vdW  Elec       q    Type
REMARK                         _______ _______ _______ _____ _____    ______ ____
ROOT
ATOM      1  N   UNL     1       2.437   2.387  17.831  0.00  0.00    +0.000 NA
ATOM      2  C   UNL     1       2.109   1.922  19.191  0.00  0.00    +0.000 C 
ATOM      3  C   UNL     1       0.878   2.560  19.828  0.00  0.00    +0.000 C 
ATOM      4  C   UNL     1       0.827   4.093  19.704  0.00  0.00    +0.000 C 
ATOM      5  C   UNL     1       0.940   4.395  18.203  0.00  0.00    +0.000 C 
ATOM      6  C   UNL     1       2.190   3.811  17.561  0.00  0.00    +0.000 C 
ENDROOT
BRANCH   4   7
ATOM      7  N   UNL     1       1.679   4.858  20.654  0.00  0.00    +0.000 NA
ATOM      8  C   UNL     1       2.421   4.099  21.663  0.00  0.00    +0.000 C 
BRANCH   7   9
ATOM      9  C   UNL     1       2.633   5.779  19.995  0.00  0.00    +0.000 C 
BRANCH   9  10
ATOM     10  C   UNL     1       2.096   7.174  19.777  0.00  0.00    +0.000 A 
ATOM     11  C   UNL     1       1.319   7.758  20.795  0.00  0.00    +0.000 A 
ATOM     12  C   UNL     1       0.777   9.038  20.636  0.00  0.00    +0.000 A 
ATOM     13  C   UNL     1       0.994   9.741  19.461  0.00  0.00    +0.000 A 
ATOM     14  C   UNL     1       1.785   9.188  18.452  0.00  0.00    +0.000 A 
ATOM     15  C   UNL     1       2.350   7.921  18.619  0.00  0.00    +0.000 A 
ATOM     16 CL   UNL     1       3.386   7.356  17.352  0.00  0.00    +0.000 Cl
ENDBRANCH   9  10
ENDBRANCH   7   9
ENDBRANCH   4   7
BRANCH   1  17
ATOM     17  C   UNL     1       3.848   2.086  17.497  0.00  0.00    +0.000 C 
BRANCH  17  21
ATOM     18  C   UNL     1       6.276   5.116  17.522  0.00  0.00    +0.000 A 
ATOM     19  N   UNL     1       6.098   4.833  18.798  0.00  0.00    +0.000 NA
ATOM     20  C   UNL     1       5.248   3.753  18.905  0.00  0.00    +0.000 A 
ATOM     21  C   UNL     1       4.767   3.238  17.722  0.00  0.00    +0.000 A 
ATOM     22  S   UNL     1       5.430   4.128  16.412  0.00  0.00    +0.000 S 
BRANCH  18  23
ATOM     23  O   UNL     1       7.067   6.099  17.093  0.00  0.00    +0.000 OA
BRANCH  23  25
ATOM     24  C   UNL     1       7.953   8.232  17.685  0.00  0.00    +0.000 C 
ATOM     25  C   UNL     1       7.755   6.794  18.129  0.00  0.00    +0.000 C 
ENDBRANCH  23  25
ENDBRANCH  18  23
ENDBRANCH  17  21
ENDBRANCH   1  17
TORSDOF 7
ENDMDL
MODEL 9
REMARK VINA RESULT:      -6.4      2.214      2.536
REMARK  Name = 
REMARK  9 active torsions:
REMARK  status: ('A' for Active; 'I' for Inactive)
REMARK    1  A    between atoms: C_1  and  C_2
REMARK    2  A    between atoms: C_2  and  O_3
REMARK    3  A    between atoms: O_3  and  C_4
REMARK    4  A    between atoms: C_7  and  C_8
REMARK    5  A    between atoms: C_8  and  N_9
REMARK    6  A    between atoms: C_12  and  N_13
REMARK    7  A    between atoms: N_13  and  C_14
REMARK    8  A    between atoms: N_13  and  C_15
REMARK    9  A    between atoms: C_15  and  C_16
REMARK                            x       y       z     vdW  Elec       q    Type
REMARK                         _______ _______ _______ _____ _____    ______ ____
ROOT
ATOM      1  N   UNL     1       1.613   6.792  20.040  0.00  0.00    +0.000 NA
ATOM      2  C   UNL     1       2.358   6.853  18.770  0.00  0.00    +0.000 C 
ATOM      3  C   UNL     1       2.305   5.591  17.912  0.00  0.00    +0.000 C 
ATOM      4  C   UNL     1       2.574   4.290  18.688  0.00  0.00    +0.000 C 
ATOM      5  C   UNL     1       1.554   4.269  19.834  0.00  0.00    +0.000 C 
ATOM      6  C   UNL     1       1.627   5.494  20.732  0.00  0.00    +0.000 C 
ENDROOT
BRANCH   4   7
ATOM      7  N   UNL     1       3.999   3.988  18.992  0.00  0.00    +0.000 NA
ATOM      8  C   UNL     1       4.295   2.730  19.679  0.00  0.00    +0.000 C 
BRANCH   7   9
ATOM      9  C   UNL     1       4.894   4.078  17.816  0.00  0.00    +0.000 C 
BRANCH   9  10
ATOM     10  C   UNL     1       5.954   5.148  17.925  0.00  0.00    +0.000 A 
ATOM     11  C   UNL     1       6.825   5.117  19.031  0.00  0.00    +0.000 A 
ATOM     12  C   UNL     1       7.810   6.097  19.194  0.00  0.00    +0.000 A 
ATOM     13  C   UNL     1       7.929   7.120  18.266  0.00  0.00    +0.000 A 
ATOM     14  C   UNL     1       7.092   7.151  17.149  0.00  0.00    +0.000 A 
ATOM     15  C   UNL     1       6.125   6.158  16.969  0.00  0.00    +0.000 A 
ATOM     16 CL   UNL     1       5.194   6.231  15.512  0.00  0.00    +0.000 Cl
ENDBRANCH   9  10
ENDBRANCH   7   9
ENDBRANCH   4   7
BRANCH   1  17
ATOM     17  C   UNL     1       2.091   7.830  20.982  0.00  0.00    +0.000 C 
BRANCH  17  21
ATOM     18  C   UNL     1      -0.500  10.701  21.323  0.00  0.00    +0.000 A 
ATOM     19  N   UNL     1      -0.538  10.090  22.491  0.00  0.00    +0.000 NA
ATOM     20  C   UNL     1       0.361   9.045  22.482  0.00  0.00    +0.000 A 
ATOM     21  C   UNL     1       1.057   8.853  21.309  0.00  0.00    +0.000 A 
ATOM     22  S   UNL     1       0.585  10.049  20.174  0.00  0.00    +0.000 S 
BRANCH  18  23
ATOM     23  O   UNL     1      -1.242  11.769  21.030  0.00  0.00    +0.000 OA
BRANCH  23  25
ATOM     24  C   UNL     1      -0.251  13.741  21.933  0.00  0.00    +0.000 C 
ATOM     25  C   UNL     1      -0.491  12.926  20.675  0.00  0.00    +0.000 C 
ENDBRANCH  23  25
ENDBRANCH  18  23
ENDBRANCH  17  21
ENDBRANCH   1  17
TORSDOF 7
ENDMDL
