MODEL 1
REMARK VINA RESULT:      -8.1      0.000      0.000
REMARK  Name = 
REMARK  11 active torsions:
REMARK  status: ('A' for Active; 'I' for Inactive)
REMARK    1  A    between atoms: C_1  and  S_2
REMARK    2  A    between atoms: S_2  and  C_3
REMARK    3  A    between atoms: C_3  and  C_4
REMARK    4  A    between atoms: C_4  and  C_5
REMARK    5  A    between atoms: C_5  and  N_6
REMARK    6  A    between atoms: C_5  and  C_14
REMARK    7  A    between atoms: C_7  and  C_9
REMARK    8  A    between atoms: C_14  and  O_16
REMARK    9  A    between atoms: O_16  and  C_17
REMARK   10  A    between atoms: C_17  and  C_18
REMARK   11  A    between atoms: C_20  and  N_21
REMARK                            x       y       z     vdW  Elec       q    Type
REMARK                         _______ _______ _______ _____ _____    ______ ____
ROOT
ATOM      1  C   UNL     1       7.375   5.463  18.276  0.00  0.00    +0.000 C 
ATOM      2  O   UNL     1       8.141   4.508  18.182  0.00  0.00    +0.000 OA
ENDROOT
BRANCH   1   3
ATOM      3  C   UNL     1       7.188   6.527  17.180  0.00  0.00    +0.000 C 
BRANCH   3   4
ATOM      4  N   UNL     1       7.264   5.924  15.849  0.00  0.00    +0.000 N 
ATOM      5  C   UNL     1       6.203   5.235  15.302  0.00  0.00    +0.000 C 
ATOM      6  O   UNL     1       5.130   5.115  15.891  0.00  0.00    +0.000 OA
ATOM      7  H   UNL     1       8.153   5.854  15.365  0.00  0.00    +0.000 HD
BRANCH   5   8
ATOM      8  C   UNL     1       6.457   4.685  13.985  0.00  0.00    +0.000 A 
ATOM      9  C   UNL     1       7.405   5.009  13.032  0.00  0.00    +0.000 A 
ATOM     10  C   UNL     1       7.215   4.123  11.944  0.00  0.00    +0.000 A 
ATOM     11  C   UNL     1       6.154   3.320  12.289  0.00  0.00    +0.000 A 
ATOM     12  O   UNL     1       5.685   3.647  13.522  0.00  0.00    +0.000 OA
ENDBRANCH   5   8
ENDBRANCH   3   4
BRANCH   3  13
ATOM     13  C   UNL     1       8.267   7.603  17.368  0.00  0.00    +0.000 C 
BRANCH  13  14
ATOM     14  C   UNL     1       7.761   8.942  17.908  0.00  0.00    +0.000 C 
BRANCH  14  16
ATOM     15  C   UNL     1       9.446  11.108  17.963  0.00  0.00    +0.000 C 
ATOM     16  S   UNL     1       8.952   9.735  19.030  0.00  0.00    +0.000 S 
ENDBRANCH  14  16
ENDBRANCH  13  14
ENDBRANCH   3  13
ENDBRANCH   1   3
BRANCH   1  17
ATOM     17  O   UNL     1       6.655   5.786  19.387  0.00  0.00    +0.000 OA
BRANCH  17  18
ATOM     18  C   UNL     1       5.639   4.853  19.805  0.00  0.00    +0.000 C 
BRANCH  18  19
ATOM     19  C   UNL     1       4.293   5.177  19.180  0.00  0.00    +0.000 A 
ATOM     20  C   UNL     1       3.855   6.502  19.026  0.00  0.00    +0.000 A 
ATOM     21  C   UNL     1       2.588   6.773  18.492  0.00  0.00    +0.000 A 
ATOM     22  C   UNL     1       1.746   5.731  18.087  0.00  0.00    +0.000 A 
ATOM     23  C   UNL     1       2.180   4.406  18.207  0.00  0.00    +0.000 A 
ATOM     24  C   UNL     1       3.442   4.135  18.760  0.00  0.00    +0.000 A 
ATOM     25  O   UNL     1       3.901   2.852  18.893  0.00  0.00    +0.000 OA
ATOM     26  C   UNL     1       2.886   1.860  18.716  0.00  0.00    +0.000 C 
ATOM     27  O   UNL     1       2.052   2.092  17.589  0.00  0.00    +0.000 OA
ATOM     28  C   UNL     1       1.289   3.273  17.793  0.00  0.00    +0.000 C 
BRANCH  21  29
ATOM     29  N   UNL     1       2.131   8.166  18.376  0.00  0.00    +0.000 N 
ATOM     30  O   UNL     1       2.322   8.746  17.297  0.00  0.00    +0.000 OA
ATOM     31  O   UNL     1       1.596   8.680  19.366  0.00  0.00    +0.000 OA
ENDBRANCH  21  29
ENDBRANCH  18  19
ENDBRANCH  17  18
ENDBRANCH   1  17
TORSDOF 10
ENDMDL
MODEL 2
REMARK VINA RESULT:      -8.1      1.692      2.018
REMARK  Name = 
REMARK  11 active torsions:
REMARK  status: ('A' for Active; 'I' for Inactive)
REMARK    1  A    between atoms: C_1  and  S_2
REMARK    2  A    between atoms: S_2  and  C_3
REMARK    3  A    between atoms: C_3  and  C_4
REMARK    4  A    between atoms: C_4  and  C_5
REMARK    5  A    between atoms: C_5  and  N_6
REMARK    6  A    between atoms: C_5  and  C_14
REMARK    7  A    between atoms: C_7  and  C_9
REMARK    8  A    between atoms: C_14  and  O_16
REMARK    9  A    between atoms: O_16  and  C_17
REMARK   10  A    between atoms: C_17  and  C_18
REMARK   11  A    between atoms: C_20  and  N_21
REMARK                            x       y       z     vdW  Elec       q    Type
REMARK                         _______ _______ _______ _____ _____    ______ ____
ROOT
ATOM      1  C   UNL     1       5.980   5.603  18.392  0.00  0.00    +0.000 C 
ATOM      2  O   UNL     1       6.360   5.573  19.560  0.00  0.00    +0.000 OA
ENDROOT
BRANCH   1   3
ATOM      3  C   UNL     1       6.351   6.714  17.394  0.00  0.00    +0.000 C 
BRANCH   3   4
ATOM      4  N   UNL     1       6.365   6.201  16.024  0.00  0.00    +0.000 N 
ATOM      5  C   UNL     1       7.167   5.142  15.653  0.00  0.00    +0.000 C 
ATOM      6  O   UNL     1       7.888   4.557  16.459  0.00  0.00    +0.000 OA
ATOM      7  H   UNL     1       5.913   6.716  15.276  0.00  0.00    +0.000 HD
BRANCH   5   8
ATOM      8  C   UNL     1       7.073   4.778  14.253  0.00  0.00    +0.000 A 
ATOM      9  C   UNL     1       6.300   3.828  13.611  0.00  0.00    +0.000 A 
ATOM     10  C   UNL     1       6.588   3.930  12.228  0.00  0.00    +0.000 A 
ATOM     11  C   UNL     1       7.529   4.924  12.108  0.00  0.00    +0.000 A 
ATOM     12  O   UNL     1       7.832   5.448  13.325  0.00  0.00    +0.000 OA
ENDBRANCH   5   8
ENDBRANCH   3   4
BRANCH   3  13
ATOM     13  C   UNL     1       7.722   7.279  17.794  0.00  0.00    +0.000 C 
BRANCH  13  14
ATOM     14  C   UNL     1       7.882   8.788  17.604  0.00  0.00    +0.000 C 
BRANCH  14  16
ATOM     15  C   UNL     1       9.127  11.176  18.132  0.00  0.00    +0.000 C 
ATOM     16  S   UNL     1       8.936   9.542  18.880  0.00  0.00    +0.000 S 
ENDBRANCH  14  16
ENDBRANCH  13  14
ENDBRANCH   3  13
ENDBRANCH   1   3
BRANCH   1  17
ATOM     17  O   UNL     1       5.102   4.726  17.829  0.00  0.00    +0.000 OA
BRANCH  17  18
ATOM     18  C   UNL     1       3.802   5.236  17.472  0.00  0.00    +0.000 C 
BRANCH  18  19
ATOM     19  C   UNL     1       2.943   5.482  18.699  0.00  0.00    +0.000 A 
ATOM     20  C   UNL     1       2.532   6.775  19.062  0.00  0.00    +0.000 A 
ATOM     21  C   UNL     1       1.782   6.981  20.226  0.00  0.00    +0.000 A 
ATOM     22  C   UNL     1       1.414   5.903  21.039  0.00  0.00    +0.000 A 
ATOM     23  C   UNL     1       1.791   4.605  20.677  0.00  0.00    +0.000 A 
ATOM     24  C   UNL     1       2.560   4.402  19.519  0.00  0.00    +0.000 A 
ATOM     25  O   UNL     1       2.947   3.146  19.132  0.00  0.00    +0.000 OA
ATOM     26  C   UNL     1       2.769   2.154  20.146  0.00  0.00    +0.000 C 
ATOM     27  O   UNL     1       1.509   2.225  20.800  0.00  0.00    +0.000 OA
ATOM     28  C   UNL     1       1.420   3.435  21.539  0.00  0.00    +0.000 C 
BRANCH  21  29
ATOM     29  N   UNL     1       1.395   8.347  20.610  0.00  0.00    +0.000 N 
ATOM     30  O   UNL     1       1.348   9.205  19.716  0.00  0.00    +0.000 OA
ATOM     31  O   UNL     1       1.155   8.562  21.804  0.00  0.00    +0.000 OA
ENDBRANCH  21  29
ENDBRANCH  18  19
ENDBRANCH  17  18
ENDBRANCH   1  17
TORSDOF 10
ENDMDL
MODEL 3
REMARK VINA RESULT:      -7.9      4.320      7.471
REMARK  Name = 
REMARK  11 active torsions:
REMARK  status: ('A' for Active; 'I' for Inactive)
REMARK    1  A    between atoms: C_1  and  S_2
REMARK    2  A    between atoms: S_2  and  C_3
REMARK    3  A    between atoms: C_3  and  C_4
REMARK    4  A    between atoms: C_4  and  C_5
REMARK    5  A    between atoms: C_5  and  N_6
REMARK    6  A    between atoms: C_5  and  C_14
REMARK    7  A    between atoms: C_7  and  C_9
REMARK    8  A    between atoms: C_14  and  O_16
REMARK    9  A    between atoms: O_16  and  C_17
REMARK   10  A    between atoms: C_17  and  C_18
REMARK   11  A    between atoms: C_20  and  N_21
REMARK                            x       y       z     vdW  Elec       q    Type
REMARK                         _______ _______ _______ _____ _____    ______ ____
ROOT
ATOM      1  C   UNL     1       1.907   9.085  18.010  0.00  0.00    +0.000 C 
ATOM      2  O   UNL     1       2.879   9.330  17.301  0.00  0.00    +0.000 OA
ENDROOT
BRANCH   1   3
ATOM      3  C   UNL     1       0.959  10.160  18.571  0.00  0.00    +0.000 C 
BRANCH   3   4
ATOM      4  N   UNL     1      -0.217  10.315  17.715  0.00  0.00    +0.000 N 
ATOM      5  C   UNL     1      -1.442  10.693  18.224  0.00  0.00    +0.000 C 
ATOM      6  O   UNL     1      -1.602  10.945  19.416  0.00  0.00    +0.000 OA
ATOM      7  H   UNL     1      -0.203   9.987  16.755  0.00  0.00    +0.000 HD
BRANCH   5   8
ATOM      8  C   UNL     1      -2.502  10.777  17.239  0.00  0.00    +0.000 A 
ATOM      9  C   UNL     1      -2.608  10.244  15.969  0.00  0.00    +0.000 A 
ATOM     10  C   UNL     1      -3.879  10.617  15.469  0.00  0.00    +0.000 A 
ATOM     11  C   UNL     1      -4.470  11.369  16.458  0.00  0.00    +0.000 A 
ATOM     12  O   UNL     1      -3.649  11.474  17.536  0.00  0.00    +0.000 OA
ENDBRANCH   5   8
ENDBRANCH   3   4
BRANCH   3  13
ATOM     13  C   UNL     1       1.742  11.475  18.689  0.00  0.00    +0.000 C 
BRANCH  13  14
ATOM     14  C   UNL     1       1.535  12.238  19.999  0.00  0.00    +0.000 C 
BRANCH  14  16
ATOM     15  C   UNL     1       1.281  14.800  19.047  0.00  0.00    +0.000 C 
ATOM     16  S   UNL     1       2.434  13.818  20.034  0.00  0.00    +0.000 S 
ENDBRANCH  14  16
ENDBRANCH  13  14
ENDBRANCH   3  13
ENDBRANCH   1   3
BRANCH   1  17
ATOM     17  O   UNL     1       1.576   7.854  18.492  0.00  0.00    +0.000 OA
BRANCH  17  18
ATOM     18  C   UNL     1       2.592   7.139  19.222  0.00  0.00    +0.000 C 
BRANCH  18  19
ATOM     19  C   UNL     1       3.199   6.026  18.387  0.00  0.00    +0.000 A 
ATOM     20  C   UNL     1       4.264   6.266  17.504  0.00  0.00    +0.000 A 
ATOM     21  C   UNL     1       4.773   5.232  16.708  0.00  0.00    +0.000 A 
ATOM     22  C   UNL     1       4.243   3.940  16.791  0.00  0.00    +0.000 A 
ATOM     23  C   UNL     1       3.200   3.677  17.687  0.00  0.00    +0.000 A 
ATOM     24  C   UNL     1       2.678   4.719  18.471  0.00  0.00    +0.000 A 
ATOM     25  O   UNL     1       1.659   4.500  19.359  0.00  0.00    +0.000 OA
ATOM     26  C   UNL     1       1.005   3.241  19.182  0.00  0.00    +0.000 C 
ATOM     27  O   UNL     1       1.902   2.152  19.007  0.00  0.00    +0.000 OA
ATOM     28  C   UNL     1       2.607   2.303  17.783  0.00  0.00    +0.000 C 
BRANCH  21  29
ATOM     29  N   UNL     1       5.862   5.513  15.760  0.00  0.00    +0.000 N 
ATOM     30  O   UNL     1       6.790   6.238  16.148  0.00  0.00    +0.000 OA
ATOM     31  O   UNL     1       5.779   5.021  14.628  0.00  0.00    +0.000 OA
ENDBRANCH  21  29
ENDBRANCH  18  19
ENDBRANCH  17  18
ENDBRANCH   1  17
TORSDOF 10
ENDMDL
MODEL 4
REMARK VINA RESULT:      -7.9      4.531      7.882
REMARK  Name = 
REMARK  11 active torsions:
REMARK  status: ('A' for Active; 'I' for Inactive)
REMARK    1  A    between atoms: C_1  and  S_2
REMARK    2  A    between atoms: S_2  and  C_3
REMARK    3  A    between atoms: C_3  and  C_4
REMARK    4  A    between atoms: C_4  and  C_5
REMARK    5  A    between atoms: C_5  and  N_6
REMARK    6  A    between atoms: C_5  and  C_14
REMARK    7  A    between atoms: C_7  and  C_9
REMARK    8  A    between atoms: C_14  and  O_16
REMARK    9  A    between atoms: O_16  and  C_17
REMARK   10  A    between atoms: C_17  and  C_18
REMARK   11  A    between atoms: C_20  and  N_21
REMARK                            x       y       z     vdW  Elec       q    Type
REMARK                         _______ _______ _______ _____ _____    ______ ____
ROOT
ATOM      1  C   UNL     1       0.951   9.302  19.610  0.00  0.00    +0.000 C 
ATOM      2  O   UNL     1       0.348   9.014  20.641  0.00  0.00    +0.000 OA
ENDROOT
BRANCH   1   3
ATOM      3  C   UNL     1       0.820  10.653  18.886  0.00  0.00    +0.000 C 
BRANCH   3   4
ATOM      4  N   UNL     1      -0.355  10.667  18.015  0.00  0.00    +0.000 N 
ATOM      5  C   UNL     1      -1.524  11.301  18.381  0.00  0.00    +0.000 C 
ATOM      6  O   UNL     1      -1.628  11.911  19.443  0.00  0.00    +0.000 OA
ATOM      7  H   UNL     1      -0.397  10.069  17.196  0.00  0.00    +0.000 HD
BRANCH   5   8
ATOM      8  C   UNL     1      -2.594  11.198  17.409  0.00  0.00    +0.000 A 
ATOM      9  C   UNL     1      -2.618  10.658  16.137  0.00  0.00    +0.000 A 
ATOM     10  C   UNL     1      -3.942  10.799  15.655  0.00  0.00    +0.000 A 
ATOM     11  C   UNL     1      -4.645  11.429  16.654  0.00  0.00    +0.000 A 
ATOM     12  O   UNL     1      -3.844  11.676  17.723  0.00  0.00    +0.000 OA
ENDBRANCH   5   8
ENDBRANCH   3   4
BRANCH   3  13
ATOM     13  C   UNL     1       2.110  10.895  18.087  0.00  0.00    +0.000 C 
BRANCH  13  14
ATOM     14  C   UNL     1       2.646  12.326  18.139  0.00  0.00    +0.000 C 
BRANCH  14  16
ATOM     15  C   UNL     1       0.906  14.334  18.826  0.00  0.00    +0.000 C 
ATOM     16  S   UNL     1       2.092  13.225  19.619  0.00  0.00    +0.000 S 
ENDBRANCH  14  16
ENDBRANCH  13  14
ENDBRANCH   3  13
ENDBRANCH   1   3
BRANCH   1  17
ATOM     17  O   UNL     1       1.740   8.449  18.897  0.00  0.00    +0.000 OA
BRANCH  17  18
ATOM     18  C   UNL     1       2.576   7.546  19.646  0.00  0.00    +0.000 C 
BRANCH  18  19
ATOM     19  C   UNL     1       2.627   6.171  19.004  0.00  0.00    +0.000 A 
ATOM     20  C   UNL     1       1.772   5.136  19.416  0.00  0.00    +0.000 A 
ATOM     21  C   UNL     1       1.873   3.862  18.842  0.00  0.00    +0.000 A 
ATOM     22  C   UNL     1       2.814   3.603  17.839  0.00  0.00    +0.000 A 
ATOM     23  C   UNL     1       3.654   4.631  17.397  0.00  0.00    +0.000 A 
ATOM     24  C   UNL     1       3.565   5.903  17.987  0.00  0.00    +0.000 A 
ATOM     25  O   UNL     1       4.369   6.935  17.581  0.00  0.00    +0.000 OA
ATOM     26  C   UNL     1       5.466   6.517  16.764  0.00  0.00    +0.000 C 
ATOM     27  O   UNL     1       5.102   5.596  15.745  0.00  0.00    +0.000 OA
ATOM     28  C   UNL     1       4.679   4.374  16.333  0.00  0.00    +0.000 C 
BRANCH  21  29
ATOM     29  N   UNL     1       0.996   2.780  19.314  0.00  0.00    +0.000 N 
ATOM     30  O   UNL     1       1.016   2.510  20.524  0.00  0.00    +0.000 OA
ATOM     31  O   UNL     1       0.303   2.195  18.474  0.00  0.00    +0.000 OA
ENDBRANCH  21  29
ENDBRANCH  18  19
ENDBRANCH  17  18
ENDBRANCH   1  17
TORSDOF 10
ENDMDL
MODEL 5
REMARK VINA RESULT:      -7.9      4.481      8.089
REMARK  Name = 
REMARK  11 active torsions:
REMARK  status: ('A' for Active; 'I' for Inactive)
REMARK    1  A    between atoms: C_1  and  S_2
REMARK    2  A    between atoms: S_2  and  C_3
REMARK    3  A    between atoms: C_3  and  C_4
REMARK    4  A    between atoms: C_4  and  C_5
REMARK    5  A    between atoms: C_5  and  N_6
REMARK    6  A    between atoms: C_5  and  C_14
REMARK    7  A    between atoms: C_7  and  C_9
REMARK    8  A    between atoms: C_14  and  O_16
REMARK    9  A    between atoms: O_16  and  C_17
REMARK   10  A    between atoms: C_17  and  C_18
REMARK   11  A    between atoms: C_20  and  N_21
REMARK                            x       y       z     vdW  Elec       q    Type
REMARK                         _______ _______ _______ _____ _____    ______ ____
ROOT
ATOM      1  C   UNL     1       1.817   9.015  18.391  0.00  0.00    +0.000 C 
ATOM      2  O   UNL     1       2.166   9.634  17.390  0.00  0.00    +0.000 OA
ENDROOT
BRANCH   1   3
ATOM      3  C   UNL     1       0.831   9.560  19.440  0.00  0.00    +0.000 C 
BRANCH   3   4
ATOM      4  N   UNL     1       1.015  10.999  19.630  0.00  0.00    +0.000 N 
ATOM      5  C   UNL     1       0.104  11.917  19.154  0.00  0.00    +0.000 C 
ATOM      6  O   UNL     1      -0.923  11.574  18.571  0.00  0.00    +0.000 OA
ATOM      7  H   UNL     1       1.899  11.365  19.969  0.00  0.00    +0.000 HD
BRANCH   5   8
ATOM      8  C   UNL     1       0.452  13.300  19.411  0.00  0.00    +0.000 A 
ATOM      9  C   UNL     1      -0.001  14.189  20.368  0.00  0.00    +0.000 A 
ATOM     10  C   UNL     1       0.710  15.399  20.177  0.00  0.00    +0.000 A 
ATOM     11  C   UNL     1       1.546  15.183  19.106  0.00  0.00    +0.000 A 
ATOM     12  O   UNL     1       1.402  13.917  18.633  0.00  0.00    +0.000 OA
ENDBRANCH   5   8
ENDBRANCH   3   4
BRANCH   3  13
ATOM     13  C   UNL     1       1.052   8.791  20.750  0.00  0.00    +0.000 C 
BRANCH  13  14
ATOM     14  C   UNL     1       1.144   9.660  22.006  0.00  0.00    +0.000 C 
BRANCH  14  16
ATOM     15  C   UNL     1      -0.998  11.242  22.672  0.00  0.00    +0.000 C 
ATOM     16  S   UNL     1      -0.366   9.584  23.017  0.00  0.00    +0.000 S 
ENDBRANCH  14  16
ENDBRANCH  13  14
ENDBRANCH   3  13
ENDBRANCH   1   3
BRANCH   1  17
ATOM     17  O   UNL     1       2.315   7.808  18.783  0.00  0.00    +0.000 OA
BRANCH  17  18
ATOM     18  C   UNL     1       2.370   6.767  17.788  0.00  0.00    +0.000 C 
BRANCH  18  19
ATOM     19  C   UNL     1       3.559   5.849  18.007  0.00  0.00    +0.000 A 
ATOM     20  C   UNL     1       4.800   6.097  17.398  0.00  0.00    +0.000 A 
ATOM     21  C   UNL     1       5.868   5.209  17.575  0.00  0.00    +0.000 A 
ATOM     22  C   UNL     1       5.724   4.069  18.375  0.00  0.00    +0.000 A 
ATOM     23  C   UNL     1       4.503   3.823  19.012  0.00  0.00    +0.000 A 
ATOM     24  C   UNL     1       3.427   4.704  18.818  0.00  0.00    +0.000 A 
ATOM     25  O   UNL     1       2.217   4.497  19.425  0.00  0.00    +0.000 OA
ATOM     26  C   UNL     1       2.076   3.190  19.988  0.00  0.00    +0.000 C 
ATOM     27  O   UNL     1       3.209   2.763  20.733  0.00  0.00    +0.000 OA
ATOM     28  C   UNL     1       4.321   2.601  19.863  0.00  0.00    +0.000 C 
BRANCH  21  29
ATOM     29  N   UNL     1       7.148   5.465  16.897  0.00  0.00    +0.000 N 
ATOM     30  O   UNL     1       7.886   4.493  16.675  0.00  0.00    +0.000 OA
ATOM     31  O   UNL     1       7.418   6.635  16.602  0.00  0.00    +0.000 OA
ENDBRANCH  21  29
ENDBRANCH  18  19
ENDBRANCH  17  18
ENDBRANCH   1  17
TORSDOF 10
ENDMDL
MODEL 6
REMARK VINA RESULT:      -7.8      4.481      7.566
REMARK  Name = 
REMARK  11 active torsions:
REMARK  status: ('A' for Active; 'I' for Inactive)
REMARK    1  A    between atoms: C_1  and  S_2
REMARK    2  A    between atoms: S_2  and  C_3
REMARK    3  A    between atoms: C_3  and  C_4
REMARK    4  A    between atoms: C_4  and  C_5
REMARK    5  A    between atoms: C_5  and  N_6
REMARK    6  A    between atoms: C_5  and  C_14
REMARK    7  A    between atoms: C_7  and  C_9
REMARK    8  A    between atoms: C_14  and  O_16
REMARK    9  A    between atoms: O_16  and  C_17
REMARK   10  A    between atoms: C_17  and  C_18
REMARK   11  A    between atoms: C_20  and  N_21
REMARK                            x       y       z     vdW  Elec       q    Type
REMARK                         _______ _______ _______ _____ _____    ______ ____
ROOT
ATOM      1  C   UNL     1       1.546   9.327  19.290  0.00  0.00    +0.000 C 
ATOM      2  O   UNL     1       1.274   8.626  20.261  0.00  0.00    +0.000 OA
ENDROOT
BRANCH   1   3
ATOM      3  C   UNL     1       0.914  10.703  19.018  0.00  0.00    +0.000 C 
BRANCH   3   4
ATOM      4  N   UNL     1      -0.163  10.596  18.033  0.00  0.00    +0.000 N 
ATOM      5  C   UNL     1      -1.453  10.989  18.322  0.00  0.00    +0.000 C 
ATOM      6  O   UNL     1      -1.758  11.475  19.409  0.00  0.00    +0.000 OA
ATOM      7  H   UNL     1      -0.025  10.076  17.173  0.00  0.00    +0.000 HD
BRANCH   5   8
ATOM      8  C   UNL     1      -2.397  10.794  17.240  0.00  0.00    +0.000 A 
ATOM      9  C   UNL     1      -3.667  11.302  17.039  0.00  0.00    +0.000 A 
ATOM     10  C   UNL     1      -4.117  10.805  15.792  0.00  0.00    +0.000 A 
ATOM     11  C   UNL     1      -3.103  10.012  15.310  0.00  0.00    +0.000 A 
ATOM     12  O   UNL     1      -2.054   9.997  16.175  0.00  0.00    +0.000 OA
ENDBRANCH   5   8
ENDBRANCH   3   4
BRANCH   3  13
ATOM     13  C   UNL     1       2.021  11.651  18.534  0.00  0.00    +0.000 C 
BRANCH  13  14
ATOM     14  C   UNL     1       1.667  13.139  18.579  0.00  0.00    +0.000 C 
BRANCH  14  16
ATOM     15  C   UNL     1       1.573  15.445  20.065  0.00  0.00    +0.000 C 
ATOM     16  S   UNL     1       1.183  13.689  20.243  0.00  0.00    +0.000 S 
ENDBRANCH  14  16
ENDBRANCH  13  14
ENDBRANCH   3  13
ENDBRANCH   1   3
BRANCH   1  17
ATOM     17  O   UNL     1       2.362   8.961  18.261  0.00  0.00    +0.000 OA
BRANCH  17  18
ATOM     18  C   UNL     1       2.148   7.658  17.685  0.00  0.00    +0.000 C 
BRANCH  18  19
ATOM     19  C   UNL     1       3.362   6.764  17.862  0.00  0.00    +0.000 A 
ATOM     20  C   UNL     1       4.602   7.085  17.286  0.00  0.00    +0.000 A 
ATOM     21  C   UNL     1       5.694   6.219  17.422  0.00  0.00    +0.000 A 
ATOM     22  C   UNL     1       5.576   5.029  18.149  0.00  0.00    +0.000 A 
ATOM     23  C   UNL     1       4.355   4.708  18.754  0.00  0.00    +0.000 A 
ATOM     24  C   UNL     1       3.256   5.568  18.600  0.00  0.00    +0.000 A 
ATOM     25  O   UNL     1       2.046   5.288  19.178  0.00  0.00    +0.000 OA
ATOM     26  C   UNL     1       1.938   3.945  19.658  0.00  0.00    +0.000 C 
ATOM     27  O   UNL     1       3.075   3.507  20.390  0.00  0.00    +0.000 OA
ATOM     28  C   UNL     1       4.200   3.431  19.526  0.00  0.00    +0.000 C 
BRANCH  21  29
ATOM     29  N   UNL     1       6.973   6.554  16.777  0.00  0.00    +0.000 N 
ATOM     30  O   UNL     1       7.440   5.738  15.969  0.00  0.00    +0.000 OA
ATOM     31  O   UNL     1       7.513   7.621  17.091  0.00  0.00    +0.000 OA
ENDBRANCH  21  29
ENDBRANCH  18  19
ENDBRANCH  17  18
ENDBRANCH   1  17
TORSDOF 10
ENDMDL
MODEL 7
REMARK VINA RESULT:      -7.8      4.564      7.647
REMARK  Name = 
REMARK  11 active torsions:
REMARK  status: ('A' for Active; 'I' for Inactive)
REMARK    1  A    between atoms: C_1  and  S_2
REMARK    2  A    between atoms: S_2  and  C_3
REMARK    3  A    between atoms: C_3  and  C_4
REMARK    4  A    between atoms: C_4  and  C_5
REMARK    5  A    between atoms: C_5  and  N_6
REMARK    6  A    between atoms: C_5  and  C_14
REMARK    7  A    between atoms: C_7  and  C_9
REMARK    8  A    between atoms: C_14  and  O_16
REMARK    9  A    between atoms: O_16  and  C_17
REMARK   10  A    between atoms: C_17  and  C_18
REMARK   11  A    between atoms: C_20  and  N_21
REMARK                            x       y       z     vdW  Elec       q    Type
REMARK                         _______ _______ _______ _____ _____    ______ ____
ROOT
ATOM      1  C   UNL     1       1.902   9.369  18.081  0.00  0.00    +0.000 C 
ATOM      2  O   UNL     1       2.907   9.611  17.419  0.00  0.00    +0.000 OA
ENDROOT
BRANCH   1   3
ATOM      3  C   UNL     1       0.960  10.449  18.642  0.00  0.00    +0.000 C 
BRANCH   3   4
ATOM      4  N   UNL     1      -0.236  10.581  17.810  0.00  0.00    +0.000 N 
ATOM      5  C   UNL     1      -1.470  10.869  18.352  0.00  0.00    +0.000 C 
ATOM      6  O   UNL     1      -1.625  11.057  19.557  0.00  0.00    +0.000 OA
ATOM      7  H   UNL     1      -0.219  10.300  16.835  0.00  0.00    +0.000 HD
BRANCH   5   8
ATOM      8  C   UNL     1      -2.549  10.944  17.387  0.00  0.00    +0.000 A 
ATOM      9  C   UNL     1      -2.661  10.433  16.107  0.00  0.00    +0.000 A 
ATOM     10  C   UNL     1      -3.950  10.779  15.636  0.00  0.00    +0.000 A 
ATOM     11  C   UNL     1      -4.545  11.494  16.649  0.00  0.00    +0.000 A 
ATOM     12  O   UNL     1      -3.710  11.601  17.716  0.00  0.00    +0.000 OA
ENDBRANCH   5   8
ENDBRANCH   3   4
BRANCH   3  13
ATOM     13  C   UNL     1       1.738  11.771  18.717  0.00  0.00    +0.000 C 
BRANCH  13  14
ATOM     14  C   UNL     1       1.524  12.578  19.998  0.00  0.00    +0.000 C 
BRANCH  14  16
ATOM     15  C   UNL     1       1.694  15.049  18.816  0.00  0.00    +0.000 C 
ATOM     16  S   UNL     1       0.494  14.052  19.728  0.00  0.00    +0.000 S 
ENDBRANCH  14  16
ENDBRANCH  13  14
ENDBRANCH   3  13
ENDBRANCH   1   3
BRANCH   1  17
ATOM     17  O   UNL     1       1.518   8.131  18.505  0.00  0.00    +0.000 OA
BRANCH  17  18
ATOM     18  C   UNL     1       2.343   7.494  19.501  0.00  0.00    +0.000 C 
BRANCH  18  19
ATOM     19  C   UNL     1       3.037   6.264  18.946  0.00  0.00    +0.000 A 
ATOM     20  C   UNL     1       3.797   6.318  17.766  0.00  0.00    +0.000 A 
ATOM     21  C   UNL     1       4.387   5.159  17.247  0.00  0.00    +0.000 A 
ATOM     22  C   UNL     1       4.245   3.930  17.903  0.00  0.00    +0.000 A 
ATOM     23  C   UNL     1       3.514   3.864  19.094  0.00  0.00    +0.000 A 
ATOM     24  C   UNL     1       2.908   5.024  19.603  0.00  0.00    +0.000 A 
ATOM     25  O   UNL     1       2.186   4.999  20.767  0.00  0.00    +0.000 OA
ATOM     26  C   UNL     1       1.865   3.678  21.213  0.00  0.00    +0.000 C 
ATOM     27  O   UNL     1       2.961   2.775  21.160  0.00  0.00    +0.000 OA
ATOM     28  C   UNL     1       3.336   2.556  19.807  0.00  0.00    +0.000 C 
BRANCH  21  29
ATOM     29  N   UNL     1       5.146   5.229  15.989  0.00  0.00    +0.000 N 
ATOM     30  O   UNL     1       5.282   4.181  15.341  0.00  0.00    +0.000 OA
ATOM     31  O   UNL     1       5.615   6.325  15.662  0.00  0.00    +0.000 OA
ENDBRANCH  21  29
ENDBRANCH  18  19
ENDBRANCH  17  18
ENDBRANCH   1  17
TORSDOF 10
ENDMDL
MODEL 8
REMARK VINA RESULT:      -7.7      4.733      8.533
REMARK  Name = 
REMARK  11 active torsions:
REMARK  status: ('A' for Active; 'I' for Inactive)
REMARK    1  A    between atoms: C_1  and  S_2
REMARK    2  A    between atoms: S_2  and  C_3
REMARK    3  A    between atoms: C_3  and  C_4
REMARK    4  A    between atoms: C_4  and  C_5
REMARK    5  A    between atoms: C_5  and  N_6
REMARK    6  A    between atoms: C_5  and  C_14
REMARK    7  A    between atoms: C_7  and  C_9
REMARK    8  A    between atoms: C_14  and  O_16
REMARK    9  A    between atoms: O_16  and  C_17
REMARK   10  A    between atoms: C_17  and  C_18
REMARK   11  A    between atoms: C_20  and  N_21
REMARK                            x       y       z     vdW  Elec       q    Type
REMARK                         _______ _______ _______ _____ _____    ______ ____
ROOT
ATOM      1  C   UNL     1       1.594   9.382  18.281  0.00  0.00    +0.000 C 
ATOM      2  O   UNL     1       2.154  10.198  17.554  0.00  0.00    +0.000 OA
ENDROOT
BRANCH   1   3
ATOM      3  C   UNL     1       0.532   9.752  19.332  0.00  0.00    +0.000 C 
BRANCH   3   4
ATOM      4  N   UNL     1       0.403  11.205  19.453  0.00  0.00    +0.000 N 
ATOM      5  C   UNL     1      -0.808  11.844  19.291  0.00  0.00    +0.000 C 
ATOM      6  O   UNL     1      -1.845  11.224  19.064  0.00  0.00    +0.000 OA
ATOM      7  H   UNL     1       1.229  11.794  19.493  0.00  0.00    +0.000 HD
BRANCH   5   8
ATOM      8  C   UNL     1      -0.750  13.286  19.424  0.00  0.00    +0.000 A 
ATOM      9  C   UNL     1      -0.039  14.236  18.716  0.00  0.00    +0.000 A 
ATOM     10  C   UNL     1      -0.391  15.498  19.253  0.00  0.00    +0.000 A 
ATOM     11  C   UNL     1      -1.285  15.244  20.266  0.00  0.00    +0.000 A 
ATOM     12  O   UNL     1      -1.514  13.910  20.381  0.00  0.00    +0.000 OA
ENDBRANCH   5   8
ENDBRANCH   3   4
BRANCH   3  13
ATOM     13  C   UNL     1       0.937   9.114  20.668  0.00  0.00    +0.000 C 
BRANCH  13  14
ATOM     14  C   UNL     1      -0.226   8.752  21.593  0.00  0.00    +0.000 C 
BRANCH  14  16
ATOM     15  C   UNL     1      -1.115  11.040  22.820  0.00  0.00    +0.000 C 
ATOM     16  S   UNL     1      -0.117   9.584  23.206  0.00  0.00    +0.000 S 
ENDBRANCH  14  16
ENDBRANCH  13  14
ENDBRANCH   3  13
ENDBRANCH   1   3
BRANCH   1  17
ATOM     17  O   UNL     1       1.890   8.053  18.346  0.00  0.00    +0.000 OA
BRANCH  17  18
ATOM     18  C   UNL     1       3.207   7.652  17.921  0.00  0.00    +0.000 C 
BRANCH  18  19
ATOM     19  C   UNL     1       3.320   6.143  17.803  0.00  0.00    +0.000 A 
ATOM     20  C   UNL     1       2.443   5.285  18.488  0.00  0.00    +0.000 A 
ATOM     21  C   UNL     1       2.599   3.896  18.402  0.00  0.00    +0.000 A 
ATOM     22  C   UNL     1       3.617   3.338  17.621  0.00  0.00    +0.000 A 
ATOM     23  C   UNL     1       4.481   4.178  16.910  0.00  0.00    +0.000 A 
ATOM     24  C   UNL     1       4.336   5.572  17.012  0.00  0.00    +0.000 A 
ATOM     25  O   UNL     1       5.162   6.426  16.330  0.00  0.00    +0.000 OA
ATOM     26  C   UNL     1       6.323   5.790  15.790  0.00  0.00    +0.000 C 
ATOM     27  O   UNL     1       6.046   4.561  15.132  0.00  0.00    +0.000 OA
ATOM     28  C   UNL     1       5.589   3.604  16.077  0.00  0.00    +0.000 C 
BRANCH  21  29
ATOM     29  N   UNL     1       1.696   3.015  19.158  0.00  0.00    +0.000 N 
ATOM     30  O   UNL     1       0.801   3.548  19.830  0.00  0.00    +0.000 OA
ATOM     31  O   UNL     1       1.893   1.796  19.090  0.00  0.00    +0.000 OA
ENDBRANCH  21  29
ENDBRANCH  18  19
ENDBRANCH  17  18
ENDBRANCH   1  17
TORSDOF 10
ENDMDL
MODEL 9
REMARK VINA RESULT:      -7.7      4.661      8.162
REMARK  Name = 
REMARK  11 active torsions:
REMARK  status: ('A' for Active; 'I' for Inactive)
REMARK    1  A    between atoms: C_1  and  S_2
REMARK    2  A    between atoms: S_2  and  C_3
REMARK    3  A    between atoms: C_3  and  C_4
REMARK    4  A    between atoms: C_4  and  C_5
REMARK    5  A    between atoms: C_5  and  N_6
REMARK    6  A    between atoms: C_5  and  C_14
REMARK    7  A    between atoms: C_7  and  C_9
REMARK    8  A    between atoms: C_14  and  O_16
REMARK    9  A    between atoms: O_16  and  C_17
REMARK   10  A    between atoms: C_17  and  C_18
REMARK   11  A    between atoms: C_20  and  N_21
REMARK                            x       y       z     vdW  Elec       q    Type
REMARK                         _______ _______ _______ _____ _____    ______ ____
ROOT
ATOM      1  C   UNL     1       1.188   9.053  19.668  0.00  0.00    +0.000 C 
ATOM      2  O   UNL     1       0.704   8.848  20.777  0.00  0.00    +0.000 OA
ENDROOT
BRANCH   1   3
ATOM      3  C   UNL     1       0.868  10.285  18.803  0.00  0.00    +0.000 C 
BRANCH   3   4
ATOM      4  N   UNL     1       1.199  11.521  19.513  0.00  0.00    +0.000 N 
ATOM      5  C   UNL     1       2.142  12.404  19.033  0.00  0.00    +0.000 C 
ATOM      6  O   UNL     1       2.732  12.214  17.971  0.00  0.00    +0.000 OA
ATOM      7  H   UNL     1       0.865  11.677  20.458  0.00  0.00    +0.000 HD
BRANCH   5   8
ATOM      8  C   UNL     1       2.360  13.566  19.872  0.00  0.00    +0.000 A 
ATOM      9  C   UNL     1       2.945  14.788  19.598  0.00  0.00    +0.000 A 
ATOM     10  C   UNL     1       2.858  15.561  20.781  0.00  0.00    +0.000 A 
ATOM     11  C   UNL     1       2.239  14.761  21.713  0.00  0.00    +0.000 A 
ATOM     12  O   UNL     1       1.931  13.551  21.177  0.00  0.00    +0.000 OA
ENDBRANCH   5   8
ENDBRANCH   3   4
BRANCH   3  13
ATOM     13  C   UNL     1      -0.621  10.235  18.432  0.00  0.00    +0.000 C 
BRANCH  13  14
ATOM     14  C   UNL     1      -1.391  11.537  18.662  0.00  0.00    +0.000 C 
BRANCH  14  16
ATOM     15  C   UNL     1      -3.091   9.746  17.462  0.00  0.00    +0.000 C 
ATOM     16  S   UNL     1      -3.135  11.411  18.163  0.00  0.00    +0.000 S 
ENDBRANCH  14  16
ENDBRANCH  13  14
ENDBRANCH   3  13
ENDBRANCH   1   3
BRANCH   1  17
ATOM     17  O   UNL     1       1.996   8.188  18.991  0.00  0.00    +0.000 OA
BRANCH  17  18
ATOM     18  C   UNL     1       2.366   6.970  19.666  0.00  0.00    +0.000 C 
BRANCH  18  19
ATOM     19  C   UNL     1       2.997   5.973  18.711  0.00  0.00    +0.000 A 
ATOM     20  C   UNL     1       4.013   6.352  17.818  0.00  0.00    +0.000 A 
ATOM     21  C   UNL     1       4.545   5.425  16.912  0.00  0.00    +0.000 A 
ATOM     22  C   UNL     1       4.086   4.103  16.892  0.00  0.00    +0.000 A 
ATOM     23  C   UNL     1       3.094   3.702  17.794  0.00  0.00    +0.000 A 
ATOM     24  C   UNL     1       2.549   4.637  18.689  0.00  0.00    +0.000 A 
ATOM     25  O   UNL     1       1.577   4.282  19.587  0.00  0.00    +0.000 OA
ATOM     26  C   UNL     1       0.984   3.010  19.314  0.00  0.00    +0.000 C 
ATOM     27  O   UNL     1       1.928   1.993  19.009  0.00  0.00    +0.000 OA
ATOM     28  C   UNL     1       2.577   2.294  17.781  0.00  0.00    +0.000 C 
BRANCH  21  29
ATOM     29  N   UNL     1       5.580   5.851  15.959  0.00  0.00    +0.000 N 
ATOM     30  O   UNL     1       5.340   6.843  15.254  0.00  0.00    +0.000 OA
ATOM     31  O   UNL     1       6.621   5.186  15.906  0.00  0.00    +0.000 OA
ENDBRANCH  21  29
ENDBRANCH  18  19
ENDBRANCH  17  18
ENDBRANCH   1  17
TORSDOF 10
ENDMDL
