MODEL 1
REMARK VINA RESULT:      -7.7      0.000      0.000
REMARK  Name = 
REMARK  2 active torsions:
REMARK  status: ('A' for Active; 'I' for Inactive)
REMARK    1  A    between atoms: C_4  and  O_5
REMARK    2  A    between atoms: N_9  and  C_10
REMARK                            x       y       z     vdW  Elec       q    Type
REMARK                         _______ _______ _______ _____ _____    ______ ____
ROOT
ATOM      1  O   UNL     1       5.256   3.654  19.288  0.00  0.00    +0.000 OA
ATOM      2  C   UNL     1       5.297   4.606  18.513  0.00  0.00    +0.000 A 
ATOM      3  C   UNL     1       6.471   4.700  17.618  0.00  0.00    +0.000 A 
ATOM      4  C   UNL     1       6.564   5.728  16.778  0.00  0.00    +0.000 A 
ATOM      5  N   UNL     1       5.633   6.704  16.801  0.00  0.00    +0.000 N 
ATOM      6  C   UNL     1       4.476   6.660  17.525  0.00  0.00    +0.000 A 
ATOM      7  O   UNL     1       3.658   7.576  17.396  0.00  0.00    +0.000 OA
ATOM      8  N   UNL     1       4.287   5.537  18.331  0.00  0.00    +0.000 N 
ATOM      9  H   UNL     1       5.744   7.487  16.170  0.00  0.00    +0.000 HD
ENDROOT
BRANCH   8  10
ATOM     10  C   UNL     1       2.892   5.281  18.799  0.00  0.00    +0.000 C 
ATOM     11  C   UNL     1       2.124   4.426  17.761  0.00  0.00    +0.000 C 
ATOM     12  C   UNL     1       2.070   2.921  18.025  0.00  0.00    +0.000 C 
ATOM     13  C   UNL     1       0.910   2.485  18.911  0.00  0.00    +0.000 C 
ATOM     14  C   UNL     1       1.066   2.880  20.374  0.00  0.00    +0.000 C 
ATOM     15  C   UNL     1       1.301   4.373  20.614  0.00  0.00    +0.000 C 
ATOM     16  C   UNL     1       2.727   4.828  20.263  0.00  0.00    +0.000 C 
ENDBRANCH   8  10
BRANCH   4  17
ATOM     17  O   UNL     1       7.521   5.865  15.819  0.00  0.00    +0.000 OA
ATOM     18  H   UNL     1       8.305   5.356  16.094  0.00  0.00    +0.000 HD
ENDBRANCH   4  17
TORSDOF 2
ENDMDL
MODEL 2
REMARK VINA RESULT:      -7.4      1.960      2.651
REMARK  Name = 
REMARK  2 active torsions:
REMARK  status: ('A' for Active; 'I' for Inactive)
REMARK    1  A    between atoms: C_4  and  O_5
REMARK    2  A    between atoms: N_9  and  C_10
REMARK                            x       y       z     vdW  Elec       q    Type
REMARK                         _______ _______ _______ _____ _____    ______ ____
ROOT
ATOM      1  O   UNL     1       3.836   3.480  16.590  0.00  0.00    +0.000 OA
ATOM      2  C   UNL     1       4.958   3.962  16.713  0.00  0.00    +0.000 A 
ATOM      3  C   UNL     1       5.618   4.463  15.488  0.00  0.00    +0.000 A 
ATOM      4  C   UNL     1       6.844   4.973  15.575  0.00  0.00    +0.000 A 
ATOM      5  N   UNL     1       7.497   4.963  16.755  0.00  0.00    +0.000 N 
ATOM      6  C   UNL     1       6.940   4.605  17.950  0.00  0.00    +0.000 A 
ATOM      7  O   UNL     1       7.612   4.721  18.979  0.00  0.00    +0.000 OA
ATOM      8  N   UNL     1       5.613   4.175  17.916  0.00  0.00    +0.000 N 
ATOM      9  H   UNL     1       8.437   5.333  16.786  0.00  0.00    +0.000 HD
ENDROOT
BRANCH   8  10
ATOM     10  C   UNL     1       4.881   4.170  19.218  0.00  0.00    +0.000 C 
ATOM     11  C   UNL     1       4.153   5.521  19.431  0.00  0.00    +0.000 C 
ATOM     12  C   UNL     1       2.674   5.564  19.047  0.00  0.00    +0.000 C 
ATOM     13  C   UNL     1       1.729   5.134  20.162  0.00  0.00    +0.000 C 
ATOM     14  C   UNL     1       1.755   3.639  20.453  0.00  0.00    +0.000 C 
ATOM     15  C   UNL     1       3.141   3.071  20.771  0.00  0.00    +0.000 C 
ATOM     16  C   UNL     1       4.035   2.920  19.530  0.00  0.00    +0.000 C 
ENDBRANCH   8  10
BRANCH   4  17
ATOM     17  O   UNL     1       7.508   5.581  14.553  0.00  0.00    +0.000 OA
ATOM     18  H   UNL     1       8.465   5.457  14.694  0.00  0.00    +0.000 HD
ENDBRANCH   4  17
TORSDOF 2
ENDMDL
MODEL 3
REMARK VINA RESULT:      -7.1      2.375      5.306
REMARK  Name = 
REMARK  2 active torsions:
REMARK  status: ('A' for Active; 'I' for Inactive)
REMARK    1  A    between atoms: C_4  and  O_5
REMARK    2  A    between atoms: N_9  and  C_10
REMARK                            x       y       z     vdW  Elec       q    Type
REMARK                         _______ _______ _______ _____ _____    ______ ____
ROOT
ATOM      1  O   UNL     1       5.068   3.014  19.452  0.00  0.00    +0.000 OA
ATOM      2  C   UNL     1       3.850   3.158  19.390  0.00  0.00    +0.000 A 
ATOM      3  C   UNL     1       3.064   2.806  20.592  0.00  0.00    +0.000 A 
ATOM      4  C   UNL     1       1.739   2.928  20.559  0.00  0.00    +0.000 A 
ATOM      5  N   UNL     1       1.125   3.299  19.417  0.00  0.00    +0.000 N 
ATOM      6  C   UNL     1       1.767   3.727  18.290  0.00  0.00    +0.000 A 
ATOM      7  O   UNL     1       1.093   4.125  17.335  0.00  0.00    +0.000 OA
ATOM      8  N   UNL     1       3.162   3.725  18.328  0.00  0.00    +0.000 N 
ATOM      9  H   UNL     1       0.115   3.358  19.413  0.00  0.00    +0.000 HD
ENDROOT
BRANCH   8  10
ATOM     10  C   UNL     1       3.857   4.548  17.293  0.00  0.00    +0.000 C 
ATOM     11  C   UNL     1       4.333   5.890  17.903  0.00  0.00    +0.000 C 
ATOM     12  C   UNL     1       5.790   5.948  18.364  0.00  0.00    +0.000 C 
ATOM     13  C   UNL     1       6.773   6.351  17.273  0.00  0.00    +0.000 C 
ATOM     14  C   UNL     1       7.002   5.276  16.219  0.00  0.00    +0.000 C 
ATOM     15  C   UNL     1       5.731   4.765  15.536  0.00  0.00    +0.000 C 
ATOM     16  C   UNL     1       4.902   3.822  16.423  0.00  0.00    +0.000 C 
ENDBRANCH   8  10
BRANCH   4  17
ATOM     17  O   UNL     1       0.915   2.762  21.630  0.00  0.00    +0.000 OA
ATOM     18  H   UNL     1       0.304   2.028  21.434  0.00  0.00    +0.000 HD
ENDBRANCH   4  17
TORSDOF 2
ENDMDL
MODEL 4
REMARK VINA RESULT:      -7.0      2.293      5.490
REMARK  Name = 
REMARK  2 active torsions:
REMARK  status: ('A' for Active; 'I' for Inactive)
REMARK    1  A    between atoms: C_4  and  O_5
REMARK    2  A    between atoms: N_9  and  C_10
REMARK                            x       y       z     vdW  Elec       q    Type
REMARK                         _______ _______ _______ _____ _____    ______ ____
ROOT
ATOM      1  O   UNL     1       3.400   6.261  19.368  0.00  0.00    +0.000 OA
ATOM      2  C   UNL     1       3.233   5.088  19.689  0.00  0.00    +0.000 A 
ATOM      3  C   UNL     1       1.863   4.678  20.067  0.00  0.00    +0.000 A 
ATOM      4  C   UNL     1       1.642   3.420  20.441  0.00  0.00    +0.000 A 
ATOM      5  N   UNL     1       2.673   2.556  20.541  0.00  0.00    +0.000 N 
ATOM      6  C   UNL     1       3.950   2.817  20.132  0.00  0.00    +0.000 A 
ATOM      7  O   UNL     1       4.791   1.914  20.193  0.00  0.00    +0.000 OA
ATOM      8  N   UNL     1       4.194   4.092  19.621  0.00  0.00    +0.000 N 
ATOM      9  H   UNL     1       2.481   1.614  20.854  0.00  0.00    +0.000 HD
ENDROOT
BRANCH   8  10
ATOM     10  C   UNL     1       5.440   4.259  18.815  0.00  0.00    +0.000 C 
ATOM     11  C   UNL     1       5.117   4.179  17.302  0.00  0.00    +0.000 C 
ATOM     12  C   UNL     1       4.936   5.511  16.574  0.00  0.00    +0.000 C 
ATOM     13  C   UNL     1       6.230   6.109  16.038  0.00  0.00    +0.000 C 
ATOM     14  C   UNL     1       7.149   6.663  17.119  0.00  0.00    +0.000 C 
ATOM     15  C   UNL     1       7.517   5.667  18.222  0.00  0.00    +0.000 C 
ATOM     16  C   UNL     1       6.374   5.416  19.219  0.00  0.00    +0.000 C 
ENDBRANCH   8  10
BRANCH   4  17
ATOM     17  O   UNL     1       0.415   2.886  20.689  0.00  0.00    +0.000 OA
ATOM     18  H   UNL     1       0.328   2.751  21.650  0.00  0.00    +0.000 HD
ENDBRANCH   4  17
TORSDOF 2
ENDMDL
MODEL 5
REMARK VINA RESULT:      -7.0      1.250      2.289
REMARK  Name = 
REMARK  2 active torsions:
REMARK  status: ('A' for Active; 'I' for Inactive)
REMARK    1  A    between atoms: C_4  and  O_5
REMARK    2  A    between atoms: N_9  and  C_10
REMARK                            x       y       z     vdW  Elec       q    Type
REMARK                         _______ _______ _______ _____ _____    ______ ____
ROOT
ATOM      1  O   UNL     1       4.212   7.049  16.916  0.00  0.00    +0.000 OA
ATOM      2  C   UNL     1       4.896   6.340  17.650  0.00  0.00    +0.000 A 
ATOM      3  C   UNL     1       6.311   6.727  17.838  0.00  0.00    +0.000 A 
ATOM      4  C   UNL     1       7.092   5.974  18.609  0.00  0.00    +0.000 A 
ATOM      5  N   UNL     1       6.611   4.835  19.147  0.00  0.00    +0.000 N 
ATOM      6  C   UNL     1       5.303   4.444  19.102  0.00  0.00    +0.000 A 
ATOM      7  O   UNL     1       4.966   3.423  19.709  0.00  0.00    +0.000 OA
ATOM      8  N   UNL     1       4.427   5.274  18.400  0.00  0.00    +0.000 N 
ATOM      9  H   UNL     1       7.234   4.269  19.707  0.00  0.00    +0.000 HD
ENDROOT
BRANCH   8  10
ATOM     10  C   UNL     1       2.971   5.089  18.675  0.00  0.00    +0.000 C 
ATOM     11  C   UNL     1       2.343   4.134  17.630  0.00  0.00    +0.000 C 
ATOM     12  C   UNL     1       2.206   2.668  18.044  0.00  0.00    +0.000 C 
ATOM     13  C   UNL     1       0.914   2.348  18.783  0.00  0.00    +0.000 C 
ATOM     14  C   UNL     1       0.861   2.900  20.202  0.00  0.00    +0.000 C 
ATOM     15  C   UNL     1       1.101   4.407  20.314  0.00  0.00    +0.000 C 
ATOM     16  C   UNL     1       2.576   4.802  20.137  0.00  0.00    +0.000 C 
ENDBRANCH   8  10
BRANCH   4  17
ATOM     17  O   UNL     1       8.368   6.287  18.965  0.00  0.00    +0.000 OA
ATOM     18  H   UNL     1       8.892   6.406  18.152  0.00  0.00    +0.000 HD
ENDBRANCH   4  17
TORSDOF 2
ENDMDL
MODEL 6
REMARK VINA RESULT:      -7.0      2.228      3.563
REMARK  Name = 
REMARK  2 active torsions:
REMARK  status: ('A' for Active; 'I' for Inactive)
REMARK    1  A    between atoms: C_4  and  O_5
REMARK    2  A    between atoms: N_9  and  C_10
REMARK                            x       y       z     vdW  Elec       q    Type
REMARK                         _______ _______ _______ _____ _____    ______ ____
ROOT
ATOM      1  O   UNL     1       5.651   6.529  16.173  0.00  0.00    +0.000 OA
ATOM      2  C   UNL     1       6.434   6.659  17.110  0.00  0.00    +0.000 A 
ATOM      3  C   UNL     1       7.224   7.908  17.164  0.00  0.00    +0.000 A 
ATOM      4  C   UNL     1       8.100   8.079  18.151  0.00  0.00    +0.000 A 
ATOM      5  N   UNL     1       8.311   7.090  19.044  0.00  0.00    +0.000 N 
ATOM      6  C   UNL     1       7.571   5.944  19.126  0.00  0.00    +0.000 A 
ATOM      7  O   UNL     1       7.803   5.151  20.044  0.00  0.00    +0.000 OA
ATOM      8  N   UNL     1       6.561   5.784  18.177  0.00  0.00    +0.000 N 
ATOM      9  H   UNL     1       9.002   7.236  19.767  0.00  0.00    +0.000 HD
ENDROOT
BRANCH   8  10
ATOM     10  C   UNL     1       5.510   4.770  18.489  0.00  0.00    +0.000 C 
ATOM     11  C   UNL     1       4.334   5.431  19.250  0.00  0.00    +0.000 C 
ATOM     12  C   UNL     1       3.127   5.847  18.408  0.00  0.00    +0.000 C 
ATOM     13  C   UNL     1       2.092   4.746  18.216  0.00  0.00    +0.000 C 
ATOM     14  C   UNL     1       2.540   3.633  17.278  0.00  0.00    +0.000 C 
ATOM     15  C   UNL     1       3.864   2.966  17.660  0.00  0.00    +0.000 C 
ATOM     16  C   UNL     1       5.094   3.831  17.339  0.00  0.00    +0.000 C 
ENDBRANCH   8  10
BRANCH   4  17
ATOM     17  O   UNL     1       8.792   9.227  18.387  0.00  0.00    +0.000 OA
ATOM     18  H   UNL     1       8.336   9.958  17.932  0.00  0.00    +0.000 HD
ENDBRANCH   4  17
TORSDOF 2
ENDMDL
MODEL 7
REMARK VINA RESULT:      -7.0      1.738      2.590
REMARK  Name = 
REMARK  2 active torsions:
REMARK  status: ('A' for Active; 'I' for Inactive)
REMARK    1  A    between atoms: C_4  and  O_5
REMARK    2  A    between atoms: N_9  and  C_10
REMARK                            x       y       z     vdW  Elec       q    Type
REMARK                         _______ _______ _______ _____ _____    ______ ____
ROOT
ATOM      1  O   UNL     1       5.357   6.651  15.807  0.00  0.00    +0.000 OA
ATOM      2  C   UNL     1       5.825   6.258  16.872  0.00  0.00    +0.000 A 
ATOM      3  C   UNL     1       7.057   6.919  17.355  0.00  0.00    +0.000 A 
ATOM      4  C   UNL     1       7.608   6.509  18.495  0.00  0.00    +0.000 A 
ATOM      5  N   UNL     1       7.085   5.456  19.156  0.00  0.00    +0.000 N 
ATOM      6  C   UNL     1       5.907   4.843  18.837  0.00  0.00    +0.000 A 
ATOM      7  O   UNL     1       5.486   3.944  19.572  0.00  0.00    +0.000 OA
ATOM      8  N   UNL     1       5.237   5.325  17.712  0.00  0.00    +0.000 N 
ATOM      9  H   UNL     1       7.540   5.149  20.005  0.00  0.00    +0.000 HD
ENDROOT
BRANCH   8  10
ATOM     10  C   UNL     1       3.795   4.957  17.587  0.00  0.00    +0.000 C 
ATOM     11  C   UNL     1       3.649   3.584  16.886  0.00  0.00    +0.000 C 
ATOM     12  C   UNL     1       3.475   2.370  17.799  0.00  0.00    +0.000 C 
ATOM     13  C   UNL     1       2.030   2.078  18.180  0.00  0.00    +0.000 C 
ATOM     14  C   UNL     1       1.435   3.079  19.162  0.00  0.00    +0.000 C 
ATOM     15  C   UNL     1       1.515   4.541  18.717  0.00  0.00    +0.000 C 
ATOM     16  C   UNL     1       2.925   5.140  18.846  0.00  0.00    +0.000 C 
ENDBRANCH   8  10
BRANCH   4  17
ATOM     17  O   UNL     1       8.662   7.112  19.111  0.00  0.00    +0.000 OA
ATOM     18  H   UNL     1       8.864   7.937  18.632  0.00  0.00    +0.000 HD
ENDBRANCH   4  17
TORSDOF 2
ENDMDL
MODEL 8
REMARK VINA RESULT:      -6.9      1.206      2.186
REMARK  Name = 
REMARK  2 active torsions:
REMARK  status: ('A' for Active; 'I' for Inactive)
REMARK    1  A    between atoms: C_4  and  O_5
REMARK    2  A    between atoms: N_9  and  C_10
REMARK                            x       y       z     vdW  Elec       q    Type
REMARK                         _______ _______ _______ _____ _____    ______ ____
ROOT
ATOM      1  O   UNL     1       4.113   7.272  17.049  0.00  0.00    +0.000 OA
ATOM      2  C   UNL     1       4.618   6.153  17.029  0.00  0.00    +0.000 A 
ATOM      3  C   UNL     1       5.974   6.032  16.450  0.00  0.00    +0.000 A 
ATOM      4  C   UNL     1       6.549   4.834  16.391  0.00  0.00    +0.000 A 
ATOM      5  N   UNL     1       5.869   3.739  16.788  0.00  0.00    +0.000 N 
ATOM      6  C   UNL     1       4.655   3.761  17.414  0.00  0.00    +0.000 A 
ATOM      7  O   UNL     1       4.171   2.696  17.811  0.00  0.00    +0.000 OA
ATOM      8  N   UNL     1       4.072   5.015  17.602  0.00  0.00    +0.000 N 
ATOM      9  H   UNL     1       6.321   2.838  16.707  0.00  0.00    +0.000 HD
ENDROOT
BRANCH   8  10
ATOM     10  C   UNL     1       2.977   5.095  18.615  0.00  0.00    +0.000 C 
ATOM     11  C   UNL     1       1.648   4.577  18.012  0.00  0.00    +0.000 C 
ATOM     12  C   UNL     1       1.287   3.122  18.314  0.00  0.00    +0.000 C 
ATOM     13  C   UNL     1       0.515   2.928  19.612  0.00  0.00    +0.000 C 
ATOM     14  C   UNL     1       1.356   3.127  20.867  0.00  0.00    +0.000 C 
ATOM     15  C   UNL     1       2.077   4.474  20.950  0.00  0.00    +0.000 C 
ATOM     16  C   UNL     1       3.302   4.565  20.025  0.00  0.00    +0.000 C 
ENDBRANCH   8  10
BRANCH   4  17
ATOM     17  O   UNL     1       7.834   4.606  16.002  0.00  0.00    +0.000 OA
ATOM     18  H   UNL     1       8.342   4.315  16.781  0.00  0.00    +0.000 HD
ENDBRANCH   4  17
TORSDOF 2
ENDMDL
MODEL 9
REMARK VINA RESULT:      -6.9      2.111      5.426
REMARK  Name = 
REMARK  2 active torsions:
REMARK  status: ('A' for Active; 'I' for Inactive)
REMARK    1  A    between atoms: C_4  and  O_5
REMARK    2  A    between atoms: N_9  and  C_10
REMARK                            x       y       z     vdW  Elec       q    Type
REMARK                         _______ _______ _______ _____ _____    ______ ____
ROOT
ATOM      1  O   UNL     1       3.110   5.885  18.024  0.00  0.00    +0.000 OA
ATOM      2  C   UNL     1       2.958   4.723  18.392  0.00  0.00    +0.000 A 
ATOM      3  C   UNL     1       1.610   4.135  18.241  0.00  0.00    +0.000 A 
ATOM      4  C   UNL     1       1.398   2.885  18.647  0.00  0.00    +0.000 A 
ATOM      5  N   UNL     1       2.388   2.197  19.253  0.00  0.00    +0.000 N 
ATOM      6  C   UNL     1       3.682   2.621  19.356  0.00  0.00    +0.000 A 
ATOM      7  O   UNL     1       4.519   1.863  19.855  0.00  0.00    +0.000 OA
ATOM      8  N   UNL     1       3.969   3.883  18.833  0.00  0.00    +0.000 N 
ATOM      9  H   UNL     1       2.191   1.258  19.575  0.00  0.00    +0.000 HD
ENDROOT
BRANCH   8  10
ATOM     10  C   UNL     1       5.408   4.185  18.575  0.00  0.00    +0.000 C 
ATOM     11  C   UNL     1       5.710   4.107  17.057  0.00  0.00    +0.000 C 
ATOM     12  C   UNL     1       5.701   5.431  16.293  0.00  0.00    +0.000 C 
ATOM     13  C   UNL     1       7.037   6.161  16.295  0.00  0.00    +0.000 C 
ATOM     14  C   UNL     1       7.404   6.777  17.640  0.00  0.00    +0.000 C 
ATOM     15  C   UNL     1       7.406   5.797  18.815  0.00  0.00    +0.000 C 
ATOM     16  C   UNL     1       5.995   5.417  19.292  0.00  0.00    +0.000 C 
ENDBRANCH   8  10
BRANCH   4  17
ATOM     17  O   UNL     1       0.247   2.187  18.450  0.00  0.00    +0.000 OA
ATOM     18  H   UNL     1       0.187   1.956  17.505  0.00  0.00    +0.000 HD
ENDBRANCH   4  17
TORSDOF 2
ENDMDL
