MODEL 1
REMARK VINA RESULT:      -6.3      0.000      0.000
REMARK  Name = 
REMARK  7 active torsions:
REMARK  status: ('A' for Active; 'I' for Inactive)
REMARK    1  A    between atoms: C_1  and  C_2
REMARK    2  A    between atoms: C_2  and  C_3
REMARK    3  A    between atoms: C_3  and  C_4
REMARK    4  A    between atoms: C_3  and  C_5
REMARK    5  A    between atoms: C_5  and  N_6
REMARK    6  A    between atoms: C_5  and  C_7
REMARK    7  A    between atoms: C_10  and  C_11
REMARK                            x       y       z     vdW  Elec       q    Type
REMARK                         _______ _______ _______ _____ _____    ______ ____
ROOT
ATOM      1  C   UNL     1       5.421   4.621  19.218  0.00  0.00    +0.000 C 
ATOM      2  O   UNL     1       5.611   3.447  19.500  0.00  0.00    +0.000 OA
ATOM      3  N   UNL     1       4.116   5.168  19.036  0.00  0.00    +0.000 N 
ATOM      4  C   UNL     1       2.744   4.422  19.013  0.00  0.00    +0.000 C 
ATOM      5  C   UNL     1       1.920   5.259  18.022  0.00  0.00    +0.000 C 
ATOM      6  C   UNL     1       2.465   6.663  18.163  0.00  0.00    +0.000 C 
ATOM      7  C   UNL     1       3.672   7.118  17.383  0.00  0.00    +0.000 C 
ATOM      8  C   UNL     1       3.851   6.558  18.758  0.00  0.00    +0.000 C 
ENDROOT
BRANCH   4   9
ATOM      9  C   UNL     1       2.886   2.963  18.615  0.00  0.00    +0.000 C 
ATOM     10  N   UNL     1       3.004   1.751  18.285  0.00  0.00    +0.000 NA
ENDBRANCH   4   9
BRANCH   1  11
ATOM     11  C   UNL     1       6.623   5.669  19.144  0.00  0.00    +0.000 C 
BRANCH  11  12
ATOM     12  N   UNL     1       7.596   5.323  20.218  0.00  0.00    +0.000 NA
ATOM     13  H   UNL     1       8.324   6.034  20.261  0.00  0.00    +0.000 HD
ATOM     14  H   UNL     1       8.066   4.453  19.982  0.00  0.00    +0.000 HD
ENDBRANCH  11  12
BRANCH  11  15
ATOM     15  C   UNL     1       7.406   5.937  17.811  0.00  0.00    +0.000 C 
ATOM     16  C   UNL     1       7.201   4.972  16.625  0.00  0.00    +0.000 C 
BRANCH  15  18
ATOM     17  C   UNL     1       8.164   8.432  17.999  0.00  0.00    +0.000 C 
ATOM     18  C   UNL     1       7.393   7.372  17.240  0.00  0.00    +0.000 C 
ENDBRANCH  15  18
ENDBRANCH  11  15
ENDBRANCH   1  11
TORSDOF 5
ENDMDL
MODEL 2
REMARK VINA RESULT:      -6.1      1.527      4.833
REMARK  Name = 
REMARK  7 active torsions:
REMARK  status: ('A' for Active; 'I' for Inactive)
REMARK    1  A    between atoms: C_1  and  C_2
REMARK    2  A    between atoms: C_2  and  C_3
REMARK    3  A    between atoms: C_3  and  C_4
REMARK    4  A    between atoms: C_3  and  C_5
REMARK    5  A    between atoms: C_5  and  N_6
REMARK    6  A    between atoms: C_5  and  C_7
REMARK    7  A    between atoms: C_10  and  C_11
REMARK                            x       y       z     vdW  Elec       q    Type
REMARK                         _______ _______ _______ _____ _____    ______ ____
ROOT
ATOM      1  C   UNL     1       4.455   3.490  19.020  0.00  0.00    +0.000 C 
ATOM      2  O   UNL     1       5.307   2.954  19.715  0.00  0.00    +0.000 OA
ATOM      3  N   UNL     1       4.747   4.582  18.149  0.00  0.00    +0.000 N 
ATOM      4  C   UNL     1       6.082   5.377  18.001  0.00  0.00    +0.000 C 
ATOM      5  C   UNL     1       5.597   6.791  17.644  0.00  0.00    +0.000 C 
ATOM      6  C   UNL     1       4.300   6.571  16.898  0.00  0.00    +0.000 C 
ATOM      7  C   UNL     1       2.991   6.420  17.630  0.00  0.00    +0.000 C 
ATOM      8  C   UNL     1       3.782   5.202  17.275  0.00  0.00    +0.000 C 
ENDROOT
BRANCH   4   9
ATOM      9  C   UNL     1       6.932   5.320  19.260  0.00  0.00    +0.000 C 
ATOM     10  N   UNL     1       7.637   5.274  20.305  0.00  0.00    +0.000 NA
ENDBRANCH   4   9
BRANCH   1  11
ATOM     11  C   UNL     1       2.963   2.930  18.945  0.00  0.00    +0.000 C 
BRANCH  11  12
ATOM     12  N   UNL     1       3.029   1.513  18.489  0.00  0.00    +0.000 NA
ATOM     13  H   UNL     1       2.982   0.892  19.294  0.00  0.00    +0.000 HD
ATOM     14  H   UNL     1       3.931   1.340  18.052  0.00  0.00    +0.000 HD
ENDBRANCH  11  12
BRANCH  11  15
ATOM     15  C   UNL     1       1.980   3.029  20.164  0.00  0.00    +0.000 C 
ATOM     16  C   UNL     1       2.521   2.727  21.578  0.00  0.00    +0.000 C 
BRANCH  15  18
ATOM     17  C   UNL     1       1.734   5.555  20.791  0.00  0.00    +0.000 C 
ATOM     18  C   UNL     1       1.088   4.286  20.276  0.00  0.00    +0.000 C 
ENDBRANCH  15  18
ENDBRANCH  11  15
ENDBRANCH   1  11
TORSDOF 5
ENDMDL
MODEL 3
REMARK VINA RESULT:      -6.0      1.590      4.910
REMARK  Name = 
REMARK  7 active torsions:
REMARK  status: ('A' for Active; 'I' for Inactive)
REMARK    1  A    between atoms: C_1  and  C_2
REMARK    2  A    between atoms: C_2  and  C_3
REMARK    3  A    between atoms: C_3  and  C_4
REMARK    4  A    between atoms: C_3  and  C_5
REMARK    5  A    between atoms: C_5  and  N_6
REMARK    6  A    between atoms: C_5  and  C_7
REMARK    7  A    between atoms: C_10  and  C_11
REMARK                            x       y       z     vdW  Elec       q    Type
REMARK                         _______ _______ _______ _____ _____    ______ ____
ROOT
ATOM      1  C   UNL     1       4.857   3.556  18.215  0.00  0.00    +0.000 C 
ATOM      2  O   UNL     1       5.130   3.389  19.395  0.00  0.00    +0.000 OA
ATOM      3  N   UNL     1       5.800   4.059  17.269  0.00  0.00    +0.000 N 
ATOM      4  C   UNL     1       7.239   4.606  17.529  0.00  0.00    +0.000 C 
ATOM      5  C   UNL     1       7.393   5.682  16.443  0.00  0.00    +0.000 C 
ATOM      6  C   UNL     1       6.538   5.191  15.296  0.00  0.00    +0.000 C 
ATOM      7  C   UNL     1       5.062   5.490  15.234  0.00  0.00    +0.000 C 
ATOM      8  C   UNL     1       5.532   4.215  15.861  0.00  0.00    +0.000 C 
ENDROOT
BRANCH   4   9
ATOM      9  C   UNL     1       7.410   5.134  18.944  0.00  0.00    +0.000 C 
ATOM     10  N   UNL     1       7.552   5.572  20.119  0.00  0.00    +0.000 NA
ENDBRANCH   4   9
BRANCH   1  11
ATOM     11  C   UNL     1       3.448   3.111  17.611  0.00  0.00    +0.000 C 
BRANCH  11  12
ATOM     12  N   UNL     1       3.200   1.701  18.023  0.00  0.00    +0.000 NA
ATOM     13  H   UNL     1       3.335   1.083  17.225  0.00  0.00    +0.000 HD
ATOM     14  H   UNL     1       2.226   1.595  18.299  0.00  0.00    +0.000 HD
ENDBRANCH  11  12
BRANCH  11  15
ATOM     15  C   UNL     1       2.144   3.951  17.849  0.00  0.00    +0.000 C 
ATOM     16  C   UNL     1       1.118   3.447  18.887  0.00  0.00    +0.000 C 
BRANCH  15  18
ATOM     17  C   UNL     1       2.410   5.976  19.480  0.00  0.00    +0.000 C 
ATOM     18  C   UNL     1       2.291   5.475  18.056  0.00  0.00    +0.000 C 
ENDBRANCH  15  18
ENDBRANCH  11  15
ENDBRANCH   1  11
TORSDOF 5
ENDMDL
MODEL 4
REMARK VINA RESULT:      -6.0      2.328      2.893
REMARK  Name = 
REMARK  7 active torsions:
REMARK  status: ('A' for Active; 'I' for Inactive)
REMARK    1  A    between atoms: C_1  and  C_2
REMARK    2  A    between atoms: C_2  and  C_3
REMARK    3  A    between atoms: C_3  and  C_4
REMARK    4  A    between atoms: C_3  and  C_5
REMARK    5  A    between atoms: C_5  and  N_6
REMARK    6  A    between atoms: C_5  and  C_7
REMARK    7  A    between atoms: C_10  and  C_11
REMARK                            x       y       z     vdW  Elec       q    Type
REMARK                         _______ _______ _______ _____ _____    ______ ____
ROOT
ATOM      1  C   UNL     1       3.797   3.648  18.237  0.00  0.00    +0.000 C 
ATOM      2  O   UNL     1       3.597   2.529  17.787  0.00  0.00    +0.000 OA
ATOM      3  N   UNL     1       3.036   4.192  19.314  0.00  0.00    +0.000 N 
ATOM      4  C   UNL     1       1.778   3.591  20.016  0.00  0.00    +0.000 C 
ATOM      5  C   UNL     1       0.978   4.843  20.409  0.00  0.00    +0.000 C 
ATOM      6  C   UNL     1       2.027   5.908  20.641  0.00  0.00    +0.000 C 
ATOM      7  C   UNL     1       2.567   6.738  19.505  0.00  0.00    +0.000 C 
ATOM      8  C   UNL     1       3.279   5.485  19.906  0.00  0.00    +0.000 C 
ENDROOT
BRANCH   4   9
ATOM      9  C   UNL     1       1.015   2.634  19.115  0.00  0.00    +0.000 C 
ATOM     10  N   UNL     1       0.380   1.840  18.368  0.00  0.00    +0.000 NA
ENDBRANCH   4   9
BRANCH   1  11
ATOM     11  C   UNL     1       5.010   4.551  17.727  0.00  0.00    +0.000 C 
BRANCH  11  12
ATOM     12  N   UNL     1       6.274   3.946  18.235  0.00  0.00    +0.000 NA
ATOM     13  H   UNL     1       6.134   2.952  18.403  0.00  0.00    +0.000 HD
ATOM     14  H   UNL     1       6.505   4.354  19.137  0.00  0.00    +0.000 HD
ENDBRANCH  11  12
BRANCH  11  15
ATOM     15  C   UNL     1       5.191   4.914  16.211  0.00  0.00    +0.000 C 
ATOM     16  C   UNL     1       5.175   6.402  15.799  0.00  0.00    +0.000 C 
BRANCH  15  18
ATOM     17  C   UNL     1       6.114   3.928  13.972  0.00  0.00    +0.000 C 
ATOM     18  C   UNL     1       6.346   4.239  15.437  0.00  0.00    +0.000 C 
ENDBRANCH  15  18
ENDBRANCH  11  15
ENDBRANCH   1  11
TORSDOF 5
ENDMDL
MODEL 5
REMARK VINA RESULT:      -6.0      1.760      5.259
REMARK  Name = 
REMARK  7 active torsions:
REMARK  status: ('A' for Active; 'I' for Inactive)
REMARK    1  A    between atoms: C_1  and  C_2
REMARK    2  A    between atoms: C_2  and  C_3
REMARK    3  A    between atoms: C_3  and  C_4
REMARK    4  A    between atoms: C_3  and  C_5
REMARK    5  A    between atoms: C_5  and  N_6
REMARK    6  A    between atoms: C_5  and  C_7
REMARK    7  A    between atoms: C_10  and  C_11
REMARK                            x       y       z     vdW  Elec       q    Type
REMARK                         _______ _______ _______ _____ _____    ______ ____
ROOT
ATOM      1  C   UNL     1       4.967   3.504  18.536  0.00  0.00    +0.000 C 
ATOM      2  O   UNL     1       5.353   3.282  19.675  0.00  0.00    +0.000 OA
ATOM      3  N   UNL     1       5.801   4.100  17.543  0.00  0.00    +0.000 N 
ATOM      4  C   UNL     1       7.236   4.693  17.707  0.00  0.00    +0.000 C 
ATOM      5  C   UNL     1       7.250   5.835  16.679  0.00  0.00    +0.000 C 
ATOM      6  C   UNL     1       6.313   5.375  15.585  0.00  0.00    +0.000 C 
ATOM      7  C   UNL     1       4.828   5.613  15.673  0.00  0.00    +0.000 C 
ATOM      8  C   UNL     1       5.400   4.326  16.177  0.00  0.00    +0.000 C 
ENDROOT
BRANCH   4   9
ATOM      9  C   UNL     1       7.515   5.145  19.131  0.00  0.00    +0.000 C 
ATOM     10  N   UNL     1       7.748   5.520  20.313  0.00  0.00    +0.000 NA
ENDBRANCH   4   9
BRANCH   1  11
ATOM     11  C   UNL     1       3.527   3.035  18.034  0.00  0.00    +0.000 C 
BRANCH  11  12
ATOM     12  N   UNL     1       3.438   1.559  18.218  0.00  0.00    +0.000 NA
ATOM     13  H   UNL     1       2.460   1.273  18.223  0.00  0.00    +0.000 HD
ATOM     14  H   UNL     1       3.809   1.308  19.131  0.00  0.00    +0.000 HD
ENDBRANCH  11  12
BRANCH  11  15
ATOM     15  C   UNL     1       2.208   3.697  18.567  0.00  0.00    +0.000 C 
ATOM     16  C   UNL     1       1.367   4.555  17.598  0.00  0.00    +0.000 C 
BRANCH  15  18
ATOM     17  C   UNL     1       1.233   2.944  20.873  0.00  0.00    +0.000 C 
ATOM     18  C   UNL     1       1.224   2.811  19.364  0.00  0.00    +0.000 C 
ENDBRANCH  15  18
ENDBRANCH  11  15
ENDBRANCH   1  11
TORSDOF 5
ENDMDL
MODEL 6
REMARK VINA RESULT:      -5.9      1.445      4.962
REMARK  Name = 
REMARK  7 active torsions:
REMARK  status: ('A' for Active; 'I' for Inactive)
REMARK    1  A    between atoms: C_1  and  C_2
REMARK    2  A    between atoms: C_2  and  C_3
REMARK    3  A    between atoms: C_3  and  C_4
REMARK    4  A    between atoms: C_3  and  C_5
REMARK    5  A    between atoms: C_5  and  N_6
REMARK    6  A    between atoms: C_5  and  C_7
REMARK    7  A    between atoms: C_10  and  C_11
REMARK                            x       y       z     vdW  Elec       q    Type
REMARK                         _______ _______ _______ _____ _____    ______ ____
ROOT
ATOM      1  C   UNL     1       4.802   3.862  18.627  0.00  0.00    +0.000 C 
ATOM      2  O   UNL     1       5.419   3.274  19.504  0.00  0.00    +0.000 OA
ATOM      3  N   UNL     1       5.401   4.857  17.799  0.00  0.00    +0.000 N 
ATOM      4  C   UNL     1       6.828   5.480  17.905  0.00  0.00    +0.000 C 
ATOM      5  C   UNL     1       6.610   6.916  17.403  0.00  0.00    +0.000 C 
ATOM      6  C   UNL     1       5.474   6.804  16.411  0.00  0.00    +0.000 C 
ATOM      7  C   UNL     1       4.035   6.852  16.857  0.00  0.00    +0.000 C 
ATOM      8  C   UNL     1       4.721   5.530  16.720  0.00  0.00    +0.000 C 
ENDROOT
BRANCH   4   9
ATOM      9  C   UNL     1       7.390   5.402  19.315  0.00  0.00    +0.000 C 
ATOM     10  N   UNL     1       7.856   5.338  20.486  0.00  0.00    +0.000 NA
ENDBRANCH   4   9
BRANCH   1  11
ATOM     11  C   UNL     1       3.297   3.477  18.262  0.00  0.00    +0.000 C 
BRANCH  11  12
ATOM     12  N   UNL     1       3.251   2.011  18.003  0.00  0.00    +0.000 NA
ATOM     13  H   UNL     1       3.085   1.514  18.877  0.00  0.00    +0.000 HD
ATOM     14  H   UNL     1       4.159   1.697  17.669  0.00  0.00    +0.000 HD
ENDBRANCH  11  12
BRANCH  11  15
ATOM     15  C   UNL     1       2.093   3.870  19.189  0.00  0.00    +0.000 C 
ATOM     16  C   UNL     1       0.883   2.916  19.277  0.00  0.00    +0.000 C 
BRANCH  15  18
ATOM     17  C   UNL     1       2.144   3.359  21.753  0.00  0.00    +0.000 C 
ATOM     18  C   UNL     1       2.410   4.338  20.628  0.00  0.00    +0.000 C 
ENDBRANCH  15  18
ENDBRANCH  11  15
ENDBRANCH   1  11
TORSDOF 5
ENDMDL
MODEL 7
REMARK VINA RESULT:      -5.9      1.558      5.114
REMARK  Name = 
REMARK  7 active torsions:
REMARK  status: ('A' for Active; 'I' for Inactive)
REMARK    1  A    between atoms: C_1  and  C_2
REMARK    2  A    between atoms: C_2  and  C_3
REMARK    3  A    between atoms: C_3  and  C_4
REMARK    4  A    between atoms: C_3  and  C_5
REMARK    5  A    between atoms: C_5  and  N_6
REMARK    6  A    between atoms: C_5  and  C_7
REMARK    7  A    between atoms: C_10  and  C_11
REMARK                            x       y       z     vdW  Elec       q    Type
REMARK                         _______ _______ _______ _____ _____    ______ ____
ROOT
ATOM      1  C   UNL     1       4.736   4.142  18.943  0.00  0.00    +0.000 C 
ATOM      2  O   UNL     1       5.500   3.479  19.630  0.00  0.00    +0.000 OA
ATOM      3  N   UNL     1       5.192   5.065  17.955  0.00  0.00    +0.000 N 
ATOM      4  C   UNL     1       6.655   5.514  17.646  0.00  0.00    +0.000 C 
ATOM      5  C   UNL     1       6.474   6.969  17.187  0.00  0.00    +0.000 C 
ATOM      6  C   UNL     1       5.102   6.999  16.551  0.00  0.00    +0.000 C 
ATOM      7  C   UNL     1       3.859   7.214  17.376  0.00  0.00    +0.000 C 
ATOM      8  C   UNL     1       4.322   5.821  17.089  0.00  0.00    +0.000 C 
ENDROOT
BRANCH   4   9
ATOM      9  C   UNL     1       7.573   5.360  18.847  0.00  0.00    +0.000 C 
ATOM     10  N   UNL     1       8.336   5.232  19.844  0.00  0.00    +0.000 NA
ENDBRANCH   4   9
BRANCH   1  11
ATOM     11  C   UNL     1       3.155   3.941  19.019  0.00  0.00    +0.000 C 
BRANCH  11  12
ATOM     12  N   UNL     1       2.859   2.520  18.680  0.00  0.00    +0.000 NA
ATOM     13  H   UNL     1       2.239   2.483  17.873  0.00  0.00    +0.000 HD
ATOM     14  H   UNL     1       2.349   2.089  19.446  0.00  0.00    +0.000 HD
ENDBRANCH  11  12
BRANCH  11  15
ATOM     15  C   UNL     1       2.329   4.346  20.290  0.00  0.00    +0.000 C 
ATOM     16  C   UNL     1       1.840   5.804  20.422  0.00  0.00    +0.000 C 
BRANCH  15  18
ATOM     17  C   UNL     1       1.396   2.483  21.869  0.00  0.00    +0.000 C 
ATOM     18  C   UNL     1       1.157   3.432  20.713  0.00  0.00    +0.000 C 
ENDBRANCH  15  18
ENDBRANCH  11  15
ENDBRANCH   1  11
TORSDOF 5
ENDMDL
MODEL 8
REMARK VINA RESULT:      -5.9      2.072      2.602
REMARK  Name = 
REMARK  7 active torsions:
REMARK  status: ('A' for Active; 'I' for Inactive)
REMARK    1  A    between atoms: C_1  and  C_2
REMARK    2  A    between atoms: C_2  and  C_3
REMARK    3  A    between atoms: C_3  and  C_4
REMARK    4  A    between atoms: C_3  and  C_5
REMARK    5  A    between atoms: C_5  and  N_6
REMARK    6  A    between atoms: C_5  and  C_7
REMARK    7  A    between atoms: C_10  and  C_11
REMARK                            x       y       z     vdW  Elec       q    Type
REMARK                         _______ _______ _______ _____ _____    ______ ____
ROOT
ATOM      1  C   UNL     1       4.712   4.196  19.108  0.00  0.00    +0.000 C 
ATOM      2  O   UNL     1       4.853   3.051  19.514  0.00  0.00    +0.000 OA
ATOM      3  N   UNL     1       3.765   5.102  19.673  0.00  0.00    +0.000 N 
ATOM      4  C   UNL     1       2.676   4.820  20.755  0.00  0.00    +0.000 C 
ATOM      5  C   UNL     1       1.543   5.777  20.354  0.00  0.00    +0.000 C 
ATOM      6  C   UNL     1       2.247   6.950  19.707  0.00  0.00    +0.000 C 
ATOM      7  C   UNL     1       2.611   6.936  18.245  0.00  0.00    +0.000 C 
ATOM      8  C   UNL     1       3.610   6.474  19.259  0.00  0.00    +0.000 C 
ENDROOT
BRANCH   4   9
ATOM      9  C   UNL     1       2.261   3.359  20.791  0.00  0.00    +0.000 C 
ATOM     10  N   UNL     1       1.915   2.146  20.821  0.00  0.00    +0.000 NA
ENDBRANCH   4   9
BRANCH   1  11
ATOM     11  C   UNL     1       5.664   4.808  17.983  0.00  0.00    +0.000 C 
BRANCH  11  12
ATOM     12  N   UNL     1       7.014   4.200  18.147  0.00  0.00    +0.000 NA
ATOM     13  H   UNL     1       7.601   4.815  18.706  0.00  0.00    +0.000 HD
ATOM     14  H   UNL     1       7.466   4.129  17.238  0.00  0.00    +0.000 HD
ENDBRANCH  11  12
BRANCH  11  15
ATOM     15  C   UNL     1       5.272   4.782  16.464  0.00  0.00    +0.000 C 
ATOM     16  C   UNL     1       5.233   6.115  15.686  0.00  0.00    +0.000 C 
BRANCH  15  18
ATOM     17  C   UNL     1       6.064   4.066  14.077  0.00  0.00    +0.000 C 
ATOM     18  C   UNL     1       5.967   3.744  15.555  0.00  0.00    +0.000 C 
ENDBRANCH  15  18
ENDBRANCH  11  15
ENDBRANCH   1  11
TORSDOF 5
ENDMDL
MODEL 9
REMARK VINA RESULT:      -5.8      2.093      2.995
REMARK  Name = 
REMARK  7 active torsions:
REMARK  status: ('A' for Active; 'I' for Inactive)
REMARK    1  A    between atoms: C_1  and  C_2
REMARK    2  A    between atoms: C_2  and  C_3
REMARK    3  A    between atoms: C_3  and  C_4
REMARK    4  A    between atoms: C_3  and  C_5
REMARK    5  A    between atoms: C_5  and  N_6
REMARK    6  A    between atoms: C_5  and  C_7
REMARK    7  A    between atoms: C_10  and  C_11
REMARK                            x       y       z     vdW  Elec       q    Type
REMARK                         _______ _______ _______ _____ _____    ______ ____
ROOT
ATOM      1  C   UNL     1       5.074   4.647  18.873  0.00  0.00    +0.000 C 
ATOM      2  O   UNL     1       6.081   4.218  19.417  0.00  0.00    +0.000 OA
ATOM      3  N   UNL     1       3.759   4.284  19.292  0.00  0.00    +0.000 N 
ATOM      4  C   UNL     1       3.335   3.229  20.361  0.00  0.00    +0.000 C 
ATOM      5  C   UNL     1       2.002   2.702  19.809  0.00  0.00    +0.000 C 
ATOM      6  C   UNL     1       1.415   3.873  19.051  0.00  0.00    +0.000 C 
ATOM      7  C   UNL     1       1.783   4.141  17.615  0.00  0.00    +0.000 C 
ATOM      8  C   UNL     1       2.549   4.812  18.711  0.00  0.00    +0.000 C 
ENDROOT
BRANCH   4   9
ATOM      9  C   UNL     1       4.387   2.149  20.557  0.00  0.00    +0.000 C 
ATOM     10  N   UNL     1       5.260   1.253  20.720  0.00  0.00    +0.000 NA
ENDBRANCH   4   9
BRANCH   1  11
ATOM     11  C   UNL     1       5.150   5.744  17.717  0.00  0.00    +0.000 C 
BRANCH  11  12
ATOM     12  N   UNL     1       6.409   6.518  17.905  0.00  0.00    +0.000 NA
ATOM     13  H   UNL     1       6.801   6.316  18.822  0.00  0.00    +0.000 HD
ATOM     14  H   UNL     1       6.198   7.513  17.902  0.00  0.00    +0.000 HD
ENDBRANCH  11  12
BRANCH  11  15
ATOM     15  C   UNL     1       5.007   5.361  16.202  0.00  0.00    +0.000 C 
ATOM     16  C   UNL     1       5.268   6.446  15.136  0.00  0.00    +0.000 C 
BRANCH  15  18
ATOM     17  C   UNL     1       6.093   3.998  14.253  0.00  0.00    +0.000 C 
ATOM     18  C   UNL     1       5.696   4.067  15.713  0.00  0.00    +0.000 C 
ENDBRANCH  15  18
ENDBRANCH  11  15
ENDBRANCH   1  11
TORSDOF 5
ENDMDL
