MODEL 1
REMARK VINA RESULT:      -6.8      0.000      0.000
REMARK  Name = 
REMARK  7 active torsions:
REMARK  status: ('A' for Active; 'I' for Inactive)
REMARK    1  A    between atoms: C_1  and  N_2
REMARK    2  A    between atoms: N_2  and  C_3
REMARK    3  A    between atoms: N_2  and  S_14
REMARK    4  A    between atoms: C_3  and  C_4
REMARK    5  A    between atoms: N_6  and  C_7
REMARK    6  A    between atoms: C_7  and  C_8
REMARK    7  A    between atoms: S_14  and  C_15
REMARK                            x       y       z     vdW  Elec       q    Type
REMARK                         _______ _______ _______ _____ _____    ______ ____
ROOT
ATOM      1  C   UNL     1       6.210   5.050  18.834  0.00  0.00    +0.000 C 
ATOM      2  O   UNL     1       6.535   5.101  20.020  0.00  0.00    +0.000 OA
ATOM      3  N   UNL     1       4.924   5.277  18.412  0.00  0.00    +0.000 N 
ATOM      4  H   UNL     1       4.734   5.470  17.436  0.00  0.00    +0.000 HD
ENDROOT
BRANCH   1   5
ATOM      5  C   UNL     1       7.211   4.660  17.758  0.00  0.00    +0.000 C 
BRANCH   5   7
ATOM      6  C   UNL     1       7.537   7.039  17.173  0.00  0.00    +0.000 C 
ATOM      7  N   UNL     1       7.469   5.649  16.680  0.00  0.00    +0.000 NA
BRANCH   7   8
ATOM      8  S   UNL     1       6.669   5.394  15.216  0.00  0.00    +0.000 S 
ATOM      9  C   UNL     1       6.128   3.705  15.366  0.00  0.00    +0.000 C 
ATOM     10  O   UNL     1       5.489   6.232  15.205  0.00  0.00    +0.000 OA
ATOM     11  O   UNL     1       7.649   5.496  14.161  0.00  0.00    +0.000 OA
ENDBRANCH   7   8
ENDBRANCH   5   7
ENDBRANCH   1   5
BRANCH   3  12
ATOM     12  C   UNL     1       3.859   5.609  19.336  0.00  0.00    +0.000 C 
BRANCH  12  13
ATOM     13  C   UNL     1       2.753   4.581  19.358  0.00  0.00    +0.000 A 
ATOM     14  C   UNL     1       1.873   4.511  20.437  0.00  0.00    +0.000 A 
ATOM     15  C   UNL     1       0.887   3.528  20.440  0.00  0.00    +0.000 A 
ATOM     16  C   UNL     1       0.792   2.657  19.363  0.00  0.00    +0.000 A 
ATOM     17  C   UNL     1       1.689   2.807  18.319  0.00  0.00    +0.000 A 
ATOM     18  N   UNL     1       2.663   3.742  18.294  0.00  0.00    +0.000 NA
ENDBRANCH  12  13
ENDBRANCH   3  12
TORSDOF 5
ENDMDL
MODEL 2
REMARK VINA RESULT:      -6.7      0.732      1.147
REMARK  Name = 
REMARK  7 active torsions:
REMARK  status: ('A' for Active; 'I' for Inactive)
REMARK    1  A    between atoms: C_1  and  N_2
REMARK    2  A    between atoms: N_2  and  C_3
REMARK    3  A    between atoms: N_2  and  S_14
REMARK    4  A    between atoms: C_3  and  C_4
REMARK    5  A    between atoms: N_6  and  C_7
REMARK    6  A    between atoms: C_7  and  C_8
REMARK    7  A    between atoms: S_14  and  C_15
REMARK                            x       y       z     vdW  Elec       q    Type
REMARK                         _______ _______ _______ _____ _____    ______ ____
ROOT
ATOM      1  C   UNL     1       6.268   5.122  18.867  0.00  0.00    +0.000 C 
ATOM      2  O   UNL     1       6.635   5.210  20.039  0.00  0.00    +0.000 OA
ATOM      3  N   UNL     1       4.969   5.341  18.483  0.00  0.00    +0.000 N 
ATOM      4  H   UNL     1       4.745   5.504  17.508  0.00  0.00    +0.000 HD
ENDROOT
BRANCH   1   5
ATOM      5  C   UNL     1       7.231   4.697  17.769  0.00  0.00    +0.000 C 
BRANCH   5   7
ATOM      6  C   UNL     1       7.562   7.063  17.140  0.00  0.00    +0.000 C 
ATOM      7  N   UNL     1       7.482   5.665  16.672  0.00  0.00    +0.000 NA
BRANCH   7   8
ATOM      8  S   UNL     1       6.663   5.389  15.221  0.00  0.00    +0.000 S 
ATOM      9  C   UNL     1       6.139   3.697  15.395  0.00  0.00    +0.000 C 
ATOM     10  O   UNL     1       5.476   6.217  15.219  0.00  0.00    +0.000 OA
ATOM     11  O   UNL     1       7.628   5.489  14.152  0.00  0.00    +0.000 OA
ENDBRANCH   7   8
ENDBRANCH   5   7
ENDBRANCH   1   5
BRANCH   3  12
ATOM     12  C   UNL     1       3.938   5.705  19.433  0.00  0.00    +0.000 C 
BRANCH  12  13
ATOM     13  C   UNL     1       2.822   4.690  19.513  0.00  0.00    +0.000 A 
ATOM     14  C   UNL     1       2.282   4.139  18.352  0.00  0.00    +0.000 A 
ATOM     15  C   UNL     1       1.230   3.233  18.463  0.00  0.00    +0.000 A 
ATOM     16  C   UNL     1       0.760   2.886  19.723  0.00  0.00    +0.000 A 
ATOM     17  C   UNL     1       1.367   3.460  20.828  0.00  0.00    +0.000 A 
ATOM     18  N   UNL     1       2.379   4.351  20.752  0.00  0.00    +0.000 NA
ENDBRANCH  12  13
ENDBRANCH   3  12
TORSDOF 5
ENDMDL
MODEL 3
REMARK VINA RESULT:      -6.3      3.045      6.412
REMARK  Name = 
REMARK  7 active torsions:
REMARK  status: ('A' for Active; 'I' for Inactive)
REMARK    1  A    between atoms: C_1  and  N_2
REMARK    2  A    between atoms: N_2  and  C_3
REMARK    3  A    between atoms: N_2  and  S_14
REMARK    4  A    between atoms: C_3  and  C_4
REMARK    5  A    between atoms: N_6  and  C_7
REMARK    6  A    between atoms: C_7  and  C_8
REMARK    7  A    between atoms: S_14  and  C_15
REMARK                            x       y       z     vdW  Elec       q    Type
REMARK                         _______ _______ _______ _____ _____    ______ ____
ROOT
ATOM      1  C   UNL     1       3.271   2.825  17.516  0.00  0.00    +0.000 C 
ATOM      2  O   UNL     1       2.466   3.331  16.734  0.00  0.00    +0.000 OA
ATOM      3  N   UNL     1       4.595   3.183  17.543  0.00  0.00    +0.000 N 
ATOM      4  H   UNL     1       5.173   2.941  18.340  0.00  0.00    +0.000 HD
ENDROOT
BRANCH   1   5
ATOM      5  C   UNL     1       2.855   1.712  18.464  0.00  0.00    +0.000 C 
BRANCH   5   7
ATOM      6  C   UNL     1       0.580   2.484  19.040  0.00  0.00    +0.000 C 
ATOM      7  N   UNL     1       1.901   2.061  19.546  0.00  0.00    +0.000 NA
BRANCH   7   8
ATOM      8  S   UNL     1       2.528   2.921  20.857  0.00  0.00    +0.000 S 
ATOM      9  C   UNL     1       1.897   4.561  20.574  0.00  0.00    +0.000 C 
ATOM     10  O   UNL     1       1.905   2.413  22.059  0.00  0.00    +0.000 OA
ATOM     11  O   UNL     1       3.966   2.927  20.724  0.00  0.00    +0.000 OA
ENDBRANCH   7   8
ENDBRANCH   5   7
ENDBRANCH   1   5
BRANCH   3  12
ATOM     12  C   UNL     1       5.137   4.195  16.660  0.00  0.00    +0.000 C 
BRANCH  12  13
ATOM     13  C   UNL     1       6.129   5.106  17.343  0.00  0.00    +0.000 A 
ATOM     14  C   UNL     1       6.421   6.361  16.810  0.00  0.00    +0.000 A 
ATOM     15  C   UNL     1       7.366   7.160  17.447  0.00  0.00    +0.000 A 
ATOM     16  C   UNL     1       7.980   6.698  18.604  0.00  0.00    +0.000 A 
ATOM     17  C   UNL     1       7.618   5.450  19.083  0.00  0.00    +0.000 A 
ATOM     18  N   UNL     1       6.714   4.647  18.480  0.00  0.00    +0.000 NA
ENDBRANCH  12  13
ENDBRANCH   3  12
TORSDOF 5
ENDMDL
MODEL 4
REMARK VINA RESULT:      -6.3      1.281      1.740
REMARK  Name = 
REMARK  7 active torsions:
REMARK  status: ('A' for Active; 'I' for Inactive)
REMARK    1  A    between atoms: C_1  and  N_2
REMARK    2  A    between atoms: N_2  and  C_3
REMARK    3  A    between atoms: N_2  and  S_14
REMARK    4  A    between atoms: C_3  and  C_4
REMARK    5  A    between atoms: N_6  and  C_7
REMARK    6  A    between atoms: C_7  and  C_8
REMARK    7  A    between atoms: S_14  and  C_15
REMARK                            x       y       z     vdW  Elec       q    Type
REMARK                         _______ _______ _______ _____ _____    ______ ____
ROOT
ATOM      1  C   UNL     1       6.773   4.846  19.044  0.00  0.00    +0.000 C 
ATOM      2  O   UNL     1       7.116   5.370  20.104  0.00  0.00    +0.000 OA
ATOM      3  N   UNL     1       5.520   4.317  18.855  0.00  0.00    +0.000 N 
ATOM      4  H   UNL     1       5.185   4.120  17.919  0.00  0.00    +0.000 HD
ENDROOT
BRANCH   1   5
ATOM      5  C   UNL     1       7.748   4.692  17.888  0.00  0.00    +0.000 C 
BRANCH   5   7
ATOM      6  C   UNL     1       7.365   7.022  17.160  0.00  0.00    +0.000 C 
ATOM      7  N   UNL     1       7.598   5.625  16.742  0.00  0.00    +0.000 NA
BRANCH   7   8
ATOM      8  S   UNL     1       6.708   5.063  15.423  0.00  0.00    +0.000 S 
ATOM      9  C   UNL     1       5.302   6.153  15.420  0.00  0.00    +0.000 C 
ATOM     10  O   UNL     1       7.474   5.332  14.225  0.00  0.00    +0.000 OA
ATOM     11  O   UNL     1       6.278   3.719  15.730  0.00  0.00    +0.000 OA
ENDBRANCH   7   8
ENDBRANCH   5   7
ENDBRANCH   1   5
BRANCH   3  12
ATOM     12  C   UNL     1       4.508   4.352  19.890  0.00  0.00    +0.000 C 
BRANCH  12  13
ATOM     13  C   UNL     1       3.230   3.652  19.491  0.00  0.00    +0.000 A 
ATOM     14  C   UNL     1       3.208   2.790  18.395  0.00  0.00    +0.000 A 
ATOM     15  C   UNL     1       2.004   2.189  18.035  0.00  0.00    +0.000 A 
ATOM     16  C   UNL     1       0.863   2.448  18.784  0.00  0.00    +0.000 A 
ATOM     17  C   UNL     1       0.974   3.297  19.872  0.00  0.00    +0.000 A 
ATOM     18  N   UNL     1       2.124   3.904  20.238  0.00  0.00    +0.000 NA
ENDBRANCH  12  13
ENDBRANCH   3  12
TORSDOF 5
ENDMDL
MODEL 5
REMARK VINA RESULT:      -6.3      1.488      1.739
REMARK  Name = 
REMARK  7 active torsions:
REMARK  status: ('A' for Active; 'I' for Inactive)
REMARK    1  A    between atoms: C_1  and  N_2
REMARK    2  A    between atoms: N_2  and  C_3
REMARK    3  A    between atoms: N_2  and  S_14
REMARK    4  A    between atoms: C_3  and  C_4
REMARK    5  A    between atoms: N_6  and  C_7
REMARK    6  A    between atoms: C_7  and  C_8
REMARK    7  A    between atoms: S_14  and  C_15
REMARK                            x       y       z     vdW  Elec       q    Type
REMARK                         _______ _______ _______ _____ _____    ______ ____
ROOT
ATOM      1  C   UNL     1       6.589   4.697  18.763  0.00  0.00    +0.000 C 
ATOM      2  O   UNL     1       6.914   5.220  19.829  0.00  0.00    +0.000 OA
ATOM      3  N   UNL     1       5.623   3.725  18.683  0.00  0.00    +0.000 N 
ATOM      4  H   UNL     1       5.206   3.492  17.789  0.00  0.00    +0.000 HD
ENDROOT
BRANCH   1   5
ATOM      5  C   UNL     1       7.294   5.052  17.463  0.00  0.00    +0.000 C 
BRANCH   5   7
ATOM      6  C   UNL     1       7.189   7.518  17.354  0.00  0.00    +0.000 C 
ATOM      7  N   UNL     1       6.799   6.241  16.724  0.00  0.00    +0.000 NA
BRANCH   7   8
ATOM      8  S   UNL     1       5.234   6.143  16.099  0.00  0.00    +0.000 S 
ATOM      9  C   UNL     1       4.260   6.883  17.391  0.00  0.00    +0.000 C 
ATOM     10  O   UNL     1       5.164   7.012  14.944  0.00  0.00    +0.000 OA
ATOM     11  O   UNL     1       4.900   4.743  15.983  0.00  0.00    +0.000 OA
ENDBRANCH   7   8
ENDBRANCH   5   7
ENDBRANCH   1   5
BRANCH   3  12
ATOM     12  C   UNL     1       4.906   3.257  19.851  0.00  0.00    +0.000 C 
BRANCH  12  13
ATOM     13  C   UNL     1       3.426   3.084  19.606  0.00  0.00    +0.000 A 
ATOM     14  C   UNL     1       2.511   3.274  20.640  0.00  0.00    +0.000 A 
ATOM     15  C   UNL     1       1.156   3.072  20.387  0.00  0.00    +0.000 A 
ATOM     16  C   UNL     1       0.750   2.705  19.111  0.00  0.00    +0.000 A 
ATOM     17  C   UNL     1       1.719   2.559  18.133  0.00  0.00    +0.000 A 
ATOM     18  N   UNL     1       3.040   2.736  18.351  0.00  0.00    +0.000 NA
ENDBRANCH  12  13
ENDBRANCH   3  12
TORSDOF 5
ENDMDL
MODEL 6
REMARK VINA RESULT:      -6.3      2.944      6.280
REMARK  Name = 
REMARK  7 active torsions:
REMARK  status: ('A' for Active; 'I' for Inactive)
REMARK    1  A    between atoms: C_1  and  N_2
REMARK    2  A    between atoms: N_2  and  C_3
REMARK    3  A    between atoms: N_2  and  S_14
REMARK    4  A    between atoms: C_3  and  C_4
REMARK    5  A    between atoms: N_6  and  C_7
REMARK    6  A    between atoms: C_7  and  C_8
REMARK    7  A    between atoms: S_14  and  C_15
REMARK                            x       y       z     vdW  Elec       q    Type
REMARK                         _______ _______ _______ _____ _____    ______ ____
ROOT
ATOM      1  C   UNL     1       5.384   4.720  18.215  0.00  0.00    +0.000 C 
ATOM      2  O   UNL     1       6.246   4.182  18.910  0.00  0.00    +0.000 OA
ATOM      3  N   UNL     1       5.655   5.231  16.970  0.00  0.00    +0.000 N 
ATOM      4  H   UNL     1       4.898   5.440  16.329  0.00  0.00    +0.000 HD
ENDROOT
BRANCH   1   5
ATOM      5  C   UNL     1       3.966   4.913  18.727  0.00  0.00    +0.000 C 
BRANCH   5   7
ATOM      6  C   UNL     1       1.723   4.548  17.754  0.00  0.00    +0.000 C 
ATOM      7  N   UNL     1       2.947   3.922  18.296  0.00  0.00    +0.000 NA
BRANCH   7   8
ATOM      8  S   UNL     1       2.742   2.572  19.287  0.00  0.00    +0.000 S 
ATOM      9  C   UNL     1       3.678   1.324  18.430  0.00  0.00    +0.000 C 
ATOM     10  O   UNL     1       3.412   2.838  20.541  0.00  0.00    +0.000 OA
ATOM     11  O   UNL     1       1.340   2.225  19.265  0.00  0.00    +0.000 OA
ENDBRANCH   7   8
ENDBRANCH   5   7
ENDBRANCH   1   5
BRANCH   3  12
ATOM     12  C   UNL     1       6.976   5.159  16.380  0.00  0.00    +0.000 C 
BRANCH  12  13
ATOM     13  C   UNL     1       6.948   4.829  14.907  0.00  0.00    +0.000 A 
ATOM     14  C   UNL     1       6.041   3.896  14.407  0.00  0.00    +0.000 A 
ATOM     15  C   UNL     1       6.068   3.590  13.049  0.00  0.00    +0.000 A 
ATOM     16  C   UNL     1       6.982   4.233  12.224  0.00  0.00    +0.000 A 
ATOM     17  C   UNL     1       7.834   5.164  12.794  0.00  0.00    +0.000 A 
ATOM     18  N   UNL     1       7.840   5.472  14.109  0.00  0.00    +0.000 NA
ENDBRANCH  12  13
ENDBRANCH   3  12
TORSDOF 5
ENDMDL
MODEL 7
REMARK VINA RESULT:      -6.3      3.410      6.701
REMARK  Name = 
REMARK  7 active torsions:
REMARK  status: ('A' for Active; 'I' for Inactive)
REMARK    1  A    between atoms: C_1  and  N_2
REMARK    2  A    between atoms: N_2  and  C_3
REMARK    3  A    between atoms: N_2  and  S_14
REMARK    4  A    between atoms: C_3  and  C_4
REMARK    5  A    between atoms: N_6  and  C_7
REMARK    6  A    between atoms: C_7  and  C_8
REMARK    7  A    between atoms: S_14  and  C_15
REMARK                            x       y       z     vdW  Elec       q    Type
REMARK                         _______ _______ _______ _____ _____    ______ ____
ROOT
ATOM      1  C   UNL     1       4.499   4.177  17.289  0.00  0.00    +0.000 C 
ATOM      2  O   UNL     1       3.958   5.277  17.173  0.00  0.00    +0.000 OA
ATOM      3  N   UNL     1       5.772   3.931  16.839  0.00  0.00    +0.000 N 
ATOM      4  H   UNL     1       6.277   3.113  17.159  0.00  0.00    +0.000 HD
ENDROOT
BRANCH   1   5
ATOM      5  C   UNL     1       3.756   2.992  17.884  0.00  0.00    +0.000 C 
BRANCH   5   7
ATOM      6  C   UNL     1       4.370   2.108  20.109  0.00  0.00    +0.000 C 
ATOM      7  N   UNL     1       3.493   3.018  19.345  0.00  0.00    +0.000 NA
BRANCH   7   8
ATOM      8  S   UNL     1       1.875   3.098  19.819  0.00  0.00    +0.000 S 
ATOM      9  C   UNL     1       1.649   4.838  20.114  0.00  0.00    +0.000 C 
ATOM     10  O   UNL     1       1.062   2.738  18.677  0.00  0.00    +0.000 OA
ATOM     11  O   UNL     1       1.750   2.376  21.063  0.00  0.00    +0.000 OA
ENDBRANCH   7   8
ENDBRANCH   5   7
ENDBRANCH   1   5
BRANCH   3  12
ATOM     12  C   UNL     1       6.576   4.957  16.208  0.00  0.00    +0.000 C 
BRANCH  12  13
ATOM     13  C   UNL     1       6.766   4.731  14.726  0.00  0.00    +0.000 A 
ATOM     14  C   UNL     1       5.981   3.801  14.046  0.00  0.00    +0.000 A 
ATOM     15  C   UNL     1       6.208   3.594  12.688  0.00  0.00    +0.000 A 
ATOM     16  C   UNL     1       7.193   4.329  12.042  0.00  0.00    +0.000 A 
ATOM     17  C   UNL     1       7.913   5.250  12.784  0.00  0.00    +0.000 A 
ATOM     18  N   UNL     1       7.725   5.464  14.104  0.00  0.00    +0.000 NA
ENDBRANCH  12  13
ENDBRANCH   3  12
TORSDOF 5
ENDMDL
MODEL 8
REMARK VINA RESULT:      -6.3      3.119      6.339
REMARK  Name = 
REMARK  7 active torsions:
REMARK  status: ('A' for Active; 'I' for Inactive)
REMARK    1  A    between atoms: C_1  and  N_2
REMARK    2  A    between atoms: N_2  and  C_3
REMARK    3  A    between atoms: N_2  and  S_14
REMARK    4  A    between atoms: C_3  and  C_4
REMARK    5  A    between atoms: N_6  and  C_7
REMARK    6  A    between atoms: C_7  and  C_8
REMARK    7  A    between atoms: S_14  and  C_15
REMARK                            x       y       z     vdW  Elec       q    Type
REMARK                         _______ _______ _______ _____ _____    ______ ____
ROOT
ATOM      1  C   UNL     1       5.638   4.227  18.004  0.00  0.00    +0.000 C 
ATOM      2  O   UNL     1       6.667   4.465  18.637  0.00  0.00    +0.000 OA
ATOM      3  N   UNL     1       5.454   4.652  16.712  0.00  0.00    +0.000 N 
ATOM      4  H   UNL     1       4.724   4.244  16.140  0.00  0.00    +0.000 HD
ENDROOT
BRANCH   1   5
ATOM      5  C   UNL     1       4.469   3.497  18.645  0.00  0.00    +0.000 C 
BRANCH   5   7
ATOM      6  C   UNL     1       3.365   5.380  19.804  0.00  0.00    +0.000 C 
ATOM      7  N   UNL     1       3.215   4.266  18.846  0.00  0.00    +0.000 NA
BRANCH   7   8
ATOM      8  S   UNL     1       1.786   3.370  18.932  0.00  0.00    +0.000 S 
ATOM      9  C   UNL     1       0.919   4.165  20.268  0.00  0.00    +0.000 C 
ATOM     10  O   UNL     1       1.038   3.613  17.718  0.00  0.00    +0.000 OA
ATOM     11  O   UNL     1       2.140   2.025  19.318  0.00  0.00    +0.000 OA
ENDBRANCH   7   8
ENDBRANCH   5   7
ENDBRANCH   1   5
BRANCH   3  12
ATOM     12  C   UNL     1       6.466   5.400  15.997  0.00  0.00    +0.000 C 
BRANCH  12  13
ATOM     13  C   UNL     1       6.668   4.918  14.580  0.00  0.00    +0.000 A 
ATOM     14  C   UNL     1       5.855   3.917  14.051  0.00  0.00    +0.000 A 
ATOM     15  C   UNL     1       6.092   3.473  12.753  0.00  0.00    +0.000 A 
ATOM     16  C   UNL     1       7.117   4.048  12.012  0.00  0.00    +0.000 A 
ATOM     17  C   UNL     1       7.864   5.054  12.602  0.00  0.00    +0.000 A 
ATOM     18  N   UNL     1       7.666   5.497  13.863  0.00  0.00    +0.000 NA
ENDBRANCH  12  13
ENDBRANCH   3  12
TORSDOF 5
ENDMDL
MODEL 9
REMARK VINA RESULT:      -6.3      2.664      5.807
REMARK  Name = 
REMARK  7 active torsions:
REMARK  status: ('A' for Active; 'I' for Inactive)
REMARK    1  A    between atoms: C_1  and  N_2
REMARK    2  A    between atoms: N_2  and  C_3
REMARK    3  A    between atoms: N_2  and  S_14
REMARK    4  A    between atoms: C_3  and  C_4
REMARK    5  A    between atoms: N_6  and  C_7
REMARK    6  A    between atoms: C_7  and  C_8
REMARK    7  A    between atoms: S_14  and  C_15
REMARK                            x       y       z     vdW  Elec       q    Type
REMARK                         _______ _______ _______ _____ _____    ______ ____
ROOT
ATOM      1  C   UNL     1       5.128   4.841  18.655  0.00  0.00    +0.000 C 
ATOM      2  O   UNL     1       4.952   6.014  18.326  0.00  0.00    +0.000 OA
ATOM      3  N   UNL     1       6.216   4.114  18.239  0.00  0.00    +0.000 N 
ATOM      4  H   UNL     1       6.463   3.252  18.710  0.00  0.00    +0.000 HD
ENDROOT
BRANCH   1   5
ATOM      5  C   UNL     1       4.104   4.096  19.497  0.00  0.00    +0.000 C 
BRANCH   5   7
ATOM      6  C   UNL     1       1.916   4.729  20.456  0.00  0.00    +0.000 C 
ATOM      7  N   UNL     1       2.671   4.382  19.235  0.00  0.00    +0.000 NA
BRANCH   7   8
ATOM      8  S   UNL     1       1.896   3.385  18.114  0.00  0.00    +0.000 S 
ATOM      9  C   UNL     1       0.771   2.462  19.138  0.00  0.00    +0.000 C 
ATOM     10  O   UNL     1       1.105   4.228  17.244  0.00  0.00    +0.000 OA
ATOM     11  O   UNL     1       2.891   2.494  17.564  0.00  0.00    +0.000 OA
ENDBRANCH   7   8
ENDBRANCH   5   7
ENDBRANCH   1   5
BRANCH   3  12
ATOM     12  C   UNL     1       7.244   4.685  17.394  0.00  0.00    +0.000 C 
BRANCH  12  13
ATOM     13  C   UNL     1       6.939   4.551  15.921  0.00  0.00    +0.000 A 
ATOM     14  C   UNL     1       5.930   3.695  15.481  0.00  0.00    +0.000 A 
ATOM     15  C   UNL     1       5.701   3.570  14.114  0.00  0.00    +0.000 A 
ATOM     16  C   UNL     1       6.467   4.312  13.224  0.00  0.00    +0.000 A 
ATOM     17  C   UNL     1       7.434   5.158  13.742  0.00  0.00    +0.000 A 
ATOM     18  N   UNL     1       7.688   5.290  15.062  0.00  0.00    +0.000 NA
ENDBRANCH  12  13
ENDBRANCH   3  12
TORSDOF 5
ENDMDL
