MODEL 1
REMARK VINA RESULT:      -9.5      0.000      0.000
REMARK  Name = 
REMARK  10 active torsions:
REMARK  status: ('A' for Active; 'I' for Inactive)
REMARK    1  A    between atoms: C_1  and  O_2
REMARK    2  A    between atoms: O_2  and  C_3
REMARK    3  A    between atoms: C_5  and  C_6
REMARK    4  A    between atoms: N_8  and  C_9
REMARK    5  A    between atoms: C_9  and  C_10
REMARK    6  A    between atoms: N_12  and  C_13
REMARK    7  A    between atoms: C_13  and  C_14
REMARK    8  A    between atoms: C_13  and  C_15
REMARK    9  A    between atoms: C_18  and  N_19
REMARK   10  A    between atoms: C_21  and  C_22
REMARK                            x       y       z     vdW  Elec       q    Type
REMARK                         _______ _______ _______ _____ _____    ______ ____
ROOT
ATOM      1  C   UNL     1       3.222   5.698  19.176  0.00  0.00    +0.000 C 
ATOM      2  C   UNL     1       2.293   4.601  18.634  0.00  0.00    +0.000 C 
ENDROOT
BRANCH   1   3
ATOM      3  C   UNL     1       2.502   7.033  19.199  0.00  0.00    +0.000 A 
ATOM      4  C   UNL     1       2.453   7.858  18.066  0.00  0.00    +0.000 A 
ATOM      5  C   UNL     1       1.720   9.049  18.078  0.00  0.00    +0.000 A 
ATOM      6  C   UNL     1       1.065   9.469  19.246  0.00  0.00    +0.000 A 
ATOM      7  C   UNL     1       1.096   8.658  20.379  0.00  0.00    +0.000 A 
ATOM      8  C   UNL     1       1.800   7.449  20.342  0.00  0.00    +0.000 A 
ATOM      9  F   UNL     1       1.773   6.666  21.430  0.00  0.00    +0.000 F 
BRANCH   6  10
ATOM     10  N   UNL     1       0.388  10.720  19.234  0.00  0.00    +0.000 N 
ATOM     11  N   UNL     1      -0.968  10.742  19.352  0.00  0.00    +0.000 NA
ATOM     12  C   UNL     1      -1.296  12.035  19.325  0.00  0.00    +0.000 A 
ATOM     13  C   UNL     1      -2.711  12.454  19.482  0.00  0.00    +0.000 C 
ATOM     14  C   UNL     1      -0.173  12.861  19.081  0.00  0.00    +0.000 A 
ATOM     15  C   UNL     1       0.025  14.238  18.866  0.00  0.00    +0.000 A 
ATOM     16  C   UNL     1       1.307  14.706  18.566  0.00  0.00    +0.000 A 
ATOM     17  C   UNL     1       2.382  13.825  18.494  0.00  0.00    +0.000 A 
ATOM     18  C   UNL     1       2.210  12.457  18.725  0.00  0.00    +0.000 A 
ATOM     19  C   UNL     1       0.918  11.990  19.031  0.00  0.00    +0.000 A 
ENDBRANCH   6  10
ENDBRANCH   1   3
BRANCH   1  22
ATOM     20  C   UNL     1       5.601   5.134  18.943  0.00  0.00    +0.000 C 
ATOM     21  O   UNL     1       5.594   4.468  19.968  0.00  0.00    +0.000 OA
ATOM     22  N   UNL     1       4.475   5.750  18.428  0.00  0.00    +0.000 N 
ATOM     23  H   UNL     1       4.608   6.427  17.684  0.00  0.00    +0.000 HD
BRANCH  20  24
ATOM     24  C   UNL     1       6.908   5.352  18.209  0.00  0.00    +0.000 C 
ATOM     25  C   UNL     1       8.221   5.475  18.962  0.00  0.00    +0.000 C 
ATOM     26  C   UNL     1       7.554   6.718  18.471  0.00  0.00    +0.000 C 
BRANCH  24  29
ATOM     27  C   UNL     1       6.402   5.579  15.786  0.00  0.00    +0.000 C 
ATOM     28  O   UNL     1       5.855   6.670  15.923  0.00  0.00    +0.000 OA
ATOM     29  N   UNL     1       6.947   4.884  16.843  0.00  0.00    +0.000 N 
ATOM     30  H   UNL     1       7.455   4.028  16.650  0.00  0.00    +0.000 HD
BRANCH  27  33
ATOM     31  C   UNL     1       6.483   3.648  12.716  0.00  0.00    +0.000 A 
ATOM     32  C   UNL     1       5.887   3.805  13.981  0.00  0.00    +0.000 A 
ATOM     33  C   UNL     1       6.526   4.905  14.517  0.00  0.00    +0.000 A 
ATOM     34  O   UNL     1       7.443   5.363  13.610  0.00  0.00    +0.000 OA
ATOM     35  N   UNL     1       7.416   4.567  12.477  0.00  0.00    +0.000 NA
BRANCH  31  37
ATOM     36  C   UNL     1       4.918   2.627  11.338  0.00  0.00    +0.000 C 
ATOM     37  O   UNL     1       6.274   2.753  11.731  0.00  0.00    +0.000 OA
ENDBRANCH  31  37
ENDBRANCH  27  33
ENDBRANCH  24  29
ENDBRANCH  20  24
ENDBRANCH   1  22
TORSDOF 7
ENDMDL
MODEL 2
REMARK VINA RESULT:      -9.4      0.996      1.031
REMARK  Name = 
REMARK  10 active torsions:
REMARK  status: ('A' for Active; 'I' for Inactive)
REMARK    1  A    between atoms: C_1  and  O_2
REMARK    2  A    between atoms: O_2  and  C_3
REMARK    3  A    between atoms: C_5  and  C_6
REMARK    4  A    between atoms: N_8  and  C_9
REMARK    5  A    between atoms: C_9  and  C_10
REMARK    6  A    between atoms: N_12  and  C_13
REMARK    7  A    between atoms: C_13  and  C_14
REMARK    8  A    between atoms: C_13  and  C_15
REMARK    9  A    between atoms: C_18  and  N_19
REMARK   10  A    between atoms: C_21  and  C_22
REMARK                            x       y       z     vdW  Elec       q    Type
REMARK                         _______ _______ _______ _____ _____    ______ ____
ROOT
ATOM      1  C   UNL     1       3.014   6.296  18.935  0.00  0.00    +0.000 C 
ATOM      2  C   UNL     1       2.049   5.168  18.536  0.00  0.00    +0.000 C 
ENDROOT
BRANCH   1   3
ATOM      3  C   UNL     1       2.259   7.601  19.099  0.00  0.00    +0.000 A 
ATOM      4  C   UNL     1       2.132   8.513  18.041  0.00  0.00    +0.000 A 
ATOM      5  C   UNL     1       1.367   9.675  18.184  0.00  0.00    +0.000 A 
ATOM      6  C   UNL     1       0.756   9.978  19.411  0.00  0.00    +0.000 A 
ATOM      7  C   UNL     1       0.864   9.079  20.471  0.00  0.00    +0.000 A 
ATOM      8  C   UNL     1       1.600   7.900  20.303  0.00  0.00    +0.000 A 
ATOM      9  F   UNL     1       1.646   7.032  21.323  0.00  0.00    +0.000 F 
BRANCH   6  10
ATOM     10  N   UNL     1       0.044  11.203  19.532  0.00  0.00    +0.000 N 
ATOM     11  N   UNL     1      -1.285  11.172  19.823  0.00  0.00    +0.000 NA
ATOM     12  C   UNL     1      -1.654  12.453  19.885  0.00  0.00    +0.000 A 
ATOM     13  C   UNL     1      -3.050  12.815  20.237  0.00  0.00    +0.000 C 
ATOM     14  C   UNL     1      -0.599  13.326  19.531  0.00  0.00    +0.000 A 
ATOM     15  C   UNL     1      -0.475  14.716  19.343  0.00  0.00    +0.000 A 
ATOM     16  C   UNL     1       0.743  15.239  18.899  0.00  0.00    +0.000 A 
ATOM     17  C   UNL     1       1.826  14.401  18.658  0.00  0.00    +0.000 A 
ATOM     18  C   UNL     1       1.729  13.020  18.858  0.00  0.00    +0.000 A 
ATOM     19  C   UNL     1       0.503  12.498  19.310  0.00  0.00    +0.000 A 
ENDBRANCH   6  10
ENDBRANCH   1   3
BRANCH   1  22
ATOM     20  C   UNL     1       5.412   6.151  18.420  0.00  0.00    +0.000 C 
ATOM     21  O   UNL     1       5.679   5.756  19.546  0.00  0.00    +0.000 OA
ATOM     22  N   UNL     1       4.122   6.406  17.990  0.00  0.00    +0.000 N 
ATOM     23  H   UNL     1       4.009   6.901  17.112  0.00  0.00    +0.000 HD
BRANCH  20  24
ATOM     24  C   UNL     1       6.536   6.432  17.445  0.00  0.00    +0.000 C 
ATOM     25  C   UNL     1       7.939   6.750  17.934  0.00  0.00    +0.000 C 
ATOM     26  C   UNL     1       7.060   7.873  17.492  0.00  0.00    +0.000 C 
BRANCH  24  29
ATOM     27  C   UNL     1       7.064   4.730  15.713  0.00  0.00    +0.000 C 
ATOM     28  O   UNL     1       7.839   4.115  16.442  0.00  0.00    +0.000 OA
ATOM     29  N   UNL     1       6.387   5.854  16.130  0.00  0.00    +0.000 N 
ATOM     30  H   UNL     1       5.702   6.267  15.507  0.00  0.00    +0.000 HD
BRANCH  27  33
ATOM     31  C   UNL     1       6.119   3.566  12.410  0.00  0.00    +0.000 A 
ATOM     32  C   UNL     1       5.836   3.525  13.788  0.00  0.00    +0.000 A 
ATOM     33  C   UNL     1       6.786   4.353  14.349  0.00  0.00    +0.000 A 
ATOM     34  O   UNL     1       7.578   4.850  13.349  0.00  0.00    +0.000 OA
ATOM     35  N   UNL     1       7.157   4.349  12.128  0.00  0.00    +0.000 NA
BRANCH  31  37
ATOM     36  C   UNL     1       4.134   3.179  11.269  0.00  0.00    +0.000 C 
ATOM     37  O   UNL     1       5.533   2.965  11.356  0.00  0.00    +0.000 OA
ENDBRANCH  31  37
ENDBRANCH  27  33
ENDBRANCH  24  29
ENDBRANCH  20  24
ENDBRANCH   1  22
TORSDOF 7
ENDMDL
MODEL 3
REMARK VINA RESULT:      -9.3      1.510      2.310
REMARK  Name = 
REMARK  10 active torsions:
REMARK  status: ('A' for Active; 'I' for Inactive)
REMARK    1  A    between atoms: C_1  and  O_2
REMARK    2  A    between atoms: O_2  and  C_3
REMARK    3  A    between atoms: C_5  and  C_6
REMARK    4  A    between atoms: N_8  and  C_9
REMARK    5  A    between atoms: C_9  and  C_10
REMARK    6  A    between atoms: N_12  and  C_13
REMARK    7  A    between atoms: C_13  and  C_14
REMARK    8  A    between atoms: C_13  and  C_15
REMARK    9  A    between atoms: C_18  and  N_19
REMARK   10  A    between atoms: C_21  and  C_22
REMARK                            x       y       z     vdW  Elec       q    Type
REMARK                         _______ _______ _______ _____ _____    ______ ____
ROOT
ATOM      1  C   UNL     1       3.135   5.597  19.033  0.00  0.00    +0.000 C 
ATOM      2  C   UNL     1       2.225   4.609  18.285  0.00  0.00    +0.000 C 
ENDROOT
BRANCH   1   3
ATOM      3  C   UNL     1       2.410   6.910  19.258  0.00  0.00    +0.000 A 
ATOM      4  C   UNL     1       1.817   7.218  20.492  0.00  0.00    +0.000 A 
ATOM      5  C   UNL     1       1.220   8.464  20.709  0.00  0.00    +0.000 A 
ATOM      6  C   UNL     1       1.155   9.411  19.676  0.00  0.00    +0.000 A 
ATOM      7  C   UNL     1       1.747   9.126  18.446  0.00  0.00    +0.000 A 
ATOM      8  C   UNL     1       2.376   7.891  18.254  0.00  0.00    +0.000 A 
ATOM      9  F   UNL     1       2.978   7.663  17.078  0.00  0.00    +0.000 F 
BRANCH   6  10
ATOM     10  N   UNL     1       0.480  10.639  19.920  0.00  0.00    +0.000 N 
ATOM     11  N   UNL     1       0.620  11.662  19.034  0.00  0.00    +0.000 NA
ATOM     12  C   UNL     1      -0.133  12.648  19.523  0.00  0.00    +0.000 A 
ATOM     13  C   UNL     1      -0.266  13.928  18.783  0.00  0.00    +0.000 C 
ATOM     14  C   UNL     1      -0.685  12.318  20.783  0.00  0.00    +0.000 A 
ATOM     15  C   UNL     1      -1.447  13.003  21.749  0.00  0.00    +0.000 A 
ATOM     16  C   UNL     1      -1.755  12.367  22.954  0.00  0.00    +0.000 A 
ATOM     17  C   UNL     1      -1.326  11.065  23.195  0.00  0.00    +0.000 A 
ATOM     18  C   UNL     1      -0.586  10.360  22.240  0.00  0.00    +0.000 A 
ATOM     19  C   UNL     1      -0.282  11.003  21.026  0.00  0.00    +0.000 A 
ENDBRANCH   6  10
ENDBRANCH   1   3
BRANCH   1  22
ATOM     20  C   UNL     1       5.469   4.937  18.646  0.00  0.00    +0.000 C 
ATOM     21  O   UNL     1       5.380   3.992  19.417  0.00  0.00    +0.000 OA
ATOM     22  N   UNL     1       4.409   5.772  18.341  0.00  0.00    +0.000 N 
ATOM     23  H   UNL     1       4.616   6.631  17.842  0.00  0.00    +0.000 HD
BRANCH  20  24
ATOM     24  C   UNL     1       6.809   5.260  18.020  0.00  0.00    +0.000 C 
ATOM     25  C   UNL     1       8.055   5.427  18.873  0.00  0.00    +0.000 C 
ATOM     26  C   UNL     1       7.351   6.649  18.382  0.00  0.00    +0.000 C 
BRANCH  24  29
ATOM     27  C   UNL     1       6.303   5.440  15.594  0.00  0.00    +0.000 C 
ATOM     28  O   UNL     1       5.522   6.375  15.746  0.00  0.00    +0.000 OA
ATOM     29  N   UNL     1       6.974   4.855  16.644  0.00  0.00    +0.000 N 
ATOM     30  H   UNL     1       7.665   4.141  16.441  0.00  0.00    +0.000 HD
BRANCH  27  33
ATOM     31  C   UNL     1       6.818   3.697  12.455  0.00  0.00    +0.000 A 
ATOM     32  C   UNL     1       6.099   3.738  13.663  0.00  0.00    +0.000 A 
ATOM     33  C   UNL     1       6.597   4.849  14.311  0.00  0.00    +0.000 A 
ATOM     34  O   UNL     1       7.554   5.425  13.520  0.00  0.00    +0.000 OA
ATOM     35  N   UNL     1       7.694   4.694  12.351  0.00  0.00    +0.000 NA
BRANCH  31  37
ATOM     36  C   UNL     1       5.702   1.917  11.466  0.00  0.00    +0.000 C 
ATOM     37  O   UNL     1       6.773   2.845  11.412  0.00  0.00    +0.000 OA
ENDBRANCH  31  37
ENDBRANCH  27  33
ENDBRANCH  24  29
ENDBRANCH  20  24
ENDBRANCH   1  22
TORSDOF 7
ENDMDL
MODEL 4
REMARK VINA RESULT:      -9.3      0.839      1.169
REMARK  Name = 
REMARK  10 active torsions:
REMARK  status: ('A' for Active; 'I' for Inactive)
REMARK    1  A    between atoms: C_1  and  O_2
REMARK    2  A    between atoms: O_2  and  C_3
REMARK    3  A    between atoms: C_5  and  C_6
REMARK    4  A    between atoms: N_8  and  C_9
REMARK    5  A    between atoms: C_9  and  C_10
REMARK    6  A    between atoms: N_12  and  C_13
REMARK    7  A    between atoms: C_13  and  C_14
REMARK    8  A    between atoms: C_13  and  C_15
REMARK    9  A    between atoms: C_18  and  N_19
REMARK   10  A    between atoms: C_21  and  C_22
REMARK                            x       y       z     vdW  Elec       q    Type
REMARK                         _______ _______ _______ _____ _____    ______ ____
ROOT
ATOM      1  C   UNL     1       3.241   5.789  19.173  0.00  0.00    +0.000 C 
ATOM      2  C   UNL     1       2.356   4.683  18.576  0.00  0.00    +0.000 C 
ENDROOT
BRANCH   1   3
ATOM      3  C   UNL     1       2.483   7.102  19.215  0.00  0.00    +0.000 A 
ATOM      4  C   UNL     1       1.874   7.559  20.393  0.00  0.00    +0.000 A 
ATOM      5  C   UNL     1       1.246   8.808  20.436  0.00  0.00    +0.000 A 
ATOM      6  C   UNL     1       1.166   9.604  19.284  0.00  0.00    +0.000 A 
ATOM      7  C   UNL     1       1.774   9.170  18.107  0.00  0.00    +0.000 A 
ATOM      8  C   UNL     1       2.433   7.936  18.087  0.00  0.00    +0.000 A 
ATOM      9  F   UNL     1       3.050   7.565  16.955  0.00  0.00    +0.000 F 
BRANCH   6  10
ATOM     10  N   UNL     1       0.460  10.837  19.356  0.00  0.00    +0.000 N 
ATOM     11  N   UNL     1      -0.883  10.821  19.577  0.00  0.00    +0.000 NA
ATOM     12  C   UNL     1      -1.243  12.105  19.608  0.00  0.00    +0.000 A 
ATOM     13  C   UNL     1      -2.652  12.483  19.882  0.00  0.00    +0.000 C 
ATOM     14  C   UNL     1      -0.163  12.966  19.301  0.00  0.00    +0.000 A 
ATOM     15  C   UNL     1      -0.016  14.352  19.106  0.00  0.00    +0.000 A 
ATOM     16  C   UNL     1       1.228  14.861  18.722  0.00  0.00    +0.000 A 
ATOM     17  C   UNL     1       2.315  14.010  18.546  0.00  0.00    +0.000 A 
ATOM     18  C   UNL     1       2.194  12.632  18.754  0.00  0.00    +0.000 A 
ATOM     19  C   UNL     1       0.942  12.125  19.145  0.00  0.00    +0.000 A 
ENDBRANCH   6  10
ENDBRANCH   1   3
BRANCH   1  22
ATOM     20  C   UNL     1       5.548   5.042  18.785  0.00  0.00    +0.000 C 
ATOM     21  O   UNL     1       5.441   4.132  19.594  0.00  0.00    +0.000 OA
ATOM     22  N   UNL     1       4.510   5.896  18.460  0.00  0.00    +0.000 N 
ATOM     23  H   UNL     1       4.736   6.727  17.924  0.00  0.00    +0.000 HD
BRANCH  20  24
ATOM     24  C   UNL     1       6.889   5.299  18.129  0.00  0.00    +0.000 C 
ATOM     25  C   UNL     1       8.159   5.414  18.956  0.00  0.00    +0.000 C 
ATOM     26  C   UNL     1       7.501   6.663  18.469  0.00  0.00    +0.000 C 
BRANCH  24  29
ATOM     27  C   UNL     1       6.383   5.514  15.706  0.00  0.00    +0.000 C 
ATOM     28  O   UNL     1       5.688   6.515  15.860  0.00  0.00    +0.000 OA
ATOM     29  N   UNL     1       7.007   4.875  16.754  0.00  0.00    +0.000 N 
ATOM     30  H   UNL     1       7.631   4.103  16.548  0.00  0.00    +0.000 HD
BRANCH  27  33
ATOM     31  C   UNL     1       6.750   3.699  12.587  0.00  0.00    +0.000 A 
ATOM     32  C   UNL     1       6.101   3.758  13.834  0.00  0.00    +0.000 A 
ATOM     33  C   UNL     1       6.613   4.896  14.423  0.00  0.00    +0.000 A 
ATOM     34  O   UNL     1       7.510   5.468  13.563  0.00  0.00    +0.000 OA
ATOM     35  N   UNL     1       7.597   4.710  12.407  0.00  0.00    +0.000 NA
BRANCH  31  37
ATOM     36  C   UNL     1       5.427   2.123  11.510  0.00  0.00    +0.000 C 
ATOM     37  O   UNL     1       6.661   2.819  11.570  0.00  0.00    +0.000 OA
ENDBRANCH  31  37
ENDBRANCH  27  33
ENDBRANCH  24  29
ENDBRANCH  20  24
ENDBRANCH   1  22
TORSDOF 7
ENDMDL
MODEL 5
REMARK VINA RESULT:      -9.3      1.763      2.166
REMARK  Name = 
REMARK  10 active torsions:
REMARK  status: ('A' for Active; 'I' for Inactive)
REMARK    1  A    between atoms: C_1  and  O_2
REMARK    2  A    between atoms: O_2  and  C_3
REMARK    3  A    between atoms: C_5  and  C_6
REMARK    4  A    between atoms: N_8  and  C_9
REMARK    5  A    between atoms: C_9  and  C_10
REMARK    6  A    between atoms: N_12  and  C_13
REMARK    7  A    between atoms: C_13  and  C_14
REMARK    8  A    between atoms: C_13  and  C_15
REMARK    9  A    between atoms: C_18  and  N_19
REMARK   10  A    between atoms: C_21  and  C_22
REMARK                            x       y       z     vdW  Elec       q    Type
REMARK                         _______ _______ _______ _____ _____    ______ ____
ROOT
ATOM      1  C   UNL     1       3.331   5.680  19.054  0.00  0.00    +0.000 C 
ATOM      2  C   UNL     1       2.445   4.526  18.559  0.00  0.00    +0.000 C 
ENDROOT
BRANCH   1   3
ATOM      3  C   UNL     1       2.478   6.883  19.409  0.00  0.00    +0.000 A 
ATOM      4  C   UNL     1       2.349   7.973  18.536  0.00  0.00    +0.000 A 
ATOM      5  C   UNL     1       1.498   9.039  18.843  0.00  0.00    +0.000 A 
ATOM      6  C   UNL     1       0.799   9.064  20.059  0.00  0.00    +0.000 A 
ATOM      7  C   UNL     1       0.908   7.985  20.935  0.00  0.00    +0.000 A 
ATOM      8  C   UNL     1       1.732   6.906  20.599  0.00  0.00    +0.000 A 
ATOM      9  F   UNL     1       1.781   5.861  21.437  0.00  0.00    +0.000 F 
BRANCH   6  10
ATOM     10  N   UNL     1      -0.003  10.200  20.360  0.00  0.00    +0.000 N 
ATOM     11  N   UNL     1       0.205  10.870  21.526  0.00  0.00    +0.000 NA
ATOM     12  C   UNL     1      -0.673  11.874  21.509  0.00  0.00    +0.000 A 
ATOM     13  C   UNL     1      -0.704  12.862  22.617  0.00  0.00    +0.000 C 
ATOM     14  C   UNL     1      -1.532  11.807  20.387  0.00  0.00    +0.000 A 
ATOM     15  C   UNL     1      -2.657  12.531  19.948  0.00  0.00    +0.000 A 
ATOM     16  C   UNL     1      -3.326  12.118  18.792  0.00  0.00    +0.000 A 
ATOM     17  C   UNL     1      -2.880  11.013  18.074  0.00  0.00    +0.000 A 
ATOM     18  C   UNL     1      -1.753  10.293  18.483  0.00  0.00    +0.000 A 
ATOM     19  C   UNL     1      -1.080  10.715  19.644  0.00  0.00    +0.000 A 
ENDBRANCH   6  10
ENDBRANCH   1   3
BRANCH   1  22
ATOM     20  C   UNL     1       5.692   6.072  18.500  0.00  0.00    +0.000 C 
ATOM     21  O   UNL     1       6.053   5.802  19.636  0.00  0.00    +0.000 OA
ATOM     22  N   UNL     1       4.375   6.000  18.083  0.00  0.00    +0.000 N 
ATOM     23  H   UNL     1       4.142   6.415  17.188  0.00  0.00    +0.000 HD
BRANCH  20  24
ATOM     24  C   UNL     1       6.712   6.562  17.493  0.00  0.00    +0.000 C 
ATOM     25  C   UNL     1       8.070   7.077  17.937  0.00  0.00    +0.000 C 
ATOM     26  C   UNL     1       7.007   8.064  17.581  0.00  0.00    +0.000 C 
BRANCH  24  29
ATOM     27  C   UNL     1       7.119   4.800  15.788  0.00  0.00    +0.000 C 
ATOM     28  O   UNL     1       7.719   4.070  16.572  0.00  0.00    +0.000 OA
ATOM     29  N   UNL     1       6.591   6.016  16.161  0.00  0.00    +0.000 N 
ATOM     30  H   UNL     1       6.038   6.532  15.487  0.00  0.00    +0.000 HD
BRANCH  27  33
ATOM     31  C   UNL     1       6.373   3.723  12.405  0.00  0.00    +0.000 A 
ATOM     32  C   UNL     1       6.088   3.557  13.773  0.00  0.00    +0.000 A 
ATOM     33  C   UNL     1       6.908   4.474  14.398  0.00  0.00    +0.000 A 
ATOM     34  O   UNL     1       7.630   5.138  13.444  0.00  0.00    +0.000 OA
ATOM     35  N   UNL     1       7.294   4.660  12.188  0.00  0.00    +0.000 NA
BRANCH  31  37
ATOM     36  C   UNL     1       4.484   2.906  11.331  0.00  0.00    +0.000 C 
ATOM     37  O   UNL     1       5.886   3.113  11.307  0.00  0.00    +0.000 OA
ENDBRANCH  31  37
ENDBRANCH  27  33
ENDBRANCH  24  29
ENDBRANCH  20  24
ENDBRANCH   1  22
TORSDOF 7
ENDMDL
MODEL 6
REMARK VINA RESULT:      -9.3      2.831      4.977
REMARK  Name = 
REMARK  10 active torsions:
REMARK  status: ('A' for Active; 'I' for Inactive)
REMARK    1  A    between atoms: C_1  and  O_2
REMARK    2  A    between atoms: O_2  and  C_3
REMARK    3  A    between atoms: C_5  and  C_6
REMARK    4  A    between atoms: N_8  and  C_9
REMARK    5  A    between atoms: C_9  and  C_10
REMARK    6  A    between atoms: N_12  and  C_13
REMARK    7  A    between atoms: C_13  and  C_14
REMARK    8  A    between atoms: C_13  and  C_15
REMARK    9  A    between atoms: C_18  and  N_19
REMARK   10  A    between atoms: C_21  and  C_22
REMARK                            x       y       z     vdW  Elec       q    Type
REMARK                         _______ _______ _______ _____ _____    ______ ____
ROOT
ATOM      1  C   UNL     1       3.450   4.678  18.491  0.00  0.00    +0.000 C 
ATOM      2  C   UNL     1       2.502   3.876  17.584  0.00  0.00    +0.000 C 
ENDROOT
BRANCH   1   3
ATOM      3  C   UNL     1       2.824   6.010  18.858  0.00  0.00    +0.000 A 
ATOM      4  C   UNL     1       2.798   7.081  17.953  0.00  0.00    +0.000 A 
ATOM      5  C   UNL     1       2.149   8.277  18.277  0.00  0.00    +0.000 A 
ATOM      6  C   UNL     1       1.560   8.447  19.539  0.00  0.00    +0.000 A 
ATOM      7  C   UNL     1       1.569   7.390  20.448  0.00  0.00    +0.000 A 
ATOM      8  C   UNL     1       2.186   6.185  20.097  0.00  0.00    +0.000 A 
ATOM      9  F   UNL     1       2.138   5.170  20.971  0.00  0.00    +0.000 F 
BRANCH   6  10
ATOM     10  N   UNL     1       0.970   9.703  19.851  0.00  0.00    +0.000 N 
ATOM     11  N   UNL     1       1.169  10.757  19.013  0.00  0.00    +0.000 NA
ATOM     12  C   UNL     1       0.488  11.766  19.558  0.00  0.00    +0.000 A 
ATOM     13  C   UNL     1       0.433  13.086  18.882  0.00  0.00    +0.000 C 
ATOM     14  C   UNL     1      -0.071  11.412  20.809  0.00  0.00    +0.000 A 
ATOM     15  C   UNL     1      -0.776  12.098  21.816  0.00  0.00    +0.000 A 
ATOM     16  C   UNL     1      -1.113  11.425  22.994  0.00  0.00    +0.000 A 
ATOM     17  C   UNL     1      -0.770  10.087  23.166  0.00  0.00    +0.000 A 
ATOM     18  C   UNL     1      -0.088   9.383  22.169  0.00  0.00    +0.000 A 
ATOM     19  C   UNL     1       0.246  10.063  20.983  0.00  0.00    +0.000 A 
ENDBRANCH   6  10
ENDBRANCH   1   3
BRANCH   1  22
ATOM     20  C   UNL     1       5.834   5.246  18.656  0.00  0.00    +0.000 C 
ATOM     21  O   UNL     1       5.756   5.428  19.863  0.00  0.00    +0.000 OA
ATOM     22  N   UNL     1       4.768   4.827  17.881  0.00  0.00    +0.000 N 
ATOM     23  H   UNL     1       4.871   4.880  16.873  0.00  0.00    +0.000 HD
BRANCH  20  24
ATOM     24  C   UNL     1       7.138   5.537  17.944  0.00  0.00    +0.000 C 
ATOM     25  C   UNL     1       7.465   4.893  16.608  0.00  0.00    +0.000 C 
ATOM     26  C   UNL     1       8.081   4.331  17.847  0.00  0.00    +0.000 C 
BRANCH  24  29
ATOM     27  C   UNL     1       7.426   7.987  17.641  0.00  0.00    +0.000 C 
ATOM     28  O   UNL     1       6.555   8.061  16.777  0.00  0.00    +0.000 OA
ATOM     29  N   UNL     1       7.757   6.803  18.260  0.00  0.00    +0.000 N 
ATOM     30  H   UNL     1       8.427   6.825  19.021  0.00  0.00    +0.000 HD
BRANCH  27  33
ATOM     31  C   UNL     1       9.464  10.636  19.049  0.00  0.00    +0.000 A 
ATOM     32  C   UNL     1       9.057   9.294  19.157  0.00  0.00    +0.000 A 
ATOM     33  C   UNL     1       8.198   9.119  18.091  0.00  0.00    +0.000 A 
ATOM     34  O   UNL     1       8.113  10.297  17.400  0.00  0.00    +0.000 OA
ATOM     35  N   UNL     1       8.909  11.253  18.008  0.00  0.00    +0.000 NA
BRANCH  31  37
ATOM     36  C   UNL     1      11.027  12.354  19.063  0.00  0.00    +0.000 C 
ATOM     37  O   UNL     1      10.299  11.384  19.798  0.00  0.00    +0.000 OA
ENDBRANCH  31  37
ENDBRANCH  27  33
ENDBRANCH  24  29
ENDBRANCH  20  24
ENDBRANCH   1  22
TORSDOF 7
ENDMDL
MODEL 7
REMARK VINA RESULT:      -9.1      2.466      4.489
REMARK  Name = 
REMARK  10 active torsions:
REMARK  status: ('A' for Active; 'I' for Inactive)
REMARK    1  A    between atoms: C_1  and  O_2
REMARK    2  A    between atoms: O_2  and  C_3
REMARK    3  A    between atoms: C_5  and  C_6
REMARK    4  A    between atoms: N_8  and  C_9
REMARK    5  A    between atoms: C_9  and  C_10
REMARK    6  A    between atoms: N_12  and  C_13
REMARK    7  A    between atoms: C_13  and  C_14
REMARK    8  A    between atoms: C_13  and  C_15
REMARK    9  A    between atoms: C_18  and  N_19
REMARK   10  A    between atoms: C_21  and  C_22
REMARK                            x       y       z     vdW  Elec       q    Type
REMARK                         _______ _______ _______ _____ _____    ______ ____
ROOT
ATOM      1  C   UNL     1       3.329   5.876  18.857  0.00  0.00    +0.000 C 
ATOM      2  C   UNL     1       2.419   4.798  18.247  0.00  0.00    +0.000 C 
ENDROOT
BRANCH   1   3
ATOM      3  C   UNL     1       2.589   7.196  18.953  0.00  0.00    +0.000 A 
ATOM      4  C   UNL     1       2.541   8.090  17.873  0.00  0.00    +0.000 A 
ATOM      5  C   UNL     1       1.790   9.267  17.950  0.00  0.00    +0.000 A 
ATOM      6  C   UNL     1       1.114   9.604  19.133  0.00  0.00    +0.000 A 
ATOM      7  C   UNL     1       1.144   8.723  20.214  0.00  0.00    +0.000 A 
ATOM      8  C   UNL     1       1.866   7.529  20.110  0.00  0.00    +0.000 A 
ATOM      9  F   UNL     1       1.837   6.679  21.146  0.00  0.00    +0.000 F 
BRANCH   6  10
ATOM     10  N   UNL     1       0.419  10.843  19.190  0.00  0.00    +0.000 N 
ATOM     11  N   UNL     1      -0.936  10.839  19.324  0.00  0.00    +0.000 NA
ATOM     12  C   UNL     1      -1.283  12.126  19.364  0.00  0.00    +0.000 A 
ATOM     13  C   UNL     1      -2.703  12.515  19.557  0.00  0.00    +0.000 C 
ATOM     14  C   UNL     1      -0.176  12.980  19.149  0.00  0.00    +0.000 A 
ATOM     15  C   UNL     1      -0.001  14.369  19.000  0.00  0.00    +0.000 A 
ATOM     16  C   UNL     1       1.270  14.871  18.709  0.00  0.00    +0.000 A 
ATOM     17  C   UNL     1       2.357  14.011  18.582  0.00  0.00    +0.000 A 
ATOM     18  C   UNL     1       2.208  12.631  18.747  0.00  0.00    +0.000 A 
ATOM     19  C   UNL     1       0.927  12.130  19.044  0.00  0.00    +0.000 A 
ENDBRANCH   6  10
ENDBRANCH   1   3
BRANCH   1  22
ATOM     20  C   UNL     1       5.702   5.311  18.569  0.00  0.00    +0.000 C 
ATOM     21  O   UNL     1       5.685   4.544  19.521  0.00  0.00    +0.000 OA
ATOM     22  N   UNL     1       4.584   5.990  18.119  0.00  0.00    +0.000 N 
ATOM     23  H   UNL     1       4.726   6.737  17.448  0.00  0.00    +0.000 HD
BRANCH  20  24
ATOM     24  C   UNL     1       7.013   5.588  17.862  0.00  0.00    +0.000 C 
ATOM     25  C   UNL     1       7.328   4.960  16.515  0.00  0.00    +0.000 C 
ATOM     26  C   UNL     1       7.932   4.366  17.745  0.00  0.00    +0.000 C 
BRANCH  24  29
ATOM     27  C   UNL     1       7.357   8.034  17.592  0.00  0.00    +0.000 C 
ATOM     28  O   UNL     1       6.496   8.138  16.722  0.00  0.00    +0.000 OA
ATOM     29  N   UNL     1       7.657   6.836  18.200  0.00  0.00    +0.000 N 
ATOM     30  H   UNL     1       8.320   6.833  18.966  0.00  0.00    +0.000 HD
BRANCH  27  33
ATOM     31  C   UNL     1       9.455  10.615  19.041  0.00  0.00    +0.000 A 
ATOM     32  C   UNL     1       9.043   9.270  19.107  0.00  0.00    +0.000 A 
ATOM     33  C   UNL     1       8.150   9.143  18.063  0.00  0.00    +0.000 A 
ATOM     34  O   UNL     1       8.050  10.349  17.424  0.00  0.00    +0.000 OA
ATOM     35  N   UNL     1       8.871  11.276  18.044  0.00  0.00    +0.000 NA
BRANCH  31  37
ATOM     36  C   UNL     1       9.770  11.802  21.012  0.00  0.00    +0.000 C 
ATOM     37  O   UNL     1      10.317  11.327  19.793  0.00  0.00    +0.000 OA
ENDBRANCH  31  37
ENDBRANCH  27  33
ENDBRANCH  24  29
ENDBRANCH  20  24
ENDBRANCH   1  22
TORSDOF 7
ENDMDL
MODEL 8
REMARK VINA RESULT:      -9.0      1.899      2.460
REMARK  Name = 
REMARK  10 active torsions:
REMARK  status: ('A' for Active; 'I' for Inactive)
REMARK    1  A    between atoms: C_1  and  O_2
REMARK    2  A    between atoms: O_2  and  C_3
REMARK    3  A    between atoms: C_5  and  C_6
REMARK    4  A    between atoms: N_8  and  C_9
REMARK    5  A    between atoms: C_9  and  C_10
REMARK    6  A    between atoms: N_12  and  C_13
REMARK    7  A    between atoms: C_13  and  C_14
REMARK    8  A    between atoms: C_13  and  C_15
REMARK    9  A    between atoms: C_18  and  N_19
REMARK   10  A    between atoms: C_21  and  C_22
REMARK                            x       y       z     vdW  Elec       q    Type
REMARK                         _______ _______ _______ _____ _____    ______ ____
ROOT
ATOM      1  C   UNL     1       3.169   5.883  19.309  0.00  0.00    +0.000 C 
ATOM      2  C   UNL     1       2.289   4.669  18.970  0.00  0.00    +0.000 C 
ENDROOT
BRANCH   1   3
ATOM      3  C   UNL     1       2.304   7.093  19.606  0.00  0.00    +0.000 A 
ATOM      4  C   UNL     1       1.692   7.266  20.856  0.00  0.00    +0.000 A 
ATOM      5  C   UNL     1       0.962   8.424  21.142  0.00  0.00    +0.000 A 
ATOM      6  C   UNL     1       0.780   9.411  20.161  0.00  0.00    +0.000 A 
ATOM      7  C   UNL     1       1.388   9.259  18.915  0.00  0.00    +0.000 A 
ATOM      8  C   UNL     1       2.150   8.114  18.655  0.00  0.00    +0.000 A 
ATOM      9  F   UNL     1       2.763   8.017  17.467  0.00  0.00    +0.000 F 
BRANCH   6  10
ATOM     10  N   UNL     1      -0.026  10.540  20.472  0.00  0.00    +0.000 N 
ATOM     11  N   UNL     1       0.239  11.255  21.599  0.00  0.00    +0.000 NA
ATOM     12  C   UNL     1      -0.660  12.241  21.603  0.00  0.00    +0.000 A 
ATOM     13  C   UNL     1      -0.644  13.267  22.675  0.00  0.00    +0.000 C 
ATOM     14  C   UNL     1      -1.586  12.116  20.540  0.00  0.00    +0.000 A 
ATOM     15  C   UNL     1      -2.752  12.801  20.147  0.00  0.00    +0.000 A 
ATOM     16  C   UNL     1      -3.483  12.334  19.051  0.00  0.00    +0.000 A 
ATOM     17  C   UNL     1      -3.058  11.213  18.345  0.00  0.00    +0.000 A 
ATOM     18  C   UNL     1      -1.892  10.531  18.707  0.00  0.00    +0.000 A 
ATOM     19  C   UNL     1      -1.156  11.007  19.808  0.00  0.00    +0.000 A 
ENDBRANCH   6  10
ENDBRANCH   1   3
BRANCH   1  22
ATOM     20  C   UNL     1       5.497   6.067  18.546  0.00  0.00    +0.000 C 
ATOM     21  O   UNL     1       5.931   5.718  19.635  0.00  0.00    +0.000 OA
ATOM     22  N   UNL     1       4.147   6.139  18.255  0.00  0.00    +0.000 N 
ATOM     23  H   UNL     1       3.876   6.610  17.398  0.00  0.00    +0.000 HD
BRANCH  20  24
ATOM     24  C   UNL     1       6.465   6.495  17.463  0.00  0.00    +0.000 C 
ATOM     25  C   UNL     1       7.840   7.039  17.809  0.00  0.00    +0.000 C 
ATOM     26  C   UNL     1       6.757   8.001  17.445  0.00  0.00    +0.000 C 
BRANCH  24  29
ATOM     27  C   UNL     1       7.053   4.819  15.726  0.00  0.00    +0.000 C 
ATOM     28  O   UNL     1       7.948   4.317  16.402  0.00  0.00    +0.000 OA
ATOM     29  N   UNL     1       6.284   5.869  16.175  0.00  0.00    +0.000 N 
ATOM     30  H   UNL     1       5.509   6.183  15.601  0.00  0.00    +0.000 HD
BRANCH  27  33
ATOM     31  C   UNL     1       5.953   3.511  12.526  0.00  0.00    +0.000 A 
ATOM     32  C   UNL     1       5.705   3.573  13.910  0.00  0.00    +0.000 A 
ATOM     33  C   UNL     1       6.717   4.375  14.395  0.00  0.00    +0.000 A 
ATOM     34  O   UNL     1       7.510   4.761  13.348  0.00  0.00    +0.000 OA
ATOM     35  N   UNL     1       7.028   4.212  12.171  0.00  0.00    +0.000 NA
BRANCH  31  37
ATOM     36  C   UNL     1       5.796   1.584  11.240  0.00  0.00    +0.000 C 
ATOM     37  O   UNL     1       5.304   2.883  11.526  0.00  0.00    +0.000 OA
ENDBRANCH  31  37
ENDBRANCH  27  33
ENDBRANCH  24  29
ENDBRANCH  20  24
ENDBRANCH   1  22
TORSDOF 7
ENDMDL
MODEL 9
REMARK VINA RESULT:      -9.0      2.671      4.852
REMARK  Name = 
REMARK  10 active torsions:
REMARK  status: ('A' for Active; 'I' for Inactive)
REMARK    1  A    between atoms: C_1  and  O_2
REMARK    2  A    between atoms: O_2  and  C_3
REMARK    3  A    between atoms: C_5  and  C_6
REMARK    4  A    between atoms: N_8  and  C_9
REMARK    5  A    between atoms: C_9  and  C_10
REMARK    6  A    between atoms: N_12  and  C_13
REMARK    7  A    between atoms: C_13  and  C_14
REMARK    8  A    between atoms: C_13  and  C_15
REMARK    9  A    between atoms: C_18  and  N_19
REMARK   10  A    between atoms: C_21  and  C_22
REMARK                            x       y       z     vdW  Elec       q    Type
REMARK                         _______ _______ _______ _____ _____    ______ ____
ROOT
ATOM      1  C   UNL     1       3.439   5.360  18.976  0.00  0.00    +0.000 C 
ATOM      2  C   UNL     1       2.499   4.307  18.368  0.00  0.00    +0.000 C 
ENDROOT
BRANCH   1   3
ATOM      3  C   UNL     1       2.701   6.670  19.178  0.00  0.00    +0.000 A 
ATOM      4  C   UNL     1       2.673   7.656  18.181  0.00  0.00    +0.000 A 
ATOM      5  C   UNL     1       1.924   8.825  18.351  0.00  0.00    +0.000 A 
ATOM      6  C   UNL     1       1.232   9.058  19.548  0.00  0.00    +0.000 A 
ATOM      7  C   UNL     1       1.242   8.085  20.547  0.00  0.00    +0.000 A 
ATOM      8  C   UNL     1       1.962   6.902  20.349  0.00  0.00    +0.000 A 
ATOM      9  F   UNL     1       1.915   5.964  21.305  0.00  0.00    +0.000 F 
BRANCH   6  10
ATOM     10  N   UNL     1       0.539  10.290  19.705  0.00  0.00    +0.000 N 
ATOM     11  N   UNL     1       1.031  11.226  20.562  0.00  0.00    +0.000 NA
ATOM     12  C   UNL     1       0.186  12.254  20.476  0.00  0.00    +0.000 A 
ATOM     13  C   UNL     1       0.435  13.498  21.246  0.00  0.00    +0.000 C 
ATOM     14  C   UNL     1      -0.922  11.959  19.646  0.00  0.00    +0.000 A 
ATOM     15  C   UNL     1      -2.113  12.625  19.299  0.00  0.00    +0.000 A 
ATOM     16  C   UNL     1      -3.048  11.975  18.488  0.00  0.00    +0.000 A 
ATOM     17  C   UNL     1      -2.801  10.690  18.016  0.00  0.00    +0.000 A 
ATOM     18  C   UNL     1      -1.616  10.020  18.333  0.00  0.00    +0.000 A 
ATOM     19  C   UNL     1      -0.675  10.679  19.146  0.00  0.00    +0.000 A 
ENDBRANCH   6  10
ENDBRANCH   1   3
BRANCH   1  22
ATOM     20  C   UNL     1       5.881   5.246  18.740  0.00  0.00    +0.000 C 
ATOM     21  O   UNL     1       6.018   4.801  19.870  0.00  0.00    +0.000 OA
ATOM     22  N   UNL     1       4.649   5.517  18.173  0.00  0.00    +0.000 N 
ATOM     23  H   UNL     1       4.635   6.052  17.312  0.00  0.00    +0.000 HD
BRANCH  20  24
ATOM     24  C   UNL     1       7.110   5.576  17.918  0.00  0.00    +0.000 C 
ATOM     25  C   UNL     1       7.312   4.984  16.534  0.00  0.00    +0.000 C 
ATOM     26  C   UNL     1       8.047   4.384  17.687  0.00  0.00    +0.000 C 
BRANCH  24  29
ATOM     27  C   UNL     1       7.375   8.033  17.654  0.00  0.00    +0.000 C 
ATOM     28  O   UNL     1       6.447   8.125  16.855  0.00  0.00    +0.000 OA
ATOM     29  N   UNL     1       7.749   6.835  18.221  0.00  0.00    +0.000 N 
ATOM     30  H   UNL     1       8.470   6.840  18.934  0.00  0.00    +0.000 HD
BRANCH  27  33
ATOM     31  C   UNL     1       9.525  10.644  18.964  0.00  0.00    +0.000 A 
ATOM     32  C   UNL     1       9.165   9.286  19.030  0.00  0.00    +0.000 A 
ATOM     33  C   UNL     1       8.176   9.156  18.077  0.00  0.00    +0.000 A 
ATOM     34  O   UNL     1       7.974  10.373  17.487  0.00  0.00    +0.000 OA
ATOM     35  N   UNL     1       8.823  11.311  18.050  0.00  0.00    +0.000 NA
BRANCH  31  37
ATOM     36  C   UNL     1      10.490  12.733  19.275  0.00  0.00    +0.000 C 
ATOM     37  O   UNL     1      10.435  11.366  19.647  0.00  0.00    +0.000 OA
ENDBRANCH  31  37
ENDBRANCH  27  33
ENDBRANCH  24  29
ENDBRANCH  20  24
ENDBRANCH   1  22
TORSDOF 7
ENDMDL
