MODEL 1
REMARK VINA RESULT:      -8.4      0.000      0.000
REMARK  Name = 
REMARK  12 active torsions:
REMARK  status: ('A' for Active; 'I' for Inactive)
REMARK    1  A    between atoms: C_1  and  C_2
REMARK    2  A    between atoms: C_2  and  C_3
REMARK    3  A    between atoms: C_3  and  C_4
REMARK    4  A    between atoms: C_4  and  C_5
REMARK    5  A    between atoms: N_7  and  C_8
REMARK    6  A    between atoms: C_8  and  C_9
REMARK    7  A    between atoms: C_9  and  C_10
REMARK    8  A    between atoms: C_10  and  C_11
REMARK    9  A    between atoms: N_14  and  C_15
REMARK   10  A    between atoms: C_15  and  C_16
REMARK   11  A    between atoms: C_19  and  C_20
REMARK   12  A    between atoms: C_25  and  C_26
REMARK                            x       y       z     vdW  Elec       q    Type
REMARK                         _______ _______ _______ _____ _____    ______ ____
ROOT
ATOM      1  C   UNL     1       2.743   7.265  19.307  0.00  0.00    +0.000 A 
ATOM      2  C   UNL     1       2.596   7.955  18.101  0.00  0.00    +0.000 A 
ATOM      3  C   UNL     1       1.643   8.971  17.971  0.00  0.00    +0.000 A 
ATOM      4  C   UNL     1       0.828   9.372  19.047  0.00  0.00    +0.000 A 
ATOM      5  C   UNL     1       1.031   8.710  20.271  0.00  0.00    +0.000 A 
ATOM      6  C   UNL     1       1.964   7.668  20.399  0.00  0.00    +0.000 A 
ENDROOT
BRANCH   4   7
ATOM      7  C   UNL     1      -0.260  10.379  18.860  0.00  0.00    +0.000 A 
ATOM      8  C   UNL     1      -1.533   9.928  18.430  0.00  0.00    +0.000 A 
ATOM      9  C   UNL     1      -2.556  10.810  18.069  0.00  0.00    +0.000 A 
ATOM     10  C   UNL     1      -2.325  12.176  18.084  0.00  0.00    +0.000 A 
ATOM     11  C   UNL     1      -1.102  12.657  18.546  0.00  0.00    +0.000 A 
ATOM     12  C   UNL     1      -0.088  11.780  18.996  0.00  0.00    +0.000 A 
BRANCH  12  13
ATOM     13  C   UNL     1       1.062  12.378  19.674  0.00  0.00    +0.000 A 
ATOM     14  N   UNL     1       1.182  12.432  21.047  0.00  0.00    +0.000 NA
ATOM     15  N   UNL     1       2.295  13.100  21.313  0.00  0.00    +0.000 NA
ATOM     16  N   UNL     1       2.763  13.459  20.118  0.00  0.00    +0.000 N 
ATOM     17  N   UNL     1       2.063  13.037  19.054  0.00  0.00    +0.000 NA
ATOM     18  H   UNL     1       3.591  14.040  20.024  0.00  0.00    +0.000 HD
ENDBRANCH  12  13
ENDBRANCH   4   7
BRANCH   1  19
ATOM     19  C   UNL     1       3.608   6.034  19.376  0.00  0.00    +0.000 C 
BRANCH  19  25
ATOM     20  C   UNL     1       2.999   4.199  17.648  0.00  0.00    +0.000 A 
ATOM     21  C   UNL     1       3.734   3.542  16.737  0.00  0.00    +0.000 A 
ATOM     22  N   UNL     1       4.989   4.089  16.681  0.00  0.00    +0.000 N 
ATOM     23  C   UNL     1       5.084   5.117  17.632  0.00  0.00    +0.000 A 
ATOM     24  O   UNL     1       6.063   5.805  17.889  0.00  0.00    +0.000 OA
ATOM     25  N   UNL     1       3.790   5.188  18.222  0.00  0.00    +0.000 N 
BRANCH  20  26
ATOM     26  C   UNL     1       1.544   3.970  17.862  0.00  0.00    +0.000 C 
BRANCH  26  27
ATOM     27  C   UNL     1       1.282   3.063  19.075  0.00  0.00    +0.000 C 
BRANCH  27  29
ATOM     28  C   UNL     1       1.903   3.497  21.478  0.00  0.00    +0.000 C 
ATOM     29  C   UNL     1       0.937   3.829  20.357  0.00  0.00    +0.000 C 
ENDBRANCH  27  29
ENDBRANCH  26  27
ENDBRANCH  20  26
BRANCH  22  30
ATOM     30  C   UNL     1       5.997   3.779  15.694  0.00  0.00    +0.000 C 
BRANCH  30  31
ATOM     31  C   UNL     1       5.798   4.533  14.373  0.00  0.00    +0.000 C 
BRANCH  31  32
ATOM     32  C   UNL     1       5.790   3.615  13.146  0.00  0.00    +0.000 C 
ATOM     33  C   UNL     1       6.948   3.935  12.211  0.00  0.00    +0.000 C 
ENDBRANCH  31  32
ENDBRANCH  30  31
ENDBRANCH  22  30
ENDBRANCH  19  25
ENDBRANCH   1  19
TORSDOF 10
ENDMDL
MODEL 2
REMARK VINA RESULT:      -8.1      2.100      2.828
REMARK  Name = 
REMARK  12 active torsions:
REMARK  status: ('A' for Active; 'I' for Inactive)
REMARK    1  A    between atoms: C_1  and  C_2
REMARK    2  A    between atoms: C_2  and  C_3
REMARK    3  A    between atoms: C_3  and  C_4
REMARK    4  A    between atoms: C_4  and  C_5
REMARK    5  A    between atoms: N_7  and  C_8
REMARK    6  A    between atoms: C_8  and  C_9
REMARK    7  A    between atoms: C_9  and  C_10
REMARK    8  A    between atoms: C_10  and  C_11
REMARK    9  A    between atoms: N_14  and  C_15
REMARK   10  A    between atoms: C_15  and  C_16
REMARK   11  A    between atoms: C_19  and  C_20
REMARK   12  A    between atoms: C_25  and  C_26
REMARK                            x       y       z     vdW  Elec       q    Type
REMARK                         _______ _______ _______ _____ _____    ______ ____
ROOT
ATOM      1  C   UNL     1       2.261   7.456  19.245  0.00  0.00    +0.000 A 
ATOM      2  C   UNL     1       1.582   8.101  20.281  0.00  0.00    +0.000 A 
ATOM      3  C   UNL     1       1.100   9.405  20.117  0.00  0.00    +0.000 A 
ATOM      4  C   UNL     1       1.234  10.102  18.901  0.00  0.00    +0.000 A 
ATOM      5  C   UNL     1       1.864   9.416  17.848  0.00  0.00    +0.000 A 
ATOM      6  C   UNL     1       2.379   8.120  18.017  0.00  0.00    +0.000 A 
ENDROOT
BRANCH   4   7
ATOM      7  C   UNL     1       0.815  11.531  18.780  0.00  0.00    +0.000 A 
ATOM      8  C   UNL     1       1.781  12.542  19.008  0.00  0.00    +0.000 A 
ATOM      9  C   UNL     1       1.444  13.897  19.080  0.00  0.00    +0.000 A 
ATOM     10  C   UNL     1       0.118  14.283  18.971  0.00  0.00    +0.000 A 
ATOM     11  C   UNL     1      -0.854  13.322  18.700  0.00  0.00    +0.000 A 
ATOM     12  C   UNL     1      -0.515  11.958  18.538  0.00  0.00    +0.000 A 
BRANCH  12  13
ATOM     13  C   UNL     1      -1.558  11.066  18.029  0.00  0.00    +0.000 A 
ATOM     14  N   UNL     1      -2.849  11.066  18.513  0.00  0.00    +0.000 NA
ATOM     15  N   UNL     1      -3.497  10.094  17.888  0.00  0.00    +0.000 NA
ATOM     16  N   UNL     1      -2.577   9.526  17.108  0.00  0.00    +0.000 N 
ATOM     17  N   UNL     1      -1.355  10.082  17.130  0.00  0.00    +0.000 NA
ATOM     18  H   UNL     1      -2.788   8.705  16.548  0.00  0.00    +0.000 HD
ENDBRANCH  12  13
ENDBRANCH   4   7
BRANCH   1  19
ATOM     19  C   UNL     1       2.966   6.150  19.497  0.00  0.00    +0.000 C 
BRANCH  19  25
ATOM     20  C   UNL     1       2.663   4.161  17.861  0.00  0.00    +0.000 A 
ATOM     21  C   UNL     1       3.515   3.542  17.029  0.00  0.00    +0.000 A 
ATOM     22  N   UNL     1       4.701   4.226  16.998  0.00  0.00    +0.000 N 
ATOM     23  C   UNL     1       4.629   5.311  17.885  0.00  0.00    +0.000 A 
ATOM     24  O   UNL     1       5.509   6.122  18.145  0.00  0.00    +0.000 OA
ATOM     25  N   UNL     1       3.305   5.266  18.408  0.00  0.00    +0.000 N 
BRANCH  20  26
ATOM     26  C   UNL     1       1.234   3.777  18.021  0.00  0.00    +0.000 C 
BRANCH  26  27
ATOM     27  C   UNL     1       1.046   2.719  19.119  0.00  0.00    +0.000 C 
BRANCH  27  29
ATOM     28  C   UNL     1       2.134   2.899  21.384  0.00  0.00    +0.000 C 
ATOM     29  C   UNL     1       0.946   3.304  20.532  0.00  0.00    +0.000 C 
ENDBRANCH  27  29
ENDBRANCH  26  27
ENDBRANCH  20  26
BRANCH  22  30
ATOM     30  C   UNL     1       5.790   3.980  16.081  0.00  0.00    +0.000 C 
BRANCH  30  31
ATOM     31  C   UNL     1       5.660   4.761  14.768  0.00  0.00    +0.000 C 
BRANCH  31  32
ATOM     32  C   UNL     1       5.356   3.871  13.558  0.00  0.00    +0.000 C 
ATOM     33  C   UNL     1       6.568   3.747  12.647  0.00  0.00    +0.000 C 
ENDBRANCH  31  32
ENDBRANCH  30  31
ENDBRANCH  22  30
ENDBRANCH  19  25
ENDBRANCH   1  19
TORSDOF 10
ENDMDL
MODEL 3
REMARK VINA RESULT:      -8.1      2.621      8.890
REMARK  Name = 
REMARK  12 active torsions:
REMARK  status: ('A' for Active; 'I' for Inactive)
REMARK    1  A    between atoms: C_1  and  C_2
REMARK    2  A    between atoms: C_2  and  C_3
REMARK    3  A    between atoms: C_3  and  C_4
REMARK    4  A    between atoms: C_4  and  C_5
REMARK    5  A    between atoms: N_7  and  C_8
REMARK    6  A    between atoms: C_8  and  C_9
REMARK    7  A    between atoms: C_9  and  C_10
REMARK    8  A    between atoms: C_10  and  C_11
REMARK    9  A    between atoms: N_14  and  C_15
REMARK   10  A    between atoms: C_15  and  C_16
REMARK   11  A    between atoms: C_19  and  C_20
REMARK   12  A    between atoms: C_25  and  C_26
REMARK                            x       y       z     vdW  Elec       q    Type
REMARK                         _______ _______ _______ _____ _____    ______ ____
ROOT
ATOM      1  C   UNL     1       1.108   9.007  19.772  0.00  0.00    +0.000 A 
ATOM      2  C   UNL     1       1.399   9.159  18.414  0.00  0.00    +0.000 A 
ATOM      3  C   UNL     1       2.235   8.250  17.756  0.00  0.00    +0.000 A 
ATOM      4  C   UNL     1       2.778   7.127  18.410  0.00  0.00    +0.000 A 
ATOM      5  C   UNL     1       2.425   6.954  19.760  0.00  0.00    +0.000 A 
ATOM      6  C   UNL     1       1.614   7.881  20.434  0.00  0.00    +0.000 A 
ENDROOT
BRANCH   4   7
ATOM      7  C   UNL     1       3.757   6.231  17.723  0.00  0.00    +0.000 A 
ATOM      8  C   UNL     1       4.943   6.801  17.198  0.00  0.00    +0.000 A 
ATOM      9  C   UNL     1       5.831   6.074  16.399  0.00  0.00    +0.000 A 
ATOM     10  C   UNL     1       5.538   4.763  16.060  0.00  0.00    +0.000 A 
ATOM     11  C   UNL     1       4.405   4.156  16.596  0.00  0.00    +0.000 A 
ATOM     12  C   UNL     1       3.543   4.852  17.476  0.00  0.00    +0.000 A 
BRANCH  12  13
ATOM     13  C   UNL     1       2.517   4.068  18.165  0.00  0.00    +0.000 A 
ATOM     14  N   UNL     1       2.746   3.411  19.356  0.00  0.00    +0.000 NA
ATOM     15  N   UNL     1       1.637   2.749  19.652  0.00  0.00    +0.000 NA
ATOM     16  N   UNL     1       0.821   2.987  18.625  0.00  0.00    +0.000 N 
ATOM     17  N   UNL     1       1.289   3.807  17.672  0.00  0.00    +0.000 NA
ATOM     18  H   UNL     1      -0.094   2.551  18.561  0.00  0.00    +0.000 HD
ENDBRANCH  12  13
ENDBRANCH   4   7
BRANCH   1  19
ATOM     19  C   UNL     1       0.396  10.100  20.523  0.00  0.00    +0.000 C 
BRANCH  19  25
ATOM     20  C   UNL     1      -0.867  11.697  18.917  0.00  0.00    +0.000 A 
ATOM     21  C   UNL     1      -0.594  12.936  18.480  0.00  0.00    +0.000 A 
ATOM     22  N   UNL     1       0.496  13.426  19.151  0.00  0.00    +0.000 N 
ATOM     23  C   UNL     1       0.975  12.443  20.029  0.00  0.00    +0.000 A 
ATOM     24  O   UNL     1       1.951  12.512  20.765  0.00  0.00    +0.000 OA
ATOM     25  N   UNL     1       0.071  11.352  19.882  0.00  0.00    +0.000 N 
BRANCH  20  26
ATOM     26  C   UNL     1      -2.074  10.924  18.514  0.00  0.00    +0.000 C 
BRANCH  26  27
ATOM     27  C   UNL     1      -1.896  10.263  17.139  0.00  0.00    +0.000 C 
BRANCH  27  29
ATOM     28  C   UNL     1      -2.892  10.029  14.836  0.00  0.00    +0.000 C 
ATOM     29  C   UNL     1      -2.667  10.960  16.013  0.00  0.00    +0.000 C 
ENDBRANCH  27  29
ENDBRANCH  26  27
ENDBRANCH  20  26
BRANCH  22  30
ATOM     30  C   UNL     1       0.974  14.789  19.095  0.00  0.00    +0.000 C 
BRANCH  30  31
ATOM     31  C   UNL     1       2.338  14.920  18.408  0.00  0.00    +0.000 C 
BRANCH  31  32
ATOM     32  C   UNL     1       2.911  16.340  18.461  0.00  0.00    +0.000 C 
ATOM     33  C   UNL     1       2.541  17.132  17.215  0.00  0.00    +0.000 C 
ENDBRANCH  31  32
ENDBRANCH  30  31
ENDBRANCH  22  30
ENDBRANCH  19  25
ENDBRANCH   1  19
TORSDOF 10
ENDMDL
MODEL 4
REMARK VINA RESULT:      -8.1      2.872      4.872
REMARK  Name = 
REMARK  12 active torsions:
REMARK  status: ('A' for Active; 'I' for Inactive)
REMARK    1  A    between atoms: C_1  and  C_2
REMARK    2  A    between atoms: C_2  and  C_3
REMARK    3  A    between atoms: C_3  and  C_4
REMARK    4  A    between atoms: C_4  and  C_5
REMARK    5  A    between atoms: N_7  and  C_8
REMARK    6  A    between atoms: C_8  and  C_9
REMARK    7  A    between atoms: C_9  and  C_10
REMARK    8  A    between atoms: C_10  and  C_11
REMARK    9  A    between atoms: N_14  and  C_15
REMARK   10  A    between atoms: C_15  and  C_16
REMARK   11  A    between atoms: C_19  and  C_20
REMARK   12  A    between atoms: C_25  and  C_26
REMARK                            x       y       z     vdW  Elec       q    Type
REMARK                         _______ _______ _______ _____ _____    ______ ____
ROOT
ATOM      1  C   UNL     1       2.427   7.883  18.399  0.00  0.00    +0.000 A 
ATOM      2  C   UNL     1       1.976   7.752  19.714  0.00  0.00    +0.000 A 
ATOM      3  C   UNL     1       1.132   8.714  20.279  0.00  0.00    +0.000 A 
ATOM      4  C   UNL     1       0.666   9.821  19.544  0.00  0.00    +0.000 A 
ATOM      5  C   UNL     1       1.079   9.906  18.203  0.00  0.00    +0.000 A 
ATOM      6  C   UNL     1       1.952   8.961  17.640  0.00  0.00    +0.000 A 
ENDROOT
BRANCH   4   7
ATOM      7  C   UNL     1      -0.142  10.896  20.196  0.00  0.00    +0.000 A 
ATOM      8  C   UNL     1       0.312  11.434  21.425  0.00  0.00    +0.000 A 
ATOM      9  C   UNL     1      -0.459  12.318  22.186  0.00  0.00    +0.000 A 
ATOM     10  C   UNL     1      -1.734  12.659  21.763  0.00  0.00    +0.000 A 
ATOM     11  C   UNL     1      -2.196  12.187  20.536  0.00  0.00    +0.000 A 
ATOM     12  C   UNL     1      -1.392  11.362  19.715  0.00  0.00    +0.000 A 
BRANCH  12  13
ATOM     13  C   UNL     1      -1.866  11.109  18.354  0.00  0.00    +0.000 A 
ATOM     14  N   UNL     1      -2.399   9.901  17.955  0.00  0.00    +0.000 NA
ATOM     15  N   UNL     1      -2.649   9.997  16.658  0.00  0.00    +0.000 NA
ATOM     16  N   UNL     1      -2.219  11.214  16.324  0.00  0.00    +0.000 N 
ATOM     17  N   UNL     1      -1.735  11.968  17.322  0.00  0.00    +0.000 NA
ATOM     18  H   UNL     1      -2.238  11.538  15.361  0.00  0.00    +0.000 HD
ENDBRANCH  12  13
ENDBRANCH   4   7
BRANCH   1  19
ATOM     19  C   UNL     1       3.504   6.972  17.871  0.00  0.00    +0.000 C 
BRANCH  19  25
ATOM     20  C   UNL     1       4.681   4.872  18.834  0.00  0.00    +0.000 A 
ATOM     21  C   UNL     1       4.322   3.579  18.879  0.00  0.00    +0.000 A 
ATOM     22  N   UNL     1       3.032   3.449  18.435  0.00  0.00    +0.000 N 
ATOM     23  C   UNL     1       2.552   4.707  18.043  0.00  0.00    +0.000 A 
ATOM     24  O   UNL     1       1.456   4.971  17.566  0.00  0.00    +0.000 OA
ATOM     25  N   UNL     1       3.615   5.609  18.332  0.00  0.00    +0.000 N 
BRANCH  20  26
ATOM     26  C   UNL     1       5.961   5.396  19.384  0.00  0.00    +0.000 C 
BRANCH  26  27
ATOM     27  C   UNL     1       7.032   5.547  18.292  0.00  0.00    +0.000 C 
BRANCH  27  29
ATOM     28  C   UNL     1       7.664   7.873  17.556  0.00  0.00    +0.000 C 
ATOM     29  C   UNL     1       7.975   6.735  18.510  0.00  0.00    +0.000 C 
ENDBRANCH  27  29
ENDBRANCH  26  27
ENDBRANCH  20  26
BRANCH  22  30
ATOM     30  C   UNL     1       2.234   2.247  18.515  0.00  0.00    +0.000 C 
BRANCH  30  31
ATOM     31  C   UNL     1       0.907   2.454  19.254  0.00  0.00    +0.000 C 
BRANCH  31  32
ATOM     32  C   UNL     1       1.050   3.267  20.546  0.00  0.00    +0.000 C 
ATOM     33  C   UNL     1       1.807   2.484  21.609  0.00  0.00    +0.000 C 
ENDBRANCH  31  32
ENDBRANCH  30  31
ENDBRANCH  22  30
ENDBRANCH  19  25
ENDBRANCH   1  19
TORSDOF 10
ENDMDL
MODEL 5
REMARK VINA RESULT:      -7.9      2.958      9.033
REMARK  Name = 
REMARK  12 active torsions:
REMARK  status: ('A' for Active; 'I' for Inactive)
REMARK    1  A    between atoms: C_1  and  C_2
REMARK    2  A    between atoms: C_2  and  C_3
REMARK    3  A    between atoms: C_3  and  C_4
REMARK    4  A    between atoms: C_4  and  C_5
REMARK    5  A    between atoms: N_7  and  C_8
REMARK    6  A    between atoms: C_8  and  C_9
REMARK    7  A    between atoms: C_9  and  C_10
REMARK    8  A    between atoms: C_10  and  C_11
REMARK    9  A    between atoms: N_14  and  C_15
REMARK   10  A    between atoms: C_15  and  C_16
REMARK   11  A    between atoms: C_19  and  C_20
REMARK   12  A    between atoms: C_25  and  C_26
REMARK                            x       y       z     vdW  Elec       q    Type
REMARK                         _______ _______ _______ _____ _____    ______ ____
ROOT
ATOM      1  C   UNL     1       1.697   8.996  18.808  0.00  0.00    +0.000 A 
ATOM      2  C   UNL     1       1.533   8.587  20.133  0.00  0.00    +0.000 A 
ATOM      3  C   UNL     1       1.746   7.254  20.500  0.00  0.00    +0.000 A 
ATOM      4  C   UNL     1       2.175   6.284  19.573  0.00  0.00    +0.000 A 
ATOM      5  C   UNL     1       2.396   6.726  18.257  0.00  0.00    +0.000 A 
ATOM      6  C   UNL     1       2.152   8.055  17.875  0.00  0.00    +0.000 A 
ENDROOT
BRANCH   4   7
ATOM      7  C   UNL     1       2.289   4.844  19.957  0.00  0.00    +0.000 A 
ATOM      8  C   UNL     1       1.162   4.206  20.532  0.00  0.00    +0.000 A 
ATOM      9  C   UNL     1       1.228   2.918  21.072  0.00  0.00    +0.000 A 
ATOM     10  C   UNL     1       2.436   2.242  21.096  0.00  0.00    +0.000 A 
ATOM     11  C   UNL     1       3.555   2.818  20.498  0.00  0.00    +0.000 A 
ATOM     12  C   UNL     1       3.483   4.084  19.871  0.00  0.00    +0.000 A 
BRANCH  12  13
ATOM     13  C   UNL     1       4.637   4.502  19.074  0.00  0.00    +0.000 A 
ATOM     14  N   UNL     1       5.612   5.353  19.551  0.00  0.00    +0.000 NA
ATOM     15  N   UNL     1       6.454   5.575  18.553  0.00  0.00    +0.000 NA
ATOM     16  N   UNL     1       5.937   4.905  17.523  0.00  0.00    +0.000 N 
ATOM     17  N   UNL     1       4.820   4.204  17.771  0.00  0.00    +0.000 NA
ATOM     18  H   UNL     1       6.356   4.946  16.598  0.00  0.00    +0.000 HD
ENDBRANCH  12  13
ENDBRANCH   4   7
BRANCH   1  19
ATOM     19  C   UNL     1       1.254  10.370  18.378  0.00  0.00    +0.000 C 
BRANCH  19  25
ATOM     20  C   UNL     1      -1.235  11.035  18.671  0.00  0.00    +0.000 A 
ATOM     21  C   UNL     1      -1.833  11.980  19.413  0.00  0.00    +0.000 A 
ATOM     22  N   UNL     1      -0.908  12.568  20.235  0.00  0.00    +0.000 N 
ATOM     23  C   UNL     1       0.353  12.010  19.980  0.00  0.00    +0.000 A 
ATOM     24  O   UNL     1       1.421  12.311  20.499  0.00  0.00    +0.000 OA
ATOM     25  N   UNL     1       0.117  11.011  18.993  0.00  0.00    +0.000 N 
BRANCH  20  26
ATOM     26  C   UNL     1      -1.967  10.095  17.779  0.00  0.00    +0.000 C 
BRANCH  26  27
ATOM     27  C   UNL     1      -2.335  10.750  16.438  0.00  0.00    +0.000 C 
BRANCH  27  29
ATOM     28  C   UNL     1      -4.647  11.624  16.928  0.00  0.00    +0.000 C 
ATOM     29  C   UNL     1      -3.826  10.659  16.094  0.00  0.00    +0.000 C 
ENDBRANCH  27  29
ENDBRANCH  26  27
ENDBRANCH  20  26
BRANCH  22  30
ATOM     30  C   UNL     1      -1.203  13.490  21.308  0.00  0.00    +0.000 C 
BRANCH  30  31
ATOM     31  C   UNL     1      -0.946  12.896  22.699  0.00  0.00    +0.000 C 
BRANCH  31  32
ATOM     32  C   UNL     1      -1.789  11.650  22.992  0.00  0.00    +0.000 C 
ATOM     33  C   UNL     1      -0.917  10.408  23.103  0.00  0.00    +0.000 C 
ENDBRANCH  31  32
ENDBRANCH  30  31
ENDBRANCH  22  30
ENDBRANCH  19  25
ENDBRANCH   1  19
TORSDOF 10
ENDMDL
MODEL 6
REMARK VINA RESULT:      -7.8      2.478      8.897
REMARK  Name = 
REMARK  12 active torsions:
REMARK  status: ('A' for Active; 'I' for Inactive)
REMARK    1  A    between atoms: C_1  and  C_2
REMARK    2  A    between atoms: C_2  and  C_3
REMARK    3  A    between atoms: C_3  and  C_4
REMARK    4  A    between atoms: C_4  and  C_5
REMARK    5  A    between atoms: N_7  and  C_8
REMARK    6  A    between atoms: C_8  and  C_9
REMARK    7  A    between atoms: C_9  and  C_10
REMARK    8  A    between atoms: C_10  and  C_11
REMARK    9  A    between atoms: N_14  and  C_15
REMARK   10  A    between atoms: C_15  and  C_16
REMARK   11  A    between atoms: C_19  and  C_20
REMARK   12  A    between atoms: C_25  and  C_26
REMARK                            x       y       z     vdW  Elec       q    Type
REMARK                         _______ _______ _______ _____ _____    ______ ____
ROOT
ATOM      1  C   UNL     1       1.215   8.759  19.691  0.00  0.00    +0.000 A 
ATOM      2  C   UNL     1       1.768   7.642  20.321  0.00  0.00    +0.000 A 
ATOM      3  C   UNL     1       2.667   6.811  19.644  0.00  0.00    +0.000 A 
ATOM      4  C   UNL     1       3.089   7.084  18.328  0.00  0.00    +0.000 A 
ATOM      5  C   UNL     1       2.572   8.246  17.730  0.00  0.00    +0.000 A 
ATOM      6  C   UNL     1       1.644   9.066  18.393  0.00  0.00    +0.000 A 
ENDROOT
BRANCH   4   7
ATOM      7  C   UNL     1       3.961   6.127  17.582  0.00  0.00    +0.000 A 
ATOM      8  C   UNL     1       5.139   6.622  16.969  0.00  0.00    +0.000 A 
ATOM      9  C   UNL     1       5.923   5.839  16.116  0.00  0.00    +0.000 A 
ATOM     10  C   UNL     1       5.529   4.546  15.811  0.00  0.00    +0.000 A 
ATOM     11  C   UNL     1       4.402   4.010  16.432  0.00  0.00    +0.000 A 
ATOM     12  C   UNL     1       3.649   4.761  17.364  0.00  0.00    +0.000 A 
BRANCH  12  13
ATOM     13  C   UNL     1       2.630   4.045  18.132  0.00  0.00    +0.000 A 
ATOM     14  N   UNL     1       2.914   3.336  19.280  0.00  0.00    +0.000 NA
ATOM     15  N   UNL     1       1.786   2.759  19.667  0.00  0.00    +0.000 NA
ATOM     16  N   UNL     1       0.900   3.092  18.729  0.00  0.00    +0.000 N 
ATOM     17  N   UNL     1       1.344   3.899  17.753  0.00  0.00    +0.000 NA
ATOM     18  H   UNL     1      -0.051   2.734  18.745  0.00  0.00    +0.000 HD
ENDBRANCH  12  13
ENDBRANCH   4   7
BRANCH   1  19
ATOM     19  C   UNL     1       0.088   9.517  20.340  0.00  0.00    +0.000 C 
BRANCH  19  25
ATOM     20  C   UNL     1      -1.093  11.066  18.629  0.00  0.00    +0.000 A 
ATOM     21  C   UNL     1      -1.065  12.397  18.450  0.00  0.00    +0.000 A 
ATOM     22  N   UNL     1      -0.371  12.980  19.476  0.00  0.00    +0.000 N 
ATOM     23  C   UNL     1       0.110  11.979  20.333  0.00  0.00    +0.000 A 
ATOM     24  O   UNL     1       0.799  12.124  21.335  0.00  0.00    +0.000 OA
ATOM     25  N   UNL     1      -0.386  10.762  19.787  0.00  0.00    +0.000 N 
BRANCH  20  26
ATOM     26  C   UNL     1      -1.890  10.133  17.787  0.00  0.00    +0.000 C 
BRANCH  26  27
ATOM     27  C   UNL     1      -3.364  10.559  17.700  0.00  0.00    +0.000 C 
BRANCH  27  29
ATOM     28  C   UNL     1      -2.862  10.417  15.235  0.00  0.00    +0.000 C 
ATOM     29  C   UNL     1      -3.811  10.957  16.289  0.00  0.00    +0.000 C 
ENDBRANCH  27  29
ENDBRANCH  26  27
ENDBRANCH  20  26
BRANCH  22  30
ATOM     30  C   UNL     1      -0.288  14.400  19.734  0.00  0.00    +0.000 C 
BRANCH  30  31
ATOM     31  C   UNL     1       0.699  15.123  18.810  0.00  0.00    +0.000 C 
BRANCH  31  32
ATOM     32  C   UNL     1       2.165  14.914  19.204  0.00  0.00    +0.000 C 
ATOM     33  C   UNL     1       3.063  14.857  17.977  0.00  0.00    +0.000 C 
ENDBRANCH  31  32
ENDBRANCH  30  31
ENDBRANCH  22  30
ENDBRANCH  19  25
ENDBRANCH   1  19
TORSDOF 10
ENDMDL
MODEL 7
REMARK VINA RESULT:      -7.8      2.573      9.204
REMARK  Name = 
REMARK  12 active torsions:
REMARK  status: ('A' for Active; 'I' for Inactive)
REMARK    1  A    between atoms: C_1  and  C_2
REMARK    2  A    between atoms: C_2  and  C_3
REMARK    3  A    between atoms: C_3  and  C_4
REMARK    4  A    between atoms: C_4  and  C_5
REMARK    5  A    between atoms: N_7  and  C_8
REMARK    6  A    between atoms: C_8  and  C_9
REMARK    7  A    between atoms: C_9  and  C_10
REMARK    8  A    between atoms: C_10  and  C_11
REMARK    9  A    between atoms: N_14  and  C_15
REMARK   10  A    between atoms: C_15  and  C_16
REMARK   11  A    between atoms: C_19  and  C_20
REMARK   12  A    between atoms: C_25  and  C_26
REMARK                            x       y       z     vdW  Elec       q    Type
REMARK                         _______ _______ _______ _____ _____    ______ ____
ROOT
ATOM      1  C   UNL     1       1.243   8.808  19.730  0.00  0.00    +0.000 A 
ATOM      2  C   UNL     1       1.582   9.034  18.394  0.00  0.00    +0.000 A 
ATOM      3  C   UNL     1       2.442   8.162  17.717  0.00  0.00    +0.000 A 
ATOM      4  C   UNL     1       2.964   7.006  18.328  0.00  0.00    +0.000 A 
ATOM      5  C   UNL     1       2.564   6.760  19.653  0.00  0.00    +0.000 A 
ATOM      6  C   UNL     1       1.727   7.648  20.348  0.00  0.00    +0.000 A 
ENDROOT
BRANCH   4   7
ATOM      7  C   UNL     1       3.968   6.148  17.629  0.00  0.00    +0.000 A 
ATOM      8  C   UNL     1       5.169   6.746  17.174  0.00  0.00    +0.000 A 
ATOM      9  C   UNL     1       6.086   6.063  16.369  0.00  0.00    +0.000 A 
ATOM     10  C   UNL     1       5.809   4.771  15.953  0.00  0.00    +0.000 A 
ATOM     11  C   UNL     1       4.661   4.135  16.419  0.00  0.00    +0.000 A 
ATOM     12  C   UNL     1       3.768   4.783  17.304  0.00  0.00    +0.000 A 
BRANCH  12  13
ATOM     13  C   UNL     1       2.722   3.963  17.918  0.00  0.00    +0.000 A 
ATOM     14  N   UNL     1       1.424   3.928  17.453  0.00  0.00    +0.000 NA
ATOM     15  N   UNL     1       0.738   3.152  18.279  0.00  0.00    +0.000 NA
ATOM     16  N   UNL     1       1.618   2.800  19.216  0.00  0.00    +0.000 N 
ATOM     17  N   UNL     1       2.872   3.251  19.054  0.00  0.00    +0.000 NA
ATOM     18  H   UNL     1       1.345   2.241  20.019  0.00  0.00    +0.000 HD
ENDBRANCH  12  13
ENDBRANCH   4   7
BRANCH   1  19
ATOM     19  C   UNL     1       0.503   9.860  20.513  0.00  0.00    +0.000 C 
BRANCH  19  25
ATOM     20  C   UNL     1      -0.882  11.338  18.894  0.00  0.00    +0.000 A 
ATOM     21  C   UNL     1      -0.736  12.610  18.488  0.00  0.00    +0.000 A 
ATOM     22  N   UNL     1       0.270  13.204  19.203  0.00  0.00    +0.000 N 
ATOM     23  C   UNL     1       0.830  12.262  20.079  0.00  0.00    +0.000 A 
ATOM     24  O   UNL     1       1.769  12.424  20.848  0.00  0.00    +0.000 OA
ATOM     25  N   UNL     1       0.060  11.080  19.884  0.00  0.00    +0.000 N 
BRANCH  20  26
ATOM     26  C   UNL     1      -1.981  10.444  18.439  0.00  0.00    +0.000 C 
BRANCH  26  27
ATOM     27  C   UNL     1      -1.810  10.032  16.969  0.00  0.00    +0.000 C 
BRANCH  27  29
ATOM     28  C   UNL     1      -3.021  10.016  14.759  0.00  0.00    +0.000 C 
ATOM     29  C   UNL     1      -2.689  10.828  15.997  0.00  0.00    +0.000 C 
ENDBRANCH  27  29
ENDBRANCH  26  27
ENDBRANCH  20  26
BRANCH  22  30
ATOM     30  C   UNL     1       0.594  14.612  19.187  0.00  0.00    +0.000 C 
BRANCH  30  31
ATOM     31  C   UNL     1      -0.603  15.509  19.527  0.00  0.00    +0.000 C 
BRANCH  31  32
ATOM     32  C   UNL     1      -0.219  16.976  19.749  0.00  0.00    +0.000 C 
ATOM     33  C   UNL     1       0.970  17.099  20.690  0.00  0.00    +0.000 C 
ENDBRANCH  31  32
ENDBRANCH  30  31
ENDBRANCH  22  30
ENDBRANCH  19  25
ENDBRANCH   1  19
TORSDOF 10
ENDMDL
MODEL 8
REMARK VINA RESULT:      -7.8      2.692      9.142
REMARK  Name = 
REMARK  12 active torsions:
REMARK  status: ('A' for Active; 'I' for Inactive)
REMARK    1  A    between atoms: C_1  and  C_2
REMARK    2  A    between atoms: C_2  and  C_3
REMARK    3  A    between atoms: C_3  and  C_4
REMARK    4  A    between atoms: C_4  and  C_5
REMARK    5  A    between atoms: N_7  and  C_8
REMARK    6  A    between atoms: C_8  and  C_9
REMARK    7  A    between atoms: C_9  and  C_10
REMARK    8  A    between atoms: C_10  and  C_11
REMARK    9  A    between atoms: N_14  and  C_15
REMARK   10  A    between atoms: C_15  and  C_16
REMARK   11  A    between atoms: C_19  and  C_20
REMARK   12  A    between atoms: C_25  and  C_26
REMARK                            x       y       z     vdW  Elec       q    Type
REMARK                         _______ _______ _______ _____ _____    ______ ____
ROOT
ATOM      1  C   UNL     1       1.147   9.180  19.868  0.00  0.00    +0.000 A 
ATOM      2  C   UNL     1       1.436   9.249  18.504  0.00  0.00    +0.000 A 
ATOM      3  C   UNL     1       2.158   8.229  17.874  0.00  0.00    +0.000 A 
ATOM      4  C   UNL     1       2.582   7.079  18.566  0.00  0.00    +0.000 A 
ATOM      5  C   UNL     1       2.230   6.996  19.924  0.00  0.00    +0.000 A 
ATOM      6  C   UNL     1       1.534   8.031  20.570  0.00  0.00    +0.000 A 
ENDROOT
BRANCH   4   7
ATOM      7  C   UNL     1       3.448   6.055  17.906  0.00  0.00    +0.000 A 
ATOM      8  C   UNL     1       4.529   6.498  17.104  0.00  0.00    +0.000 A 
ATOM      9  C   UNL     1       5.285   5.622  16.318  0.00  0.00    +0.000 A 
ATOM     10  C   UNL     1       4.955   4.278  16.273  0.00  0.00    +0.000 A 
ATOM     11  C   UNL     1       3.928   3.798  17.084  0.00  0.00    +0.000 A 
ATOM     12  C   UNL     1       3.211   4.658  17.949  0.00  0.00    +0.000 A 
BRANCH  12  13
ATOM     13  C   UNL     1       2.317   4.031  18.924  0.00  0.00    +0.000 A 
ATOM     14  N   UNL     1       2.751   3.546  20.139  0.00  0.00    +0.000 NA
ATOM     15  N   UNL     1       1.704   2.985  20.728  0.00  0.00    +0.000 NA
ATOM     16  N   UNL     1       0.717   3.107  19.841  0.00  0.00    +0.000 N 
ATOM     17  N   UNL     1       1.015   3.756  18.705  0.00  0.00    +0.000 NA
ATOM     18  H   UNL     1      -0.202   2.708  20.011  0.00  0.00    +0.000 HD
ENDBRANCH  12  13
ENDBRANCH   4   7
BRANCH   1  19
ATOM     19  C   UNL     1       0.569  10.373  20.583  0.00  0.00    +0.000 C 
BRANCH  19  25
ATOM     20  C   UNL     1      -0.828  11.736  18.876  0.00  0.00    +0.000 A 
ATOM     21  C   UNL     1      -0.657  12.955  18.341  0.00  0.00    +0.000 A 
ATOM     22  N   UNL     1       0.395  13.580  18.958  0.00  0.00    +0.000 N 
ATOM     23  C   UNL     1       0.957  12.708  19.902  0.00  0.00    +0.000 A 
ATOM     24  O   UNL     1       1.930  12.910  20.617  0.00  0.00    +0.000 OA
ATOM     25  N   UNL     1       0.142  11.541  19.852  0.00  0.00    +0.000 N 
BRANCH  20  26
ATOM     26  C   UNL     1      -1.973  10.842  18.551  0.00  0.00    +0.000 C 
BRANCH  26  27
ATOM     27  C   UNL     1      -1.723  10.040  17.264  0.00  0.00    +0.000 C 
BRANCH  27  29
ATOM     28  C   UNL     1      -3.910  11.127  16.644  0.00  0.00    +0.000 C 
ATOM     29  C   UNL     1      -2.909  10.042  16.293  0.00  0.00    +0.000 C 
ENDBRANCH  27  29
ENDBRANCH  26  27
ENDBRANCH  20  26
BRANCH  22  30
ATOM     30  C   UNL     1       0.764  14.967  18.791  0.00  0.00    +0.000 C 
BRANCH  30  31
ATOM     31  C   UNL     1      -0.411  15.931  18.997  0.00  0.00    +0.000 C 
BRANCH  31  32
ATOM     32  C   UNL     1      -0.379  17.138  18.053  0.00  0.00    +0.000 C 
ATOM     33  C   UNL     1       0.461  18.268  18.630  0.00  0.00    +0.000 C 
ENDBRANCH  31  32
ENDBRANCH  30  31
ENDBRANCH  22  30
ENDBRANCH  19  25
ENDBRANCH   1  19
TORSDOF 10
ENDMDL
MODEL 9
REMARK VINA RESULT:      -7.8      3.069      9.237
REMARK  Name = 
REMARK  12 active torsions:
REMARK  status: ('A' for Active; 'I' for Inactive)
REMARK    1  A    between atoms: C_1  and  C_2
REMARK    2  A    between atoms: C_2  and  C_3
REMARK    3  A    between atoms: C_3  and  C_4
REMARK    4  A    between atoms: C_4  and  C_5
REMARK    5  A    between atoms: N_7  and  C_8
REMARK    6  A    between atoms: C_8  and  C_9
REMARK    7  A    between atoms: C_9  and  C_10
REMARK    8  A    between atoms: C_10  and  C_11
REMARK    9  A    between atoms: N_14  and  C_15
REMARK   10  A    between atoms: C_15  and  C_16
REMARK   11  A    between atoms: C_19  and  C_20
REMARK   12  A    between atoms: C_25  and  C_26
REMARK                            x       y       z     vdW  Elec       q    Type
REMARK                         _______ _______ _______ _____ _____    ______ ____
ROOT
ATOM      1  C   UNL     1       1.630   9.284  19.030  0.00  0.00    +0.000 A 
ATOM      2  C   UNL     1       1.434   8.788  20.321  0.00  0.00    +0.000 A 
ATOM      3  C   UNL     1       1.655   7.437  20.608  0.00  0.00    +0.000 A 
ATOM      4  C   UNL     1       2.124   6.534  19.634  0.00  0.00    +0.000 A 
ATOM      5  C   UNL     1       2.376   7.062  18.356  0.00  0.00    +0.000 A 
ATOM      6  C   UNL     1       2.124   8.410  18.053  0.00  0.00    +0.000 A 
ENDROOT
BRANCH   4   7
ATOM      7  C   UNL     1       2.247   5.074  19.929  0.00  0.00    +0.000 A 
ATOM      8  C   UNL     1       1.127   4.396  20.471  0.00  0.00    +0.000 A 
ATOM      9  C   UNL     1       1.202   3.078  20.931  0.00  0.00    +0.000 A 
ATOM     10  C   UNL     1       2.414   2.407  20.906  0.00  0.00    +0.000 A 
ATOM     11  C   UNL     1       3.525   3.025  20.337  0.00  0.00    +0.000 A 
ATOM     12  C   UNL     1       3.444   4.326  19.789  0.00  0.00    +0.000 A 
BRANCH  12  13
ATOM     13  C   UNL     1       4.591   4.798  19.012  0.00  0.00    +0.000 A 
ATOM     14  N   UNL     1       4.699   4.622  17.648  0.00  0.00    +0.000 NA
ATOM     15  N   UNL     1       5.883   5.097  17.289  0.00  0.00    +0.000 NA
ATOM     16  N   UNL     1       6.449   5.484  18.433  0.00  0.00    +0.000 N 
ATOM     17  N   UNL     1       5.705   5.344  19.541  0.00  0.00    +0.000 NA
ATOM     18  H   UNL     1       7.399   5.842  18.461  0.00  0.00    +0.000 HD
ENDBRANCH  12  13
ENDBRANCH   4   7
BRANCH   1  19
ATOM     19  C   UNL     1       1.181  10.677  18.676  0.00  0.00    +0.000 C 
BRANCH  19  25
ATOM     20  C   UNL     1      -1.377  10.990  18.380  0.00  0.00    +0.000 A 
ATOM     21  C   UNL     1      -2.256  11.820  18.964  0.00  0.00    +0.000 A 
ATOM     22  N   UNL     1      -1.636  12.500  19.979  0.00  0.00    +0.000 N 
ATOM     23  C   UNL     1      -0.285  12.125  20.025  0.00  0.00    +0.000 A 
ATOM     24  O   UNL     1       0.581  12.550  20.779  0.00  0.00    +0.000 OA
ATOM     25  N   UNL     1      -0.146  11.137  19.009  0.00  0.00    +0.000 N 
BRANCH  20  26
ATOM     26  C   UNL     1      -1.745   9.989  17.341  0.00  0.00    +0.000 C 
BRANCH  26  27
ATOM     27  C   UNL     1      -3.251  10.011  17.037  0.00  0.00    +0.000 C 
BRANCH  27  29
ATOM     28  C   UNL     1      -2.930  10.054  14.538  0.00  0.00    +0.000 C 
ATOM     29  C   UNL     1      -3.607  10.716  15.723  0.00  0.00    +0.000 C 
ENDBRANCH  27  29
ENDBRANCH  26  27
ENDBRANCH  20  26
BRANCH  22  30
ATOM     30  C   UNL     1      -2.296  13.337  20.955  0.00  0.00    +0.000 C 
BRANCH  30  31
ATOM     31  C   UNL     1      -2.948  12.538  22.090  0.00  0.00    +0.000 C 
BRANCH  31  32
ATOM     32  C   UNL     1      -2.437  12.931  23.481  0.00  0.00    +0.000 C 
ATOM     33  C   UNL     1      -1.241  13.866  23.385  0.00  0.00    +0.000 C 
ENDBRANCH  31  32
ENDBRANCH  30  31
ENDBRANCH  22  30
ENDBRANCH  19  25
ENDBRANCH   1  19
TORSDOF 10
ENDMDL
