MODEL 1
REMARK VINA RESULT:      -7.6      0.000      0.000
REMARK  Name = 
REMARK  5 active torsions:
REMARK  status: ('A' for Active; 'I' for Inactive)
REMARK    1  A    between atoms: C_1  and  N_2
REMARK    2  A    between atoms: N_2  and  C_3
REMARK    3  A    between atoms: N_2  and  C_4
REMARK    4  A    between atoms: C_10  and  C_11
REMARK    5  A    between atoms: C_18  and  C_19
REMARK                            x       y       z     vdW  Elec       q    Type
REMARK                         _______ _______ _______ _____ _____    ______ ____
ROOT
ATOM      1  C   UNL     1       2.997   4.284  20.071  0.00  0.00    +0.000 C 
ATOM      2  C   UNL     1       2.018   3.900  18.912  0.00  0.00    +0.000 C 
ATOM      3  C   UNL     1       1.660   4.909  17.841  0.00  0.00    +0.000 C 
ATOM      4  O   UNL     1       0.789   4.595  17.046  0.00  0.00    +0.000 OA
ATOM      5  N   UNL     1       2.268   6.115  17.681  0.00  0.00    +0.000 N 
ATOM      6  C   UNL     1       3.332   6.631  18.508  0.00  0.00    +0.000 C 
ATOM      7  C   UNL     1       4.579   5.688  18.480  0.00  0.00    +0.000 C 
ATOM      8  C   UNL     1       4.446   4.568  19.543  0.00  0.00    +0.000 C 
ATOM      9  C   UNL     1       2.832   6.888  19.969  0.00  0.00    +0.000 C 
ATOM     10  C   UNL     1       2.439   5.588  20.730  0.00  0.00    +0.000 C 
ATOM     11  H   UNL     1       1.961   6.713  16.894  0.00  0.00    +0.000 HD
ENDROOT
BRANCH   7  12
ATOM     12  C   UNL     1       5.012   5.196  17.073  0.00  0.00    +0.000 A 
ATOM     13  C   UNL     1       5.147   3.808  16.834  0.00  0.00    +0.000 A 
ATOM     14  C   UNL     1       5.555   3.325  15.578  0.00  0.00    +0.000 A 
ATOM     15  C   UNL     1       5.840   4.210  14.537  0.00  0.00    +0.000 A 
ATOM     16  C   UNL     1       5.695   5.573  14.740  0.00  0.00    +0.000 A 
ATOM     17  C   UNL     1       5.270   6.055  15.976  0.00  0.00    +0.000 A 
ENDBRANCH   7  12
BRANCH   9  18
ATOM     18  C   UNL     1       1.700   7.916  20.064  0.00  0.00    +0.000 A 
ATOM     19  C   UNL     1       0.840   7.957  21.184  0.00  0.00    +0.000 A 
ATOM     20  C   UNL     1      -0.194   8.888  21.264  0.00  0.00    +0.000 A 
ATOM     21  C   UNL     1      -0.380   9.812  20.240  0.00  0.00    +0.000 A 
ATOM     22  C   UNL     1       0.471   9.805  19.132  0.00  0.00    +0.000 A 
ATOM     23  C   UNL     1       1.503   8.861  19.039  0.00  0.00    +0.000 A 
ENDBRANCH   9  18
BRANCH   1  25
ATOM     24  C   UNL     1       1.750   2.532  21.432  0.00  0.00    +0.000 C 
ATOM     25  N   UNL     1       3.052   3.123  21.046  0.00  0.00    +0.000 NA
ATOM     26  C   UNL     1       4.002   2.035  20.713  0.00  0.00    +0.000 C 
ENDBRANCH   1  25
TORSDOF 3
ENDMDL
MODEL 2
REMARK VINA RESULT:      -7.5      0.061      1.365
REMARK  Name = 
REMARK  5 active torsions:
REMARK  status: ('A' for Active; 'I' for Inactive)
REMARK    1  A    between atoms: C_1  and  N_2
REMARK    2  A    between atoms: N_2  and  C_3
REMARK    3  A    between atoms: N_2  and  C_4
REMARK    4  A    between atoms: C_10  and  C_11
REMARK    5  A    between atoms: C_18  and  C_19
REMARK                            x       y       z     vdW  Elec       q    Type
REMARK                         _______ _______ _______ _____ _____    ______ ____
ROOT
ATOM      1  C   UNL     1       2.969   4.276  20.103  0.00  0.00    +0.000 C 
ATOM      2  C   UNL     1       1.996   3.889  18.940  0.00  0.00    +0.000 C 
ATOM      3  C   UNL     1       1.657   4.889  17.855  0.00  0.00    +0.000 C 
ATOM      4  O   UNL     1       0.789   4.574  17.056  0.00  0.00    +0.000 OA
ATOM      5  N   UNL     1       2.278   6.087  17.687  0.00  0.00    +0.000 N 
ATOM      6  C   UNL     1       3.340   6.602  18.517  0.00  0.00    +0.000 C 
ATOM      7  C   UNL     1       4.578   5.647  18.510  0.00  0.00    +0.000 C 
ATOM      8  C   UNL     1       4.425   4.540  19.584  0.00  0.00    +0.000 C 
ATOM      9  C   UNL     1       2.830   6.880  19.971  0.00  0.00    +0.000 C 
ATOM     10  C   UNL     1       2.418   5.593  20.743  0.00  0.00    +0.000 C 
ATOM     11  H   UNL     1       1.983   6.678  16.891  0.00  0.00    +0.000 HD
ENDROOT
BRANCH   7  12
ATOM     12  C   UNL     1       5.018   5.134  17.113  0.00  0.00    +0.000 A 
ATOM     13  C   UNL     1       5.304   6.067  16.089  0.00  0.00    +0.000 A 
ATOM     14  C   UNL     1       5.688   5.640  14.805  0.00  0.00    +0.000 A 
ATOM     15  C   UNL     1       5.792   4.278  14.513  0.00  0.00    +0.000 A 
ATOM     16  C   UNL     1       5.538   3.346  15.505  0.00  0.00    +0.000 A 
ATOM     17  C   UNL     1       5.178   3.765  16.785  0.00  0.00    +0.000 A 
ENDBRANCH   7  12
BRANCH   9  18
ATOM     18  C   UNL     1       1.707   7.920  20.044  0.00  0.00    +0.000 A 
ATOM     19  C   UNL     1       1.506   8.855  19.004  0.00  0.00    +0.000 A 
ATOM     20  C   UNL     1       0.489   9.805  19.077  0.00  0.00    +0.000 A 
ATOM     21  C   UNL     1      -0.364   9.830  20.176  0.00  0.00    +0.000 A 
ATOM     22  C   UNL     1      -0.198   8.901  21.207  0.00  0.00    +0.000 A 
ATOM     23  C   UNL     1       0.833   7.953  21.147  0.00  0.00    +0.000 A 
ENDBRANCH   9  18
BRANCH   1  25
ATOM     24  C   UNL     1       1.693   2.552  21.475  0.00  0.00    +0.000 C 
ATOM     25  N   UNL     1       3.004   3.126  21.092  0.00  0.00    +0.000 NA
ATOM     26  C   UNL     1       3.946   2.024  20.779  0.00  0.00    +0.000 C 
ENDBRANCH   1  25
TORSDOF 3
ENDMDL
MODEL 3
REMARK VINA RESULT:      -7.4      2.861      6.901
REMARK  Name = 
REMARK  5 active torsions:
REMARK  status: ('A' for Active; 'I' for Inactive)
REMARK    1  A    between atoms: C_1  and  N_2
REMARK    2  A    between atoms: N_2  and  C_3
REMARK    3  A    between atoms: N_2  and  C_4
REMARK    4  A    between atoms: C_10  and  C_11
REMARK    5  A    between atoms: C_18  and  C_19
REMARK                            x       y       z     vdW  Elec       q    Type
REMARK                         _______ _______ _______ _____ _____    ______ ____
ROOT
ATOM      1  C   UNL     1       6.917   5.581  17.847  0.00  0.00    +0.000 C 
ATOM      2  C   UNL     1       5.941   6.746  17.472  0.00  0.00    +0.000 C 
ATOM      3  C   UNL     1       4.787   6.507  16.521  0.00  0.00    +0.000 C 
ATOM      4  O   UNL     1       4.148   7.483  16.163  0.00  0.00    +0.000 OA
ATOM      5  N   UNL     1       4.394   5.284  16.075  0.00  0.00    +0.000 N 
ATOM      6  C   UNL     1       5.016   4.028  16.419  0.00  0.00    +0.000 C 
ATOM      7  C   UNL     1       4.979   3.783  17.963  0.00  0.00    +0.000 C 
ATOM      8  C   UNL     1       6.195   4.449  18.655  0.00  0.00    +0.000 C 
ATOM      9  C   UNL     1       6.474   3.952  15.855  0.00  0.00    +0.000 C 
ATOM     10  C   UNL     1       7.448   4.978  16.504  0.00  0.00    +0.000 C 
ATOM     11  H   UNL     1       3.572   5.238  15.449  0.00  0.00    +0.000 HD
ENDROOT
BRANCH   7  12
ATOM     12  C   UNL     1       3.614   4.058  18.650  0.00  0.00    +0.000 A 
ATOM     13  C   UNL     1       3.540   5.015  19.689  0.00  0.00    +0.000 A 
ATOM     14  C   UNL     1       2.325   5.278  20.347  0.00  0.00    +0.000 A 
ATOM     15  C   UNL     1       1.163   4.593  19.989  0.00  0.00    +0.000 A 
ATOM     16  C   UNL     1       1.205   3.666  18.960  0.00  0.00    +0.000 A 
ATOM     17  C   UNL     1       2.402   3.418  18.291  0.00  0.00    +0.000 A 
ENDBRANCH   7  12
BRANCH   9  18
ATOM     18  C   UNL     1       6.552   4.046  14.328  0.00  0.00    +0.000 A 
ATOM     19  C   UNL     1       5.702   3.276  13.502  0.00  0.00    +0.000 A 
ATOM     20  C   UNL     1       5.780   3.358  12.114  0.00  0.00    +0.000 A 
ATOM     21  C   UNL     1       6.692   4.223  11.517  0.00  0.00    +0.000 A 
ATOM     22  C   UNL     1       7.529   5.010  12.312  0.00  0.00    +0.000 A 
ATOM     23  C   UNL     1       7.466   4.921  13.710  0.00  0.00    +0.000 A 
ENDBRANCH   9  18
BRANCH   1  25
ATOM     24  C   UNL     1       8.237   7.620  18.609  0.00  0.00    +0.000 C 
ATOM     25  N   UNL     1       8.032   6.156  18.701  0.00  0.00    +0.000 NA
ATOM     26  C   UNL     1       8.037   5.751  20.126  0.00  0.00    +0.000 C 
ENDBRANCH   1  25
TORSDOF 3
ENDMDL
MODEL 4
REMARK VINA RESULT:      -7.3      2.831      6.890
REMARK  Name = 
REMARK  5 active torsions:
REMARK  status: ('A' for Active; 'I' for Inactive)
REMARK    1  A    between atoms: C_1  and  N_2
REMARK    2  A    between atoms: N_2  and  C_3
REMARK    3  A    between atoms: N_2  and  C_4
REMARK    4  A    between atoms: C_10  and  C_11
REMARK    5  A    between atoms: C_18  and  C_19
REMARK                            x       y       z     vdW  Elec       q    Type
REMARK                         _______ _______ _______ _____ _____    ______ ____
ROOT
ATOM      1  C   UNL     1       6.940   5.614  17.854  0.00  0.00    +0.000 C 
ATOM      2  C   UNL     1       5.957   6.775  17.486  0.00  0.00    +0.000 C 
ATOM      3  C   UNL     1       4.793   6.531  16.551  0.00  0.00    +0.000 C 
ATOM      4  O   UNL     1       4.147   7.504  16.196  0.00  0.00    +0.000 OA
ATOM      5  N   UNL     1       4.395   5.306  16.115  0.00  0.00    +0.000 N 
ATOM      6  C   UNL     1       5.023   4.052  16.458  0.00  0.00    +0.000 C 
ATOM      7  C   UNL     1       5.005   3.814  18.003  0.00  0.00    +0.000 C 
ATOM      8  C   UNL     1       6.229   4.484  18.677  0.00  0.00    +0.000 C 
ATOM      9  C   UNL     1       6.474   3.975  15.875  0.00  0.00    +0.000 C 
ATOM     10  C   UNL     1       7.454   5.005  16.508  0.00  0.00    +0.000 C 
ATOM     11  H   UNL     1       3.565   5.256  15.499  0.00  0.00    +0.000 HD
ENDROOT
BRANCH   7  12
ATOM     12  C   UNL     1       3.649   4.091  18.705  0.00  0.00    +0.000 A 
ATOM     13  C   UNL     1       2.519   3.309  18.368  0.00  0.00    +0.000 A 
ATOM     14  C   UNL     1       1.270   3.541  18.970  0.00  0.00    +0.000 A 
ATOM     15  C   UNL     1       1.118   4.558  19.915  0.00  0.00    +0.000 A 
ATOM     16  C   UNL     1       2.213   5.323  20.278  0.00  0.00    +0.000 A 
ATOM     17  C   UNL     1       3.458   5.081  19.700  0.00  0.00    +0.000 A 
ENDBRANCH   7  12
BRANCH   9  18
ATOM     18  C   UNL     1       6.533   4.061  14.347  0.00  0.00    +0.000 A 
ATOM     19  C   UNL     1       7.462   4.903  13.696  0.00  0.00    +0.000 A 
ATOM     20  C   UNL     1       7.509   4.986  12.306  0.00  0.00    +0.000 A 
ATOM     21  C   UNL     1       6.645   4.216  11.533  0.00  0.00    +0.000 A 
ATOM     22  C   UNL     1       5.731   3.360  12.153  0.00  0.00    +0.000 A 
ATOM     23  C   UNL     1       5.669   3.284  13.552  0.00  0.00    +0.000 A 
ENDBRANCH   9  18
BRANCH   1  25
ATOM     24  C   UNL     1       8.257   7.659  18.602  0.00  0.00    +0.000 C 
ATOM     25  N   UNL     1       8.065   6.194  18.691  0.00  0.00    +0.000 NA
ATOM     26  C   UNL     1       8.096   5.783  20.115  0.00  0.00    +0.000 C 
ENDBRANCH   1  25
TORSDOF 3
ENDMDL
MODEL 5
REMARK VINA RESULT:      -6.8      3.322      5.631
REMARK  Name = 
REMARK  5 active torsions:
REMARK  status: ('A' for Active; 'I' for Inactive)
REMARK    1  A    between atoms: C_1  and  N_2
REMARK    2  A    between atoms: N_2  and  C_3
REMARK    3  A    between atoms: N_2  and  C_4
REMARK    4  A    between atoms: C_10  and  C_11
REMARK    5  A    between atoms: C_18  and  C_19
REMARK                            x       y       z     vdW  Elec       q    Type
REMARK                         _______ _______ _______ _____ _____    ______ ____
ROOT
ATOM      1  C   UNL     1       5.953   4.639  15.686  0.00  0.00    +0.000 C 
ATOM      2  C   UNL     1       5.124   5.953  15.490  0.00  0.00    +0.000 C 
ATOM      3  C   UNL     1       4.498   6.652  16.678  0.00  0.00    +0.000 C 
ATOM      4  O   UNL     1       3.752   7.589  16.444  0.00  0.00    +0.000 OA
ATOM      5  N   UNL     1       4.740   6.335  17.977  0.00  0.00    +0.000 N 
ATOM      6  C   UNL     1       5.614   5.279  18.432  0.00  0.00    +0.000 C 
ATOM      7  C   UNL     1       7.076   5.497  17.924  0.00  0.00    +0.000 C 
ATOM      8  C   UNL     1       7.263   4.892  16.509  0.00  0.00    +0.000 C 
ATOM      9  C   UNL     1       5.058   3.876  18.017  0.00  0.00    +0.000 C 
ATOM     10  C   UNL     1       5.048   3.640  16.479  0.00  0.00    +0.000 C 
ATOM     11  H   UNL     1       4.278   6.901  18.709  0.00  0.00    +0.000 HD
ENDROOT
BRANCH   7  12
ATOM     12  C   UNL     1       7.634   6.936  18.089  0.00  0.00    +0.000 A 
ATOM     13  C   UNL     1       8.453   7.240  19.201  0.00  0.00    +0.000 A 
ATOM     14  C   UNL     1       8.961   8.537  19.395  0.00  0.00    +0.000 A 
ATOM     15  C   UNL     1       8.663   9.557  18.489  0.00  0.00    +0.000 A 
ATOM     16  C   UNL     1       7.881   9.280  17.381  0.00  0.00    +0.000 A 
ATOM     17  C   UNL     1       7.393   7.990  17.174  0.00  0.00    +0.000 A 
ENDBRANCH   7  12
BRANCH   9  18
ATOM     18  C   UNL     1       3.682   3.555  18.609  0.00  0.00    +0.000 A 
ATOM     19  C   UNL     1       2.523   3.539  17.801  0.00  0.00    +0.000 A 
ATOM     20  C   UNL     1       1.271   3.255  18.342  0.00  0.00    +0.000 A 
ATOM     21  C   UNL     1       1.149   2.960  19.697  0.00  0.00    +0.000 A 
ATOM     22  C   UNL     1       2.284   2.949  20.513  0.00  0.00    +0.000 A 
ATOM     23  C   UNL     1       3.544   3.250  19.976  0.00  0.00    +0.000 A 
ENDBRANCH   9  18
BRANCH   1  25
ATOM     24  C   UNL     1       5.209   3.815  13.396  0.00  0.00    +0.000 C 
ATOM     25  N   UNL     1       6.332   4.111  14.315  0.00  0.00    +0.000 NA
ATOM     26  C   UNL     1       7.371   4.875  13.585  0.00  0.00    +0.000 C 
ENDBRANCH   1  25
TORSDOF 3
ENDMDL
MODEL 6
REMARK VINA RESULT:      -6.5      4.431      8.904
REMARK  Name = 
REMARK  5 active torsions:
REMARK  status: ('A' for Active; 'I' for Inactive)
REMARK    1  A    between atoms: C_1  and  N_2
REMARK    2  A    between atoms: N_2  and  C_3
REMARK    3  A    between atoms: N_2  and  C_4
REMARK    4  A    between atoms: C_10  and  C_11
REMARK    5  A    between atoms: C_18  and  C_19
REMARK                            x       y       z     vdW  Elec       q    Type
REMARK                         _______ _______ _______ _____ _____    ______ ____
ROOT
ATOM      1  C   UNL     1      -1.479  11.785  18.877  0.00  0.00    +0.000 C 
ATOM      2  C   UNL     1      -1.377  11.876  20.436  0.00  0.00    +0.000 C 
ATOM      3  C   UNL     1      -0.038  11.734  21.129  0.00  0.00    +0.000 C 
ATOM      4  O   UNL     1      -0.044  11.676  22.349  0.00  0.00    +0.000 OA
ATOM      5  N   UNL     1       1.163  11.706  20.493  0.00  0.00    +0.000 N 
ATOM      6  C   UNL     1       1.355  11.792  19.065  0.00  0.00    +0.000 C 
ATOM      7  C   UNL     1       0.771  13.125  18.495  0.00  0.00    +0.000 C 
ATOM      8  C   UNL     1      -0.736  12.972  18.171  0.00  0.00    +0.000 C 
ATOM      9  C   UNL     1       0.754  10.539  18.343  0.00  0.00    +0.000 C 
ATOM     10  C   UNL     1      -0.796  10.443  18.451  0.00  0.00    +0.000 C 
ATOM     11  H   UNL     1       2.017  11.635  21.072  0.00  0.00    +0.000 HD
ENDROOT
BRANCH   7  12
ATOM     12  C   UNL     1       1.134  14.407  19.290  0.00  0.00    +0.000 A 
ATOM     13  C   UNL     1       0.099  15.219  19.809  0.00  0.00    +0.000 A 
ATOM     14  C   UNL     1       0.388  16.398  20.520  0.00  0.00    +0.000 A 
ATOM     15  C   UNL     1       1.711  16.794  20.725  0.00  0.00    +0.000 A 
ATOM     16  C   UNL     1       2.743  16.005  20.246  0.00  0.00    +0.000 A 
ATOM     17  C   UNL     1       2.461  14.825  19.560  0.00  0.00    +0.000 A 
ENDBRANCH   7  12
BRANCH   9  18
ATOM     18  C   UNL     1       1.395   9.214  18.767  0.00  0.00    +0.000 A 
ATOM     19  C   UNL     1       1.176   8.673  20.053  0.00  0.00    +0.000 A 
ATOM     20  C   UNL     1       1.766   7.471  20.439  0.00  0.00    +0.000 A 
ATOM     21  C   UNL     1       2.570   6.771  19.544  0.00  0.00    +0.000 A 
ATOM     22  C   UNL     1       2.784   7.275  18.259  0.00  0.00    +0.000 A 
ATOM     23  C   UNL     1       2.206   8.492  17.870  0.00  0.00    +0.000 A 
ENDBRANCH   9  18
BRANCH   1  25
ATOM     24  C   UNL     1      -3.487  10.623  17.829  0.00  0.00    +0.000 C 
ATOM     25  N   UNL     1      -2.946  11.831  18.496  0.00  0.00    +0.000 NA
ATOM     26  C   UNL     1      -3.883  12.261  19.561  0.00  0.00    +0.000 C 
ENDBRANCH   1  25
TORSDOF 3
ENDMDL
MODEL 7
REMARK VINA RESULT:      -6.5      6.870      9.010
REMARK  Name = 
REMARK  5 active torsions:
REMARK  status: ('A' for Active; 'I' for Inactive)
REMARK    1  A    between atoms: C_1  and  N_2
REMARK    2  A    between atoms: N_2  and  C_3
REMARK    3  A    between atoms: N_2  and  C_4
REMARK    4  A    between atoms: C_10  and  C_11
REMARK    5  A    between atoms: C_18  and  C_19
REMARK                            x       y       z     vdW  Elec       q    Type
REMARK                         _______ _______ _______ _____ _____    ______ ____
ROOT
ATOM      1  C   UNL     1      -0.028  11.679  21.031  0.00  0.00    +0.000 C 
ATOM      2  C   UNL     1      -1.076  12.815  21.275  0.00  0.00    +0.000 C 
ATOM      3  C   UNL     1      -1.316  13.879  20.225  0.00  0.00    +0.000 C 
ATOM      4  O   UNL     1      -2.042  14.812  20.531  0.00  0.00    +0.000 OA
ATOM      5  N   UNL     1      -0.815  13.846  18.962  0.00  0.00    +0.000 N 
ATOM      6  C   UNL     1       0.033  12.808  18.426  0.00  0.00    +0.000 C 
ATOM      7  C   UNL     1      -0.676  11.416  18.478  0.00  0.00    +0.000 C 
ATOM      8  C   UNL     1      -0.451  10.736  19.852  0.00  0.00    +0.000 C 
ATOM      9  C   UNL     1       1.417  12.783  19.157  0.00  0.00    +0.000 C 
ATOM     10  C   UNL     1       1.323  12.374  20.656  0.00  0.00    +0.000 C 
ATOM     11  H   UNL     1      -1.070  14.615  18.319  0.00  0.00    +0.000 HD
ENDROOT
BRANCH   7  12
ATOM     12  C   UNL     1      -2.145  11.395  17.979  0.00  0.00    +0.000 A 
ATOM     13  C   UNL     1      -2.411  11.166  16.609  0.00  0.00    +0.000 A 
ATOM     14  C   UNL     1      -3.728  11.158  16.117  0.00  0.00    +0.000 A 
ATOM     15  C   UNL     1      -4.806  11.380  16.976  0.00  0.00    +0.000 A 
ATOM     16  C   UNL     1      -4.574  11.585  18.325  0.00  0.00    +0.000 A 
ATOM     17  C   UNL     1      -3.271  11.572  18.821  0.00  0.00    +0.000 A 
ENDBRANCH   7  12
BRANCH   9  18
ATOM     18  C   UNL     1       2.216  14.083  19.015  0.00  0.00    +0.000 A 
ATOM     19  C   UNL     1       2.856  14.420  17.801  0.00  0.00    +0.000 A 
ATOM     20  C   UNL     1       3.588  15.599  17.677  0.00  0.00    +0.000 A 
ATOM     21  C   UNL     1       3.680  16.478  18.752  0.00  0.00    +0.000 A 
ATOM     22  C   UNL     1       3.038  16.177  19.955  0.00  0.00    +0.000 A 
ATOM     23  C   UNL     1       2.313  14.984  20.091  0.00  0.00    +0.000 A 
ENDBRANCH   9  18
BRANCH   1  25
ATOM     24  C   UNL     1      -1.146  10.757  23.123  0.00  0.00    +0.000 C 
ATOM     25  N   UNL     1       0.081  10.856  22.301  0.00  0.00    +0.000 NA
ATOM     26  C   UNL     1       0.682   9.508  22.155  0.00  0.00    +0.000 C 
ENDBRANCH   1  25
TORSDOF 3
ENDMDL
MODEL 8
REMARK VINA RESULT:      -6.4      4.425      8.928
REMARK  Name = 
REMARK  5 active torsions:
REMARK  status: ('A' for Active; 'I' for Inactive)
REMARK    1  A    between atoms: C_1  and  N_2
REMARK    2  A    between atoms: N_2  and  C_3
REMARK    3  A    between atoms: N_2  and  C_4
REMARK    4  A    between atoms: C_10  and  C_11
REMARK    5  A    between atoms: C_18  and  C_19
REMARK                            x       y       z     vdW  Elec       q    Type
REMARK                         _______ _______ _______ _____ _____    ______ ____
ROOT
ATOM      1  C   UNL     1      -1.479  11.786  18.883  0.00  0.00    +0.000 C 
ATOM      2  C   UNL     1      -1.376  11.873  20.442  0.00  0.00    +0.000 C 
ATOM      3  C   UNL     1      -0.037  11.726  21.134  0.00  0.00    +0.000 C 
ATOM      4  O   UNL     1      -0.042  11.666  22.353  0.00  0.00    +0.000 OA
ATOM      5  N   UNL     1       1.164  11.698  20.497  0.00  0.00    +0.000 N 
ATOM      6  C   UNL     1       1.355  11.787  19.069  0.00  0.00    +0.000 C 
ATOM      7  C   UNL     1       0.773  13.123  18.503  0.00  0.00    +0.000 C 
ATOM      8  C   UNL     1      -0.735  12.974  18.180  0.00  0.00    +0.000 C 
ATOM      9  C   UNL     1       0.751  10.538  18.344  0.00  0.00    +0.000 C 
ATOM     10  C   UNL     1      -0.799  10.444  18.453  0.00  0.00    +0.000 C 
ATOM     11  H   UNL     1       2.018  11.624  21.075  0.00  0.00    +0.000 HD
ENDROOT
BRANCH   7  12
ATOM     12  C   UNL     1       1.139  14.403  19.301  0.00  0.00    +0.000 A 
ATOM     13  C   UNL     1       2.493  14.800  19.395  0.00  0.00    +0.000 A 
ATOM     14  C   UNL     1       2.866  15.943  20.125  0.00  0.00    +0.000 A 
ATOM     15  C   UNL     1       1.900  16.711  20.779  0.00  0.00    +0.000 A 
ATOM     16  C   UNL     1       0.565  16.355  20.685  0.00  0.00    +0.000 A 
ATOM     17  C   UNL     1       0.190  15.235  19.944  0.00  0.00    +0.000 A 
ENDBRANCH   7  12
BRANCH   9  18
ATOM     18  C   UNL     1       1.389   9.210  18.764  0.00  0.00    +0.000 A 
ATOM     19  C   UNL     1       2.223   8.487  17.881  0.00  0.00    +0.000 A 
ATOM     20  C   UNL     1       2.796   7.276  18.262  0.00  0.00    +0.000 A 
ATOM     21  C   UNL     1       2.569   6.769  19.538  0.00  0.00    +0.000 A 
ATOM     22  C   UNL     1       1.765   7.476  20.436  0.00  0.00    +0.000 A 
ATOM     23  C   UNL     1       1.173   8.688  20.053  0.00  0.00    +0.000 A 
ENDBRANCH   9  18
BRANCH   1  25
ATOM     24  C   UNL     1      -3.491  10.631  17.836  0.00  0.00    +0.000 C 
ATOM     25  N   UNL     1      -2.947  11.836  18.503  0.00  0.00    +0.000 NA
ATOM     26  C   UNL     1      -3.882  12.267  19.570  0.00  0.00    +0.000 C 
ENDBRANCH   1  25
TORSDOF 3
ENDMDL
MODEL 9
REMARK VINA RESULT:      -6.4      6.178      8.498
REMARK  Name = 
REMARK  5 active torsions:
REMARK  status: ('A' for Active; 'I' for Inactive)
REMARK    1  A    between atoms: C_1  and  N_2
REMARK    2  A    between atoms: N_2  and  C_3
REMARK    3  A    between atoms: N_2  and  C_4
REMARK    4  A    between atoms: C_10  and  C_11
REMARK    5  A    between atoms: C_18  and  C_19
REMARK                            x       y       z     vdW  Elec       q    Type
REMARK                         _______ _______ _______ _____ _____    ______ ____
ROOT
ATOM      1  C   UNL     1       0.170  11.263  21.057  0.00  0.00    +0.000 C 
ATOM      2  C   UNL     1       1.342  10.894  20.086  0.00  0.00    +0.000 C 
ATOM      3  C   UNL     1       1.362  11.423  18.668  0.00  0.00    +0.000 C 
ATOM      4  O   UNL     1       2.227  10.990  17.923  0.00  0.00    +0.000 OA
ATOM      5  N   UNL     1       0.516  12.370  18.184  0.00  0.00    +0.000 N 
ATOM      6  C   UNL     1      -0.541  13.009  18.932  0.00  0.00    +0.000 C 
ATOM      7  C   UNL     1       0.024  13.757  20.183  0.00  0.00    +0.000 C 
ATOM      8  C   UNL     1       0.147  12.794  21.391  0.00  0.00    +0.000 C 
ATOM      9  C   UNL     1      -1.651  11.977  19.326  0.00  0.00    +0.000 C 
ATOM     10  C   UNL     1      -1.163  10.889  20.327  0.00  0.00    +0.000 C 
ATOM     11  H   UNL     1       0.641  12.678  17.205  0.00  0.00    +0.000 HD
ENDROOT
BRANCH   7  12
ATOM     12  C   UNL     1       1.278  14.635  19.926  0.00  0.00    +0.000 A 
ATOM     13  C   UNL     1       1.175  15.761  19.077  0.00  0.00    +0.000 A 
ATOM     14  C   UNL     1       2.293  16.570  18.806  0.00  0.00    +0.000 A 
ATOM     15  C   UNL     1       3.536  16.273  19.370  0.00  0.00    +0.000 A 
ATOM     16  C   UNL     1       3.657  15.188  20.222  0.00  0.00    +0.000 A 
ATOM     17  C   UNL     1       2.546  14.397  20.511  0.00  0.00    +0.000 A 
ENDBRANCH   7  12
BRANCH   9  18
ATOM     18  C   UNL     1      -2.336  11.317  18.125  0.00  0.00    +0.000 A 
ATOM     19  C   UNL     1      -3.607  11.745  17.680  0.00  0.00    +0.000 A 
ATOM     20  C   UNL     1      -4.231  11.139  16.592  0.00  0.00    +0.000 A 
ATOM     21  C   UNL     1      -3.594  10.106  15.911  0.00  0.00    +0.000 A 
ATOM     22  C   UNL     1      -2.328   9.679  16.319  0.00  0.00    +0.000 A 
ATOM     23  C   UNL     1      -1.701  10.275  17.422  0.00  0.00    +0.000 A 
ENDBRANCH   9  18
BRANCH   1  25
ATOM     24  C   UNL     1      -0.855  10.268  23.163  0.00  0.00    +0.000 C 
ATOM     25  N   UNL     1       0.360  10.484  22.344  0.00  0.00    +0.000 NA
ATOM     26  C   UNL     1       1.105   9.207  22.231  0.00  0.00    +0.000 C 
ENDBRANCH   1  25
TORSDOF 3
ENDMDL
