MODEL 1
REMARK VINA RESULT:      -8.4      0.000      0.000
REMARK  Name = 
REMARK  6 active torsions:
REMARK  status: ('A' for Active; 'I' for Inactive)
REMARK    1  A    between atoms: C_1  and  C_2
REMARK    2  A    between atoms: N_4  and  C_5
REMARK    3  A    between atoms: C_5  and  C_6
REMARK    4  A    between atoms: C_14  and  S_15
REMARK    5  A    between atoms: S_15  and  N_18
REMARK    6  A    between atoms: N_18  and  C_19
REMARK                            x       y       z     vdW  Elec       q    Type
REMARK                         _______ _______ _______ _____ _____    ______ ____
ROOT
ATOM      1  C   UNL     1       0.182  10.969  21.901  0.00  0.00    +0.000 C 
ATOM      2  O   UNL     1       0.079  11.911  20.785  0.00  0.00    +0.000 OA
ATOM      3  C   UNL     1       0.616  11.308  19.659  0.00  0.00    +0.000 C 
ATOM      4  O   UNL     1       0.912  11.908  18.642  0.00  0.00    +0.000 OA
ATOM      5  N   UNL     1       0.766   9.989  19.943  0.00  0.00    +0.000 N 
ATOM      6  C   UNL     1       1.414   8.912  19.383  0.00  0.00    +0.000 A 
ATOM      7  C   UNL     1       1.928   8.748  18.114  0.00  0.00    +0.000 A 
ATOM      8  C   UNL     1       2.522   7.515  17.820  0.00  0.00    +0.000 A 
ATOM      9  C   UNL     1       2.620   6.511  18.811  0.00  0.00    +0.000 A 
ATOM     10  C   UNL     1       2.106   6.703  20.102  0.00  0.00    +0.000 A 
ATOM     11  C   UNL     1       1.507   7.917  20.372  0.00  0.00    +0.000 A 
ATOM     12  C   UNL     1       0.966   8.428  21.692  0.00  0.00    +0.000 C 
ATOM     13  C   UNL     1       0.171   9.635  21.194  0.00  0.00    +0.000 C 
ENDROOT
BRANCH   9  14
ATOM     14  S   UNL     1       3.382   4.948  18.404  0.00  0.00    +0.000 S 
ATOM     15  O   UNL     1       4.025   4.440  19.596  0.00  0.00    +0.000 OA
ATOM     16  O   UNL     1       2.393   4.167  17.691  0.00  0.00    +0.000 OA
BRANCH  14  17
ATOM     17  N   UNL     1       4.556   5.380  17.264  0.00  0.00    +0.000 N 
ATOM     18  H   UNL     1       4.137   5.784  16.429  0.00  0.00    +0.000 HD
BRANCH  17  19
ATOM     19  C   UNL     1       5.770   5.960  17.722  0.00  0.00    +0.000 A 
ATOM     20  C   UNL     1       6.214   7.160  17.166  0.00  0.00    +0.000 A 
ATOM     21  C   UNL     1       7.419   7.720  17.594  0.00  0.00    +0.000 A 
ATOM     22  C   UNL     1       8.190   7.067  18.556  0.00  0.00    +0.000 A 
ATOM     23  C   UNL     1       7.753   5.857  19.096  0.00  0.00    +0.000 A 
ATOM     24  C   UNL     1       6.538   5.305  18.684  0.00  0.00    +0.000 A 
ENDBRANCH  17  19
ENDBRANCH  14  17
ENDBRANCH   9  14
BRANCH   1  25
ATOM     25  C   UNL     1      -1.027  11.092  22.833  0.00  0.00    +0.000 C 
BRANCH  25  29
ATOM     26  C   UNL     1      -2.793  14.324  23.709  0.00  0.00    +0.000 C 
ATOM     27  C   UNL     1      -2.663  12.864  23.367  0.00  0.00    +0.000 C 
ATOM     28  O   UNL     1      -3.624  12.111  23.259  0.00  0.00    +0.000 OA
ATOM     29  N   UNL     1      -1.363  12.458  23.185  0.00  0.00    +0.000 N 
ATOM     30  H   UNL     1      -0.610  13.122  23.324  0.00  0.00    +0.000 HD
ENDBRANCH  25  29
ENDBRANCH   1  25
TORSDOF 5
ENDMDL
MODEL 2
REMARK VINA RESULT:      -8.4      2.562      3.600
REMARK  Name = 
REMARK  6 active torsions:
REMARK  status: ('A' for Active; 'I' for Inactive)
REMARK    1  A    between atoms: C_1  and  C_2
REMARK    2  A    between atoms: N_4  and  C_5
REMARK    3  A    between atoms: C_5  and  C_6
REMARK    4  A    between atoms: C_14  and  S_15
REMARK    5  A    between atoms: S_15  and  N_18
REMARK    6  A    between atoms: N_18  and  C_19
REMARK                            x       y       z     vdW  Elec       q    Type
REMARK                         _______ _______ _______ _____ _____    ______ ____
ROOT
ATOM      1  C   UNL     1       0.814  10.348  18.991  0.00  0.00    +0.000 C 
ATOM      2  O   UNL     1       0.396  10.362  20.394  0.00  0.00    +0.000 OA
ATOM      3  C   UNL     1       0.673   9.119  20.940  0.00  0.00    +0.000 C 
ATOM      4  O   UNL     1       0.219   8.724  21.998  0.00  0.00    +0.000 OA
ATOM      5  N   UNL     1       1.479   8.466  20.064  0.00  0.00    +0.000 N 
ATOM      6  C   UNL     1       1.926   7.177  19.884  0.00  0.00    +0.000 A 
ATOM      7  C   UNL     1       1.925   6.109  20.755  0.00  0.00    +0.000 A 
ATOM      8  C   UNL     1       2.474   4.907  20.293  0.00  0.00    +0.000 A 
ATOM      9  C   UNL     1       2.962   4.803  18.970  0.00  0.00    +0.000 A 
ATOM     10  C   UNL     1       2.939   5.897  18.092  0.00  0.00    +0.000 A 
ATOM     11  C   UNL     1       2.412   7.081  18.568  0.00  0.00    +0.000 A 
ATOM     12  C   UNL     1       2.170   8.375  17.817  0.00  0.00    +0.000 C 
ATOM     13  C   UNL     1       1.912   9.312  18.996  0.00  0.00    +0.000 C 
ENDROOT
BRANCH   9  14
ATOM     14  S   UNL     1       3.659   3.257  18.411  0.00  0.00    +0.000 S 
ATOM     15  O   UNL     1       3.051   2.190  19.177  0.00  0.00    +0.000 OA
ATOM     16  O   UNL     1       3.608   3.266  16.963  0.00  0.00    +0.000 OA
BRANCH  14  17
ATOM     17  N   UNL     1       5.292   3.398  18.828  0.00  0.00    +0.000 N 
ATOM     18  H   UNL     1       5.744   2.488  18.891  0.00  0.00    +0.000 HD
BRANCH  17  19
ATOM     19  C   UNL     1       6.052   4.458  18.261  0.00  0.00    +0.000 A 
ATOM     20  C   UNL     1       6.613   5.427  19.093  0.00  0.00    +0.000 A 
ATOM     21  C   UNL     1       7.338   6.483  18.540  0.00  0.00    +0.000 A 
ATOM     22  C   UNL     1       7.478   6.582  17.155  0.00  0.00    +0.000 A 
ATOM     23  C   UNL     1       6.899   5.623  16.324  0.00  0.00    +0.000 A 
ATOM     24  C   UNL     1       6.191   4.554  16.877  0.00  0.00    +0.000 A 
ENDBRANCH  17  19
ENDBRANCH  14  17
ENDBRANCH   9  14
BRANCH   1  25
ATOM     25  C   UNL     1       1.367  11.714  18.573  0.00  0.00    +0.000 C 
BRANCH  25  29
ATOM     26  C   UNL     1       3.078  14.283  20.764  0.00  0.00    +0.000 C 
ATOM     27  C   UNL     1       2.675  13.600  19.485  0.00  0.00    +0.000 C 
ATOM     28  O   UNL     1       3.047  13.973  18.378  0.00  0.00    +0.000 OA
ATOM     29  N   UNL     1       1.852  12.517  19.678  0.00  0.00    +0.000 N 
ATOM     30  H   UNL     1       1.551  12.281  20.617  0.00  0.00    +0.000 HD
ENDBRANCH  25  29
ENDBRANCH   1  25
TORSDOF 5
ENDMDL
MODEL 3
REMARK VINA RESULT:      -8.4      3.037      9.395
REMARK  Name = 
REMARK  6 active torsions:
REMARK  status: ('A' for Active; 'I' for Inactive)
REMARK    1  A    between atoms: C_1  and  C_2
REMARK    2  A    between atoms: N_4  and  C_5
REMARK    3  A    between atoms: C_5  and  C_6
REMARK    4  A    between atoms: C_14  and  S_15
REMARK    5  A    between atoms: S_15  and  N_18
REMARK    6  A    between atoms: N_18  and  C_19
REMARK                            x       y       z     vdW  Elec       q    Type
REMARK                         _______ _______ _______ _____ _____    ______ ____
ROOT
ATOM      1  C   UNL     1       5.100   4.505  16.704  0.00  0.00    +0.000 C 
ATOM      2  O   UNL     1       4.854   3.186  17.290  0.00  0.00    +0.000 OA
ATOM      3  C   UNL     1       4.011   3.347  18.378  0.00  0.00    +0.000 C 
ATOM      4  O   UNL     1       3.823   2.493  19.225  0.00  0.00    +0.000 OA
ATOM      5  N   UNL     1       3.509   4.607  18.314  0.00  0.00    +0.000 N 
ATOM      6  C   UNL     1       2.821   5.454  19.153  0.00  0.00    +0.000 A 
ATOM      7  C   UNL     1       2.127   5.184  20.312  0.00  0.00    +0.000 A 
ATOM      8  C   UNL     1       1.501   6.262  20.948  0.00  0.00    +0.000 A 
ATOM      9  C   UNL     1       1.626   7.572  20.430  0.00  0.00    +0.000 A 
ATOM     10  C   UNL     1       2.351   7.830  19.258  0.00  0.00    +0.000 A 
ATOM     11  C   UNL     1       2.948   6.754  18.632  0.00  0.00    +0.000 A 
ATOM     12  C   UNL     1       3.864   6.756  17.425  0.00  0.00    +0.000 C 
ATOM     13  C   UNL     1       3.854   5.264  17.093  0.00  0.00    +0.000 C 
ENDROOT
BRANCH   9  14
ATOM     14  S   UNL     1       0.813   8.926  21.264  0.00  0.00    +0.000 S 
ATOM     15  O   UNL     1      -0.565   8.549  21.491  0.00  0.00    +0.000 OA
ATOM     16  O   UNL     1       1.672   9.327  22.359  0.00  0.00    +0.000 OA
BRANCH  14  17
ATOM     17  N   UNL     1       0.882  10.174  20.125  0.00  0.00    +0.000 N 
ATOM     18  H   UNL     1       1.754  10.156  19.600  0.00  0.00    +0.000 HD
BRANCH  17  19
ATOM     19  C   UNL     1      -0.298  10.506  19.404  0.00  0.00    +0.000 A 
ATOM     20  C   UNL     1      -0.572   9.864  18.197  0.00  0.00    +0.000 A 
ATOM     21  C   UNL     1      -1.715  10.204  17.472  0.00  0.00    +0.000 A 
ATOM     22  C   UNL     1      -2.568  11.203  17.943  0.00  0.00    +0.000 A 
ATOM     23  C   UNL     1      -2.281  11.858  19.141  0.00  0.00    +0.000 A 
ATOM     24  C   UNL     1      -1.148  11.504  19.877  0.00  0.00    +0.000 A 
ENDBRANCH  17  19
ENDBRANCH  14  17
ENDBRANCH   9  14
BRANCH   1  25
ATOM     25  C   UNL     1       5.218   4.411  15.180  0.00  0.00    +0.000 C 
BRANCH  25  29
ATOM     26  C   UNL     1       8.149   5.556  13.075  0.00  0.00    +0.000 C 
ATOM     27  C   UNL     1       6.957   4.718  13.453  0.00  0.00    +0.000 C 
ATOM     28  O   UNL     1       6.552   3.781  12.774  0.00  0.00    +0.000 OA
ATOM     29  N   UNL     1       6.369   5.103  14.634  0.00  0.00    +0.000 N 
ATOM     30  H   UNL     1       6.730   5.909  15.130  0.00  0.00    +0.000 HD
ENDBRANCH  25  29
ENDBRANCH   1  25
TORSDOF 5
ENDMDL
MODEL 4
REMARK VINA RESULT:      -8.4      3.043      9.032
REMARK  Name = 
REMARK  6 active torsions:
REMARK  status: ('A' for Active; 'I' for Inactive)
REMARK    1  A    between atoms: C_1  and  C_2
REMARK    2  A    between atoms: N_4  and  C_5
REMARK    3  A    between atoms: C_5  and  C_6
REMARK    4  A    between atoms: C_14  and  S_15
REMARK    5  A    between atoms: S_15  and  N_18
REMARK    6  A    between atoms: N_18  and  C_19
REMARK                            x       y       z     vdW  Elec       q    Type
REMARK                         _______ _______ _______ _____ _____    ______ ____
ROOT
ATOM      1  C   UNL     1       3.969   4.757  18.347  0.00  0.00    +0.000 C 
ATOM      2  O   UNL     1       3.515   3.993  19.511  0.00  0.00    +0.000 OA
ATOM      3  C   UNL     1       2.738   4.826  20.299  0.00  0.00    +0.000 C 
ATOM      4  O   UNL     1       2.427   4.578  21.449  0.00  0.00    +0.000 OA
ATOM      5  N   UNL     1       2.457   5.929  19.560  0.00  0.00    +0.000 N 
ATOM      6  C   UNL     1       1.943   7.185  19.792  0.00  0.00    +0.000 A 
ATOM      7  C   UNL     1       1.240   7.670  20.874  0.00  0.00    +0.000 A 
ATOM      8  C   UNL     1       0.821   9.004  20.818  0.00  0.00    +0.000 A 
ATOM      9  C   UNL     1       1.156   9.816  19.709  0.00  0.00    +0.000 A 
ATOM     10  C   UNL     1       1.887   9.309  18.625  0.00  0.00    +0.000 A 
ATOM     11  C   UNL     1       2.277   7.986  18.686  0.00  0.00    +0.000 A 
ATOM     12  C   UNL     1       3.152   7.216  17.717  0.00  0.00    +0.000 C 
ATOM     13  C   UNL     1       2.880   5.792  18.202  0.00  0.00    +0.000 C 
ENDROOT
BRANCH   9  14
ATOM     14  S   UNL     1       0.605  11.514  19.668  0.00  0.00    +0.000 S 
ATOM     15  O   UNL     1      -0.390  11.687  20.703  0.00  0.00    +0.000 OA
ATOM     16  O   UNL     1       1.791  12.343  19.618  0.00  0.00    +0.000 OA
BRANCH  14  17
ATOM     17  N   UNL     1      -0.126  11.642  18.148  0.00  0.00    +0.000 N 
ATOM     18  H   UNL     1       0.517  11.392  17.399  0.00  0.00    +0.000 HD
BRANCH  17  19
ATOM     19  C   UNL     1      -1.478  11.224  18.003  0.00  0.00    +0.000 A 
ATOM     20  C   UNL     1      -2.505  12.031  18.492  0.00  0.00    +0.000 A 
ATOM     21  C   UNL     1      -3.832  11.614  18.376  0.00  0.00    +0.000 A 
ATOM     22  C   UNL     1      -4.126  10.379  17.796  0.00  0.00    +0.000 A 
ATOM     23  C   UNL     1      -3.095   9.565  17.325  0.00  0.00    +0.000 A 
ATOM     24  C   UNL     1      -1.769   9.991  17.422  0.00  0.00    +0.000 A 
ENDBRANCH  17  19
ENDBRANCH  14  17
ENDBRANCH   9  14
BRANCH   1  25
ATOM     25  C   UNL     1       4.034   3.867  17.102  0.00  0.00    +0.000 C 
BRANCH  25  29
ATOM     26  C   UNL     1       6.886   5.101  14.940  0.00  0.00    +0.000 C 
ATOM     27  C   UNL     1       6.224   4.499  16.151  0.00  0.00    +0.000 C 
ATOM     28  O   UNL     1       6.843   4.132  17.142  0.00  0.00    +0.000 OA
ATOM     29  N   UNL     1       4.858   4.404  16.037  0.00  0.00    +0.000 N 
ATOM     30  H   UNL     1       4.409   4.693  15.175  0.00  0.00    +0.000 HD
ENDBRANCH  25  29
ENDBRANCH   1  25
TORSDOF 5
ENDMDL
MODEL 5
REMARK VINA RESULT:      -8.4      1.496      1.801
REMARK  Name = 
REMARK  6 active torsions:
REMARK  status: ('A' for Active; 'I' for Inactive)
REMARK    1  A    between atoms: C_1  and  C_2
REMARK    2  A    between atoms: N_4  and  C_5
REMARK    3  A    between atoms: C_5  and  C_6
REMARK    4  A    between atoms: C_14  and  S_15
REMARK    5  A    between atoms: S_15  and  N_18
REMARK    6  A    between atoms: N_18  and  C_19
REMARK                            x       y       z     vdW  Elec       q    Type
REMARK                         _______ _______ _______ _____ _____    ______ ____
ROOT
ATOM      1  C   UNL     1      -0.253  11.532  22.124  0.00  0.00    +0.000 C 
ATOM      2  O   UNL     1      -0.294  12.405  20.949  0.00  0.00    +0.000 OA
ATOM      3  C   UNL     1       0.291  11.731  19.889  0.00  0.00    +0.000 C 
ATOM      4  O   UNL     1       0.642  12.266  18.854  0.00  0.00    +0.000 OA
ATOM      5  N   UNL     1       0.414  10.431  20.260  0.00  0.00    +0.000 N 
ATOM      6  C   UNL     1       1.078   9.317  19.797  0.00  0.00    +0.000 A 
ATOM      7  C   UNL     1       1.650   9.073  18.567  0.00  0.00    +0.000 A 
ATOM      8  C   UNL     1       2.246   7.820  18.377  0.00  0.00    +0.000 A 
ATOM      9  C   UNL     1       2.287   6.878  19.431  0.00  0.00    +0.000 A 
ATOM     10  C   UNL     1       1.713   7.151  20.681  0.00  0.00    +0.000 A 
ATOM     11  C   UNL     1       1.113   8.383  20.848  0.00  0.00    +0.000 A 
ATOM     12  C   UNL     1       0.515   8.978  22.107  0.00  0.00    +0.000 C 
ATOM     13  C   UNL     1      -0.243  10.157  21.499  0.00  0.00    +0.000 C 
ENDROOT
BRANCH   9  14
ATOM     14  S   UNL     1       3.052   5.288  19.156  0.00  0.00    +0.000 S 
ATOM     15  O   UNL     1       3.068   4.575  20.415  0.00  0.00    +0.000 OA
ATOM     16  O   UNL     1       2.434   4.718  17.977  0.00  0.00    +0.000 OA
BRANCH  14  17
ATOM     17  N   UNL     1       4.633   5.695  18.712  0.00  0.00    +0.000 N 
ATOM     18  H   UNL     1       5.293   5.514  19.466  0.00  0.00    +0.000 HD
BRANCH  17  19
ATOM     19  C   UNL     1       5.068   5.402  17.391  0.00  0.00    +0.000 A 
ATOM     20  C   UNL     1       5.005   6.391  16.409  0.00  0.00    +0.000 A 
ATOM     21  C   UNL     1       5.407   6.102  15.104  0.00  0.00    +0.000 A 
ATOM     22  C   UNL     1       5.844   4.818  14.778  0.00  0.00    +0.000 A 
ATOM     23  C   UNL     1       5.887   3.825  15.757  0.00  0.00    +0.000 A 
ATOM     24  C   UNL     1       5.506   4.119  17.068  0.00  0.00    +0.000 A 
ENDBRANCH  17  19
ENDBRANCH  14  17
ENDBRANCH   9  14
BRANCH   1  25
ATOM     25  C   UNL     1      -1.504  11.720  22.987  0.00  0.00    +0.000 C 
BRANCH  25  29
ATOM     26  C   UNL     1      -4.866  13.131  21.967  0.00  0.00    +0.000 C 
ATOM     27  C   UNL     1      -3.854  12.472  22.866  0.00  0.00    +0.000 C 
ATOM     28  O   UNL     1      -4.113  12.086  24.000  0.00  0.00    +0.000 OA
ATOM     29  N   UNL     1      -2.612  12.344  22.291  0.00  0.00    +0.000 N 
ATOM     30  H   UNL     1      -2.453  12.716  21.361  0.00  0.00    +0.000 HD
ENDBRANCH  25  29
ENDBRANCH   1  25
TORSDOF 5
ENDMDL
MODEL 6
REMARK VINA RESULT:      -8.4      3.332      9.788
REMARK  Name = 
REMARK  6 active torsions:
REMARK  status: ('A' for Active; 'I' for Inactive)
REMARK    1  A    between atoms: C_1  and  C_2
REMARK    2  A    between atoms: N_4  and  C_5
REMARK    3  A    between atoms: C_5  and  C_6
REMARK    4  A    between atoms: C_14  and  S_15
REMARK    5  A    between atoms: S_15  and  N_18
REMARK    6  A    between atoms: N_18  and  C_19
REMARK                            x       y       z     vdW  Elec       q    Type
REMARK                         _______ _______ _______ _____ _____    ______ ____
ROOT
ATOM      1  C   UNL     1       6.615   5.132  16.308  0.00  0.00    +0.000 C 
ATOM      2  O   UNL     1       6.553   4.032  17.272  0.00  0.00    +0.000 OA
ATOM      3  C   UNL     1       5.565   4.324  18.198  0.00  0.00    +0.000 C 
ATOM      4  O   UNL     1       5.438   3.747  19.262  0.00  0.00    +0.000 OA
ATOM      5  N   UNL     1       4.844   5.361  17.701  0.00  0.00    +0.000 N 
ATOM      6  C   UNL     1       3.906   6.248  18.179  0.00  0.00    +0.000 A 
ATOM      7  C   UNL     1       3.135   6.194  19.320  0.00  0.00    +0.000 A 
ATOM      8  C   UNL     1       2.239   7.248  19.536  0.00  0.00    +0.000 A 
ATOM      9  C   UNL     1       2.176   8.333  18.632  0.00  0.00    +0.000 A 
ATOM     10  C   UNL     1       2.980   8.379  17.484  0.00  0.00    +0.000 A 
ATOM     11  C   UNL     1       3.846   7.324  17.275  0.00  0.00    +0.000 A 
ATOM     12  C   UNL     1       4.891   7.163  16.189  0.00  0.00    +0.000 C 
ATOM     13  C   UNL     1       5.208   5.677  16.356  0.00  0.00    +0.000 C 
ENDROOT
BRANCH   9  14
ATOM     14  S   UNL     1       1.020   9.661  18.935  0.00  0.00    +0.000 S 
ATOM     15  O   UNL     1       0.315   9.368  20.164  0.00  0.00    +0.000 OA
ATOM     16  O   UNL     1       1.745  10.902  18.761  0.00  0.00    +0.000 OA
BRANCH  14  17
ATOM     17  N   UNL     1      -0.046   9.547  17.626  0.00  0.00    +0.000 N 
ATOM     18  H   UNL     1      -0.018   8.623  17.198  0.00  0.00    +0.000 HD
BRANCH  17  19
ATOM     19  C   UNL     1      -1.318  10.173  17.726  0.00  0.00    +0.000 A 
ATOM     20  C   UNL     1      -2.340   9.804  16.851  0.00  0.00    +0.000 A 
ATOM     21  C   UNL     1      -3.583  10.433  16.928  0.00  0.00    +0.000 A 
ATOM     22  C   UNL     1      -3.794  11.449  17.861  0.00  0.00    +0.000 A 
ATOM     23  C   UNL     1      -2.764  11.830  18.722  0.00  0.00    +0.000 A 
ATOM     24  C   UNL     1      -1.527  11.187  18.660  0.00  0.00    +0.000 A 
ENDBRANCH  17  19
ENDBRANCH  14  17
ENDBRANCH   9  14
BRANCH   1  25
ATOM     25  C   UNL     1       6.941   4.610  14.905  0.00  0.00    +0.000 C 
BRANCH  25  29
ATOM     26  C   UNL     1       4.552   3.356  12.249  0.00  0.00    +0.000 C 
ATOM     27  C   UNL     1       5.877   3.729  12.857  0.00  0.00    +0.000 C 
ATOM     28  O   UNL     1       6.941   3.638  12.256  0.00  0.00    +0.000 OA
ATOM     29  N   UNL     1       5.779   4.184  14.150  0.00  0.00    +0.000 N 
ATOM     30  H   UNL     1       4.873   4.203  14.603  0.00  0.00    +0.000 HD
ENDBRANCH  25  29
ENDBRANCH   1  25
TORSDOF 5
ENDMDL
MODEL 7
REMARK VINA RESULT:      -8.3      2.831      4.200
REMARK  Name = 
REMARK  6 active torsions:
REMARK  status: ('A' for Active; 'I' for Inactive)
REMARK    1  A    between atoms: C_1  and  C_2
REMARK    2  A    between atoms: N_4  and  C_5
REMARK    3  A    between atoms: C_5  and  C_6
REMARK    4  A    between atoms: C_14  and  S_15
REMARK    5  A    between atoms: S_15  and  N_18
REMARK    6  A    between atoms: N_18  and  C_19
REMARK                            x       y       z     vdW  Elec       q    Type
REMARK                         _______ _______ _______ _____ _____    ______ ____
ROOT
ATOM      1  C   UNL     1      -0.241  10.539  19.249  0.00  0.00    +0.000 C 
ATOM      2  O   UNL     1      -0.600  10.084  20.593  0.00  0.00    +0.000 OA
ATOM      3  C   UNL     1       0.140   8.948  20.877  0.00  0.00    +0.000 C 
ATOM      4  O   UNL     1      -0.106   8.188  21.795  0.00  0.00    +0.000 OA
ATOM      5  N   UNL     1       1.112   8.856  19.934  0.00  0.00    +0.000 N 
ATOM      6  C   UNL     1       2.010   7.903  19.512  0.00  0.00    +0.000 A 
ATOM      7  C   UNL     1       2.435   6.747  20.132  0.00  0.00    +0.000 A 
ATOM      8  C   UNL     1       3.387   5.973  19.459  0.00  0.00    +0.000 A 
ATOM      9  C   UNL     1       3.848   6.356  18.178  0.00  0.00    +0.000 A 
ATOM     10  C   UNL     1       3.391   7.526  17.555  0.00  0.00    +0.000 A 
ATOM     11  C   UNL     1       2.466   8.289  18.239  0.00  0.00    +0.000 A 
ATOM     12  C   UNL     1       1.734   9.530  17.768  0.00  0.00    +0.000 C 
ATOM     13  C   UNL     1       1.168  10.016  19.101  0.00  0.00    +0.000 C 
ENDROOT
BRANCH   9  14
ATOM     14  S   UNL     1       5.065   5.348  17.347  0.00  0.00    +0.000 S 
ATOM     15  O   UNL     1       5.673   6.148  16.306  0.00  0.00    +0.000 OA
ATOM     16  O   UNL     1       5.866   4.716  18.374  0.00  0.00    +0.000 OA
BRANCH  14  17
ATOM     17  N   UNL     1       4.134   4.120  16.649  0.00  0.00    +0.000 N 
ATOM     18  H   UNL     1       4.681   3.556  16.001  0.00  0.00    +0.000 HD
BRANCH  17  19
ATOM     19  C   UNL     1       3.190   3.434  17.462  0.00  0.00    +0.000 A 
ATOM     20  C   UNL     1       1.867   3.874  17.504  0.00  0.00    +0.000 A 
ATOM     21  C   UNL     1       0.942   3.220  18.320  0.00  0.00    +0.000 A 
ATOM     22  C   UNL     1       1.348   2.145  19.111  0.00  0.00    +0.000 A 
ATOM     23  C   UNL     1       2.677   1.719  19.082  0.00  0.00    +0.000 A 
ATOM     24  C   UNL     1       3.598   2.359  18.251  0.00  0.00    +0.000 A 
ENDBRANCH  17  19
ENDBRANCH  14  17
ENDBRANCH   9  14
BRANCH   1  25
ATOM     25  C   UNL     1      -0.257  12.069  19.168  0.00  0.00    +0.000 C 
BRANCH  25  29
ATOM     26  C   UNL     1       2.787  13.710  20.707  0.00  0.00    +0.000 C 
ATOM     27  C   UNL     1       1.423  13.075  20.673  0.00  0.00    +0.000 C 
ATOM     28  O   UNL     1       0.728  12.920  21.671  0.00  0.00    +0.000 OA
ATOM     29  N   UNL     1       1.031  12.686  19.415  0.00  0.00    +0.000 N 
ATOM     30  H   UNL     1       1.667  12.809  18.635  0.00  0.00    +0.000 HD
ENDBRANCH  25  29
ENDBRANCH   1  25
TORSDOF 5
ENDMDL
MODEL 8
REMARK VINA RESULT:      -8.3      2.447      3.213
REMARK  Name = 
REMARK  6 active torsions:
REMARK  status: ('A' for Active; 'I' for Inactive)
REMARK    1  A    between atoms: C_1  and  C_2
REMARK    2  A    between atoms: N_4  and  C_5
REMARK    3  A    between atoms: C_5  and  C_6
REMARK    4  A    between atoms: C_14  and  S_15
REMARK    5  A    between atoms: S_15  and  N_18
REMARK    6  A    between atoms: N_18  and  C_19
REMARK                            x       y       z     vdW  Elec       q    Type
REMARK                         _______ _______ _______ _____ _____    ______ ____
ROOT
ATOM      1  C   UNL     1       0.767  10.333  19.000  0.00  0.00    +0.000 C 
ATOM      2  O   UNL     1       0.342  10.343  20.401  0.00  0.00    +0.000 OA
ATOM      3  C   UNL     1       0.630   9.103  20.948  0.00  0.00    +0.000 C 
ATOM      4  O   UNL     1       0.175   8.704  22.004  0.00  0.00    +0.000 OA
ATOM      5  N   UNL     1       1.447   8.459  20.076  0.00  0.00    +0.000 N 
ATOM      6  C   UNL     1       1.908   7.175  19.899  0.00  0.00    +0.000 A 
ATOM      7  C   UNL     1       1.915   6.106  20.770  0.00  0.00    +0.000 A 
ATOM      8  C   UNL     1       2.478   4.910  20.311  0.00  0.00    +0.000 A 
ATOM      9  C   UNL     1       2.974   4.811  18.990  0.00  0.00    +0.000 A 
ATOM     10  C   UNL     1       2.944   5.905  18.112  0.00  0.00    +0.000 A 
ATOM     11  C   UNL     1       2.401   7.083  18.585  0.00  0.00    +0.000 A 
ATOM     12  C   UNL     1       2.149   8.374  17.832  0.00  0.00    +0.000 C 
ATOM     13  C   UNL     1       1.876   9.309  19.010  0.00  0.00    +0.000 C 
ENDROOT
BRANCH   9  14
ATOM     14  S   UNL     1       3.689   3.272  18.435  0.00  0.00    +0.000 S 
ATOM     15  O   UNL     1       3.105   2.201  19.213  0.00  0.00    +0.000 OA
ATOM     16  O   UNL     1       3.626   3.272  16.988  0.00  0.00    +0.000 OA
BRANCH  14  17
ATOM     17  N   UNL     1       5.323   3.442  18.837  0.00  0.00    +0.000 N 
ATOM     18  H   UNL     1       5.797   2.541  18.872  0.00  0.00    +0.000 HD
BRANCH  17  19
ATOM     19  C   UNL     1       6.052   4.532  18.289  0.00  0.00    +0.000 A 
ATOM     20  C   UNL     1       6.170   4.656  16.904  0.00  0.00    +0.000 A 
ATOM     21  C   UNL     1       6.905   5.711  16.361  0.00  0.00    +0.000 A 
ATOM     22  C   UNL     1       7.542   6.624  17.202  0.00  0.00    +0.000 A 
ATOM     23  C   UNL     1       7.439   6.486  18.587  0.00  0.00    +0.000 A 
ATOM     24  C   UNL     1       6.686   5.444  19.132  0.00  0.00    +0.000 A 
ENDBRANCH  17  19
ENDBRANCH  14  17
ENDBRANCH   9  14
BRANCH   1  25
ATOM     25  C   UNL     1       1.308  11.705  18.584  0.00  0.00    +0.000 C 
BRANCH  25  29
ATOM     26  C   UNL     1       2.125  14.349  21.167  0.00  0.00    +0.000 C 
ATOM     27  C   UNL     1       1.390  13.715  20.017  0.00  0.00    +0.000 C 
ATOM     28  O   UNL     1       0.455  14.256  19.438  0.00  0.00    +0.000 OA
ATOM     29  N   UNL     1       1.870  12.473  19.678  0.00  0.00    +0.000 N 
ATOM     30  H   UNL     1       2.623  12.066  20.219  0.00  0.00    +0.000 HD
ENDBRANCH  25  29
ENDBRANCH   1  25
TORSDOF 5
ENDMDL
MODEL 9
REMARK VINA RESULT:      -8.3      2.283      3.395
REMARK  Name = 
REMARK  6 active torsions:
REMARK  status: ('A' for Active; 'I' for Inactive)
REMARK    1  A    between atoms: C_1  and  C_2
REMARK    2  A    between atoms: N_4  and  C_5
REMARK    3  A    between atoms: C_5  and  C_6
REMARK    4  A    between atoms: C_14  and  S_15
REMARK    5  A    between atoms: S_15  and  N_18
REMARK    6  A    between atoms: N_18  and  C_19
REMARK                            x       y       z     vdW  Elec       q    Type
REMARK                         _______ _______ _______ _____ _____    ______ ____
ROOT
ATOM      1  C   UNL     1       0.333  10.655  19.151  0.00  0.00    +0.000 C 
ATOM      2  O   UNL     1       0.011  10.540  20.575  0.00  0.00    +0.000 OA
ATOM      3  C   UNL     1       0.460   9.308  21.021  0.00  0.00    +0.000 C 
ATOM      4  O   UNL     1       0.125   8.803  22.077  0.00  0.00    +0.000 OA
ATOM      5  N   UNL     1       1.273   8.804  20.058  0.00  0.00    +0.000 N 
ATOM      6  C   UNL     1       1.848   7.587  19.769  0.00  0.00    +0.000 A 
ATOM      7  C   UNL     1       2.024   6.477  20.567  0.00  0.00    +0.000 A 
ATOM      8  C   UNL     1       2.671   5.376  19.996  0.00  0.00    +0.000 A 
ATOM      9  C   UNL     1       3.078   5.405  18.641  0.00  0.00    +0.000 A 
ATOM     10  C   UNL     1       2.874   6.537  17.839  0.00  0.00    +0.000 A 
ATOM     11  C   UNL     1       2.252   7.623  18.422  0.00  0.00    +0.000 A 
ATOM     12  C   UNL     1       1.817   8.922  17.772  0.00  0.00    +0.000 C 
ATOM     13  C   UNL     1       1.537   9.754  19.023  0.00  0.00    +0.000 C 
ENDROOT
BRANCH   9  14
ATOM     14  S   UNL     1       3.902   3.983  17.943  0.00  0.00    +0.000 S 
ATOM     15  O   UNL     1       4.592   3.296  19.012  0.00  0.00    +0.000 OA
ATOM     16  O   UNL     1       2.936   3.299  17.109  0.00  0.00    +0.000 OA
BRANCH  14  17
ATOM     17  N   UNL     1       5.031   4.675  16.889  0.00  0.00    +0.000 N 
ATOM     18  H   UNL     1       4.591   5.013  16.036  0.00  0.00    +0.000 HD
BRANCH  17  19
ATOM     19  C   UNL     1       6.075   5.471  17.435  0.00  0.00    +0.000 A 
ATOM     20  C   UNL     1       6.816   4.992  18.516  0.00  0.00    +0.000 A 
ATOM     21  C   UNL     1       7.825   5.779  19.071  0.00  0.00    +0.000 A 
ATOM     22  C   UNL     1       8.073   7.055  18.563  0.00  0.00    +0.000 A 
ATOM     23  C   UNL     1       7.318   7.540  17.494  0.00  0.00    +0.000 A 
ATOM     24  C   UNL     1       6.323   6.744  16.924  0.00  0.00    +0.000 A 
ENDBRANCH  17  19
ENDBRANCH  14  17
ENDBRANCH   9  14
BRANCH   1  25
ATOM     25  C   UNL     1       0.701  12.097  18.790  0.00  0.00    +0.000 C 
BRANCH  25  29
ATOM     26  C   UNL     1       3.194  14.127  20.790  0.00  0.00    +0.000 C 
ATOM     27  C   UNL     1       2.588  13.487  19.569  0.00  0.00    +0.000 C 
ATOM     28  O   UNL     1       3.083  13.572  18.451  0.00  0.00    +0.000 OA
ATOM     29  N   UNL     1       1.428  12.798  19.830  0.00  0.00    +0.000 N 
ATOM     30  H   UNL     1       1.052  12.796  20.771  0.00  0.00    +0.000 HD
ENDBRANCH  25  29
ENDBRANCH   1  25
TORSDOF 5
ENDMDL
