MODEL 1
REMARK VINA RESULT:      -8.3      0.000      0.000
REMARK  Name = 
REMARK  9 active torsions:
REMARK  status: ('A' for Active; 'I' for Inactive)
REMARK    1  A    between atoms: C_1  and  C_2
REMARK    2  A    between atoms: C_3  and  C_4
REMARK    3  A    between atoms: C_4  and  C_5
REMARK    4  A    between atoms: C_5  and  O_7
REMARK    5  A    between atoms: C_10  and  O_11
REMARK    6  A    between atoms: O_11  and  C_12
REMARK    7  A    between atoms: C_12  and  C_13
REMARK    8  A    between atoms: C_23  and  C_25
REMARK    9  A    between atoms: C_28  and  C_29
REMARK                            x       y       z     vdW  Elec       q    Type
REMARK                         _______ _______ _______ _____ _____    ______ ____
ROOT
ATOM      1  C   UNL     1      -1.828  11.186  19.274  0.00  0.00    +0.000 C 
ATOM      2  C   UNL     1      -0.562  11.541  20.089  0.00  0.00    +0.000 C 
ATOM      3  C   UNL     1       0.635  11.292  19.134  0.00  0.00    +0.000 C 
ATOM      4  C   UNL     1       0.993   9.892  19.546  0.00  0.00    +0.000 A 
ATOM      5  C   UNL     1       1.765   9.003  18.824  0.00  0.00    +0.000 A 
ATOM      6  C   UNL     1       2.061   7.769  19.397  0.00  0.00    +0.000 A 
ATOM      7  C   UNL     1       1.547   7.438  20.662  0.00  0.00    +0.000 A 
ATOM      8  C   UNL     1       0.749   8.344  21.378  0.00  0.00    +0.000 A 
ATOM      9  C   UNL     1       0.459   9.566  20.796  0.00  0.00    +0.000 A 
ATOM     10  N   UNL     1      -0.360  10.628  21.260  0.00  0.00    +0.000 N 
ATOM     11  C   UNL     1      -0.747  10.785  22.595  0.00  0.00    +0.000 C 
ATOM     12  O   UNL     1      -0.451   9.993  23.493  0.00  0.00    +0.000 OA
ENDROOT
BRANCH  11  13
ATOM     13  C   UNL     1      -1.474  12.020  23.042  0.00  0.00    +0.000 A 
ATOM     14  C   UNL     1      -0.883  13.282  23.078  0.00  0.00    +0.000 A 
ATOM     15  C   UNL     1      -1.562  14.407  23.538  0.00  0.00    +0.000 A 
ATOM     16  C   UNL     1      -2.902  14.303  23.901  0.00  0.00    +0.000 A 
ATOM     17  C   UNL     1      -3.543  13.066  23.806  0.00  0.00    +0.000 A 
ATOM     18  C   UNL     1      -2.832  11.928  23.385  0.00  0.00    +0.000 A 
BRANCH  16  19
ATOM     19  C   UNL     1      -3.597  15.471  24.334  0.00  0.00    +0.000 C 
ATOM     20  N   UNL     1      -4.141  16.433  24.702  0.00  0.00    +0.000 NA
ENDBRANCH  16  19
ENDBRANCH  11  13
BRANCH   3  21
ATOM     21  C   UNL     1       1.804  12.262  19.323  0.00  0.00    +0.000 C 
BRANCH  21  22
ATOM     22  C   UNL     1       1.726  13.397  18.331  0.00  0.00    +0.000 C 
ATOM     23  O   UNL     1       1.110  14.437  18.508  0.00  0.00    +0.000 OA
BRANCH  22  24
ATOM     24  O   UNL     1       2.421  13.154  17.201  0.00  0.00    +0.000 OA
ATOM     25  H   UNL     1       3.379  13.332  17.271  0.00  0.00    +0.000 HD
ENDBRANCH  22  24
ENDBRANCH  21  22
ENDBRANCH   3  21
BRANCH   6  26
ATOM     26  O   UNL     1       2.841   6.817  18.797  0.00  0.00    +0.000 OA
BRANCH  26  27
ATOM     27  C   UNL     1       3.726   7.315  17.786  0.00  0.00    +0.000 C 
BRANCH  27  28
ATOM     28  C   UNL     1       4.375   6.183  17.032  0.00  0.00    +0.000 A 
ATOM     29  C   UNL     1       4.156   4.860  17.444  0.00  0.00    +0.000 A 
ATOM     30  C   UNL     1       4.720   3.799  16.738  0.00  0.00    +0.000 A 
ATOM     31  C   UNL     1       5.497   4.048  15.609  0.00  0.00    +0.000 A 
ATOM     32  C   UNL     1       5.698   5.357  15.174  0.00  0.00    +0.000 A 
ATOM     33  C   UNL     1       5.132   6.419  15.877  0.00  0.00    +0.000 A 
ENDBRANCH  27  28
ENDBRANCH  26  27
ENDBRANCH   6  26
TORSDOF 8
ENDMDL
MODEL 2
REMARK VINA RESULT:      -8.3      1.543      1.598
REMARK  Name = 
REMARK  9 active torsions:
REMARK  status: ('A' for Active; 'I' for Inactive)
REMARK    1  A    between atoms: C_1  and  C_2
REMARK    2  A    between atoms: C_3  and  C_4
REMARK    3  A    between atoms: C_4  and  C_5
REMARK    4  A    between atoms: C_5  and  O_7
REMARK    5  A    between atoms: C_10  and  O_11
REMARK    6  A    between atoms: O_11  and  C_12
REMARK    7  A    between atoms: C_12  and  C_13
REMARK    8  A    between atoms: C_23  and  C_25
REMARK    9  A    between atoms: C_28  and  C_29
REMARK                            x       y       z     vdW  Elec       q    Type
REMARK                         _______ _______ _______ _____ _____    ______ ____
ROOT
ATOM      1  C   UNL     1      -1.927  11.430  19.364  0.00  0.00    +0.000 C 
ATOM      2  C   UNL     1      -0.666  11.748  20.202  0.00  0.00    +0.000 C 
ATOM      3  C   UNL     1       0.539  11.517  19.253  0.00  0.00    +0.000 C 
ATOM      4  C   UNL     1       0.880  10.103  19.624  0.00  0.00    +0.000 A 
ATOM      5  C   UNL     1       1.651   9.229  18.883  0.00  0.00    +0.000 A 
ATOM      6  C   UNL     1       1.930   7.975  19.420  0.00  0.00    +0.000 A 
ATOM      7  C   UNL     1       1.400   7.610  20.669  0.00  0.00    +0.000 A 
ATOM      8  C   UNL     1       0.602   8.501  21.405  0.00  0.00    +0.000 A 
ATOM      9  C   UNL     1       0.329   9.742  20.858  0.00  0.00    +0.000 A 
ATOM     10  N   UNL     1      -0.486  10.797  21.346  0.00  0.00    +0.000 N 
ATOM     11  C   UNL     1      -0.884  10.915  22.682  0.00  0.00    +0.000 C 
ATOM     12  O   UNL     1      -0.606  10.093  23.558  0.00  0.00    +0.000 OA
ENDROOT
BRANCH  11  13
ATOM     13  C   UNL     1      -1.605  12.143  23.159  0.00  0.00    +0.000 A 
ATOM     14  C   UNL     1      -1.001  13.396  23.250  0.00  0.00    +0.000 A 
ATOM     15  C   UNL     1      -1.675  14.512  23.738  0.00  0.00    +0.000 A 
ATOM     16  C   UNL     1      -3.022  14.412  24.074  0.00  0.00    +0.000 A 
ATOM     17  C   UNL     1      -3.676  13.186  23.923  0.00  0.00    +0.000 A 
ATOM     18  C   UNL     1      -2.970  12.055  23.475  0.00  0.00    +0.000 A 
BRANCH  16  19
ATOM     19  C   UNL     1      -3.711  15.572  24.535  0.00  0.00    +0.000 C 
ATOM     20  N   UNL     1      -4.277  16.508  24.939  0.00  0.00    +0.000 NA
ENDBRANCH  16  19
ENDBRANCH  11  13
BRANCH   3  21
ATOM     21  C   UNL     1       1.715  12.470  19.484  0.00  0.00    +0.000 C 
BRANCH  21  22
ATOM     22  C   UNL     1       1.838  13.456  18.348  0.00  0.00    +0.000 C 
ATOM     23  O   UNL     1       1.466  14.619  18.390  0.00  0.00    +0.000 OA
BRANCH  22  24
ATOM     24  O   UNL     1       2.417  12.923  17.252  0.00  0.00    +0.000 OA
ATOM     25  H   UNL     1       2.617  13.569  16.548  0.00  0.00    +0.000 HD
ENDBRANCH  22  24
ENDBRANCH  21  22
ENDBRANCH   3  21
BRANCH   6  26
ATOM     26  O   UNL     1       2.708   7.035  18.799  0.00  0.00    +0.000 OA
BRANCH  26  27
ATOM     27  C   UNL     1       3.217   6.012  19.663  0.00  0.00    +0.000 C 
BRANCH  27  28
ATOM     28  C   UNL     1       3.143   4.659  19.001  0.00  0.00    +0.000 A 
ATOM     29  C   UNL     1       3.885   3.590  19.526  0.00  0.00    +0.000 A 
ATOM     30  C   UNL     1       3.802   2.324  18.948  0.00  0.00    +0.000 A 
ATOM     31  C   UNL     1       2.971   2.112  17.850  0.00  0.00    +0.000 A 
ATOM     32  C   UNL     1       2.208   3.160  17.339  0.00  0.00    +0.000 A 
ATOM     33  C   UNL     1       2.287   4.426  17.917  0.00  0.00    +0.000 A 
ENDBRANCH  27  28
ENDBRANCH  26  27
ENDBRANCH   6  26
TORSDOF 8
ENDMDL
MODEL 3
REMARK VINA RESULT:      -8.2      1.679      2.310
REMARK  Name = 
REMARK  9 active torsions:
REMARK  status: ('A' for Active; 'I' for Inactive)
REMARK    1  A    between atoms: C_1  and  C_2
REMARK    2  A    between atoms: C_3  and  C_4
REMARK    3  A    between atoms: C_4  and  C_5
REMARK    4  A    between atoms: C_5  and  O_7
REMARK    5  A    between atoms: C_10  and  O_11
REMARK    6  A    between atoms: O_11  and  C_12
REMARK    7  A    between atoms: C_12  and  C_13
REMARK    8  A    between atoms: C_23  and  C_25
REMARK    9  A    between atoms: C_28  and  C_29
REMARK                            x       y       z     vdW  Elec       q    Type
REMARK                         _______ _______ _______ _____ _____    ______ ____
ROOT
ATOM      1  C   UNL     1      -2.246  11.538  19.392  0.00  0.00    +0.000 C 
ATOM      2  C   UNL     1      -0.953  11.952  20.133  0.00  0.00    +0.000 C 
ATOM      3  C   UNL     1       0.198  11.755  19.113  0.00  0.00    +0.000 C 
ATOM      4  C   UNL     1       0.642  10.375  19.503  0.00  0.00    +0.000 A 
ATOM      5  C   UNL     1       1.411   9.519  18.739  0.00  0.00    +0.000 A 
ATOM      6  C   UNL     1       1.795   8.301  19.293  0.00  0.00    +0.000 A 
ATOM      7  C   UNL     1       1.369   7.951  20.586  0.00  0.00    +0.000 A 
ATOM      8  C   UNL     1       0.573   8.822  21.347  0.00  0.00    +0.000 A 
ATOM      9  C   UNL     1       0.195  10.027  20.782  0.00  0.00    +0.000 A 
ATOM     10  N   UNL     1      -0.644  11.052  21.291  0.00  0.00    +0.000 N 
ATOM     11  C   UNL     1      -0.961  11.195  22.646  0.00  0.00    +0.000 C 
ATOM     12  O   UNL     1      -0.579  10.420  23.526  0.00  0.00    +0.000 OA
ENDROOT
BRANCH  11  13
ATOM     13  C   UNL     1      -1.717  12.397  23.133  0.00  0.00    +0.000 A 
ATOM     14  C   UNL     1      -1.137  13.657  23.275  0.00  0.00    +0.000 A 
ATOM     15  C   UNL     1      -1.845  14.748  23.772  0.00  0.00    +0.000 A 
ATOM     16  C   UNL     1      -3.199  14.617  24.063  0.00  0.00    +0.000 A 
ATOM     17  C   UNL     1      -3.827  13.385  23.862  0.00  0.00    +0.000 A 
ATOM     18  C   UNL     1      -3.089  12.278  23.406  0.00  0.00    +0.000 A 
BRANCH  16  19
ATOM     19  C   UNL     1      -3.922  15.753  24.534  0.00  0.00    +0.000 C 
ATOM     20  N   UNL     1      -4.521  16.666  24.942  0.00  0.00    +0.000 NA
ENDBRANCH  16  19
ENDBRANCH  11  13
BRANCH   3  21
ATOM     21  C   UNL     1       1.331  12.777  19.234  0.00  0.00    +0.000 C 
BRANCH  21  22
ATOM     22  C   UNL     1       0.781  14.165  19.455  0.00  0.00    +0.000 C 
ATOM     23  O   UNL     1       0.090  14.778  18.655  0.00  0.00    +0.000 OA
BRANCH  22  24
ATOM     24  O   UNL     1       1.126  14.681  20.653  0.00  0.00    +0.000 OA
ATOM     25  H   UNL     1       1.903  14.257  21.066  0.00  0.00    +0.000 HD
ENDBRANCH  22  24
ENDBRANCH  21  22
ENDBRANCH   3  21
BRANCH   6  26
ATOM     26  O   UNL     1       2.582   7.384  18.651  0.00  0.00    +0.000 OA
BRANCH  26  27
ATOM     27  C   UNL     1       3.072   6.325  19.482  0.00  0.00    +0.000 C 
BRANCH  27  28
ATOM     28  C   UNL     1       2.334   5.039  19.211  0.00  0.00    +0.000 A 
ATOM     29  C   UNL     1       2.502   4.392  17.977  0.00  0.00    +0.000 A 
ATOM     30  C   UNL     1       1.854   3.184  17.721  0.00  0.00    +0.000 A 
ATOM     31  C   UNL     1       1.044   2.607  18.696  0.00  0.00    +0.000 A 
ATOM     32  C   UNL     1       0.893   3.227  19.935  0.00  0.00    +0.000 A 
ATOM     33  C   UNL     1       1.542   4.433  20.194  0.00  0.00    +0.000 A 
ENDBRANCH  27  28
ENDBRANCH  26  27
ENDBRANCH   6  26
TORSDOF 8
ENDMDL
MODEL 4
REMARK VINA RESULT:      -8.2      1.792      2.337
REMARK  Name = 
REMARK  9 active torsions:
REMARK  status: ('A' for Active; 'I' for Inactive)
REMARK    1  A    between atoms: C_1  and  C_2
REMARK    2  A    between atoms: C_3  and  C_4
REMARK    3  A    between atoms: C_4  and  C_5
REMARK    4  A    between atoms: C_5  and  O_7
REMARK    5  A    between atoms: C_10  and  O_11
REMARK    6  A    between atoms: O_11  and  C_12
REMARK    7  A    between atoms: C_12  and  C_13
REMARK    8  A    between atoms: C_23  and  C_25
REMARK    9  A    between atoms: C_28  and  C_29
REMARK                            x       y       z     vdW  Elec       q    Type
REMARK                         _______ _______ _______ _____ _____    ______ ____
ROOT
ATOM      1  C   UNL     1      -1.994  11.054  19.255  0.00  0.00    +0.000 C 
ATOM      2  C   UNL     1      -0.689  11.533  19.934  0.00  0.00    +0.000 C 
ATOM      3  C   UNL     1       0.438  11.296  18.894  0.00  0.00    +0.000 C 
ATOM      4  C   UNL     1       0.918   9.949  19.353  0.00  0.00    +0.000 A 
ATOM      5  C   UNL     1       1.682   9.063  18.619  0.00  0.00    +0.000 A 
ATOM      6  C   UNL     1       2.104   7.887  19.233  0.00  0.00    +0.000 A 
ATOM      7  C   UNL     1       1.720   7.607  20.556  0.00  0.00    +0.000 A 
ATOM      8  C   UNL     1       0.928   8.507  21.285  0.00  0.00    +0.000 A 
ATOM      9  C   UNL     1       0.512   9.670  20.661  0.00  0.00    +0.000 A 
ATOM     10  N   UNL     1      -0.332  10.709  21.133  0.00  0.00    +0.000 N 
ATOM     11  C   UNL     1      -0.615  10.926  22.486  0.00  0.00    +0.000 C 
ATOM     12  O   UNL     1      -0.195  10.211  23.399  0.00  0.00    +0.000 OA
ENDROOT
BRANCH  11  13
ATOM     13  C   UNL     1      -1.380  12.142  22.923  0.00  0.00    +0.000 A 
ATOM     14  C   UNL     1      -0.811  13.411  23.011  0.00  0.00    +0.000 A 
ATOM     15  C   UNL     1      -1.527  14.517  23.461  0.00  0.00    +0.000 A 
ATOM     16  C   UNL     1      -2.880  14.387  23.760  0.00  0.00    +0.000 A 
ATOM     17  C   UNL     1      -3.498  13.143  23.611  0.00  0.00    +0.000 A 
ATOM     18  C   UNL     1      -2.751  12.024  23.201  0.00  0.00    +0.000 A 
BRANCH  16  19
ATOM     19  C   UNL     1      -3.612  15.536  24.183  0.00  0.00    +0.000 C 
ATOM     20  N   UNL     1      -4.184  16.487  24.537  0.00  0.00    +0.000 NA
ENDBRANCH  16  19
ENDBRANCH  11  13
BRANCH   3  21
ATOM     21  C   UNL     1       1.554  12.343  18.924  0.00  0.00    +0.000 C 
BRANCH  21  22
ATOM     22  C   UNL     1       1.298  13.371  19.999  0.00  0.00    +0.000 C 
ATOM     23  O   UNL     1       0.531  14.316  19.893  0.00  0.00    +0.000 OA
BRANCH  22  24
ATOM     24  O   UNL     1       2.010  13.143  21.123  0.00  0.00    +0.000 OA
ATOM     25  H   UNL     1       2.781  13.730  21.237  0.00  0.00    +0.000 HD
ENDBRANCH  22  24
ENDBRANCH  21  22
ENDBRANCH   3  21
BRANCH   6  26
ATOM     26  O   UNL     1       2.890   6.947  18.623  0.00  0.00    +0.000 OA
BRANCH  26  27
ATOM     27  C   UNL     1       3.390   5.925  19.494  0.00  0.00    +0.000 C 
BRANCH  27  28
ATOM     28  C   UNL     1       2.513   4.700  19.447  0.00  0.00    +0.000 A 
ATOM     29  C   UNL     1       2.056   4.129  20.645  0.00  0.00    +0.000 A 
ATOM     30  C   UNL     1       1.217   3.016  20.620  0.00  0.00    +0.000 A 
ATOM     31  C   UNL     1       0.818   2.472  19.402  0.00  0.00    +0.000 A 
ATOM     32  C   UNL     1       1.242   3.048  18.207  0.00  0.00    +0.000 A 
ATOM     33  C   UNL     1       2.079   4.162  18.229  0.00  0.00    +0.000 A 
ENDBRANCH  27  28
ENDBRANCH  26  27
ENDBRANCH   6  26
TORSDOF 8
ENDMDL
MODEL 5
REMARK VINA RESULT:      -8.2      1.792      2.508
REMARK  Name = 
REMARK  9 active torsions:
REMARK  status: ('A' for Active; 'I' for Inactive)
REMARK    1  A    between atoms: C_1  and  C_2
REMARK    2  A    between atoms: C_3  and  C_4
REMARK    3  A    between atoms: C_4  and  C_5
REMARK    4  A    between atoms: C_5  and  O_7
REMARK    5  A    between atoms: C_10  and  O_11
REMARK    6  A    between atoms: O_11  and  C_12
REMARK    7  A    between atoms: C_12  and  C_13
REMARK    8  A    between atoms: C_23  and  C_25
REMARK    9  A    between atoms: C_28  and  C_29
REMARK                            x       y       z     vdW  Elec       q    Type
REMARK                         _______ _______ _______ _____ _____    ______ ____
ROOT
ATOM      1  C   UNL     1      -2.459  11.417  19.393  0.00  0.00    +0.000 C 
ATOM      2  C   UNL     1      -1.148  11.942  20.025  0.00  0.00    +0.000 C 
ATOM      3  C   UNL     1      -0.059  11.774  18.933  0.00  0.00    +0.000 C 
ATOM      4  C   UNL     1       0.500  10.442  19.343  0.00  0.00    +0.000 A 
ATOM      5  C   UNL     1       1.269   9.605  18.558  0.00  0.00    +0.000 A 
ATOM      6  C   UNL     1       1.768   8.437  19.130  0.00  0.00    +0.000 A 
ATOM      7  C   UNL     1       1.456   8.116  20.462  0.00  0.00    +0.000 A 
ATOM      8  C   UNL     1       0.658   8.967  21.243  0.00  0.00    +0.000 A 
ATOM      9  C   UNL     1       0.165  10.121  20.662  0.00  0.00    +0.000 A 
ATOM     10  N   UNL     1      -0.703  11.112  21.191  0.00  0.00    +0.000 N 
ATOM     11  C   UNL     1      -0.934  11.292  22.559  0.00  0.00    +0.000 C 
ATOM     12  O   UNL     1      -0.444  10.579  23.438  0.00  0.00    +0.000 OA
ENDROOT
BRANCH  11  13
ATOM     13  C   UNL     1      -1.732  12.464  23.052  0.00  0.00    +0.000 A 
ATOM     14  C   UNL     1      -3.090  12.389  23.359  0.00  0.00    +0.000 A 
ATOM     15  C   UNL     1      -3.821  13.499  23.772  0.00  0.00    +0.000 A 
ATOM     16  C   UNL     1      -3.174  14.715  23.971  0.00  0.00    +0.000 A 
ATOM     17  C   UNL     1      -1.799  14.804  23.743  0.00  0.00    +0.000 A 
ATOM     18  C   UNL     1      -1.081  13.687  23.279  0.00  0.00    +0.000 A 
BRANCH  16  19
ATOM     19  C   UNL     1      -3.927  15.835  24.432  0.00  0.00    +0.000 C 
ATOM     20  N   UNL     1      -4.550  16.756  24.781  0.00  0.00    +0.000 NA
ENDBRANCH  16  19
ENDBRANCH  11  13
BRANCH   3  21
ATOM     21  C   UNL     1       1.010  12.870  18.935  0.00  0.00    +0.000 C 
BRANCH  21  22
ATOM     22  C   UNL     1       0.421  14.195  19.351  0.00  0.00    +0.000 C 
ATOM     23  O   UNL     1       0.672  14.774  20.397  0.00  0.00    +0.000 OA
BRANCH  22  24
ATOM     24  O   UNL     1      -0.431  14.701  18.434  0.00  0.00    +0.000 OA
ATOM     25  H   UNL     1      -0.801  15.574  18.667  0.00  0.00    +0.000 HD
ENDBRANCH  22  24
ENDBRANCH  21  22
ENDBRANCH   3  21
BRANCH   6  26
ATOM     26  O   UNL     1       2.568   7.545  18.468  0.00  0.00    +0.000 OA
BRANCH  26  27
ATOM     27  C   UNL     1       3.132   6.518  19.292  0.00  0.00    +0.000 C 
BRANCH  27  28
ATOM     28  C   UNL     1       2.320   5.251  19.208  0.00  0.00    +0.000 A 
ATOM     29  C   UNL     1       2.117   4.640  17.960  0.00  0.00    +0.000 A 
ATOM     30  C   UNL     1       1.398   3.450  17.867  0.00  0.00    +0.000 A 
ATOM     31  C   UNL     1       0.886   2.853  19.017  0.00  0.00    +0.000 A 
ATOM     32  C   UNL     1       1.107   3.436  20.264  0.00  0.00    +0.000 A 
ATOM     33  C   UNL     1       1.827   4.624  20.359  0.00  0.00    +0.000 A 
ENDBRANCH  27  28
ENDBRANCH  26  27
ENDBRANCH   6  26
TORSDOF 8
ENDMDL
MODEL 6
REMARK VINA RESULT:      -8.2      1.789      2.423
REMARK  Name = 
REMARK  9 active torsions:
REMARK  status: ('A' for Active; 'I' for Inactive)
REMARK    1  A    between atoms: C_1  and  C_2
REMARK    2  A    between atoms: C_3  and  C_4
REMARK    3  A    between atoms: C_4  and  C_5
REMARK    4  A    between atoms: C_5  and  O_7
REMARK    5  A    between atoms: C_10  and  O_11
REMARK    6  A    between atoms: O_11  and  C_12
REMARK    7  A    between atoms: C_12  and  C_13
REMARK    8  A    between atoms: C_23  and  C_25
REMARK    9  A    between atoms: C_28  and  C_29
REMARK                            x       y       z     vdW  Elec       q    Type
REMARK                         _______ _______ _______ _____ _____    ______ ____
ROOT
ATOM      1  C   UNL     1      -2.361  11.381  19.430  0.00  0.00    +0.000 C 
ATOM      2  C   UNL     1      -1.053  11.883  20.085  0.00  0.00    +0.000 C 
ATOM      3  C   UNL     1       0.051  11.703  19.011  0.00  0.00    +0.000 C 
ATOM      4  C   UNL     1       0.582  10.360  19.425  0.00  0.00    +0.000 A 
ATOM      5  C   UNL     1       1.352   9.515  18.651  0.00  0.00    +0.000 A 
ATOM      6  C   UNL     1       1.823   8.337  19.225  0.00  0.00    +0.000 A 
ATOM      7  C   UNL     1       1.484   8.016  20.551  0.00  0.00    +0.000 A 
ATOM      8  C   UNL     1       0.686   8.876  21.322  0.00  0.00    +0.000 A 
ATOM      9  C   UNL     1       0.220  10.040  20.737  0.00  0.00    +0.000 A 
ATOM     10  N   UNL     1      -0.640  11.042  21.256  0.00  0.00    +0.000 N 
ATOM     11  C   UNL     1      -0.892  11.220  22.620  0.00  0.00    +0.000 C 
ATOM     12  O   UNL     1      -0.427  10.497  23.504  0.00  0.00    +0.000 OA
ENDROOT
BRANCH  11  13
ATOM     13  C   UNL     1      -1.680  12.403  23.105  0.00  0.00    +0.000 A 
ATOM     14  C   UNL     1      -3.034  12.337  23.427  0.00  0.00    +0.000 A 
ATOM     15  C   UNL     1      -3.757  13.457  23.832  0.00  0.00    +0.000 A 
ATOM     16  C   UNL     1      -3.103  14.673  24.006  0.00  0.00    +0.000 A 
ATOM     17  C   UNL     1      -1.730  14.753  23.762  0.00  0.00    +0.000 A 
ATOM     18  C   UNL     1      -1.022  13.627  23.307  0.00  0.00    +0.000 A 
BRANCH  16  19
ATOM     19  C   UNL     1      -3.847  15.803  24.459  0.00  0.00    +0.000 C 
ATOM     20  N   UNL     1      -4.441  16.724  24.854  0.00  0.00    +0.000 NA
ENDBRANCH  16  19
ENDBRANCH  11  13
BRANCH   3  21
ATOM     21  C   UNL     1       1.137  12.782  19.036  0.00  0.00    +0.000 C 
BRANCH  21  22
ATOM     22  C   UNL     1       0.540  14.139  19.316  0.00  0.00    +0.000 C 
ATOM     23  O   UNL     1      -0.201  14.745  18.556  0.00  0.00    +0.000 OA
BRANCH  22  24
ATOM     24  O   UNL     1       0.904  14.635  20.516  0.00  0.00    +0.000 OA
ATOM     25  H   UNL     1       0.426  14.247  21.274  0.00  0.00    +0.000 HD
ENDBRANCH  22  24
ENDBRANCH  21  22
ENDBRANCH   3  21
BRANCH   6  26
ATOM     26  O   UNL     1       2.620   7.436  18.573  0.00  0.00    +0.000 OA
BRANCH  26  27
ATOM     27  C   UNL     1       3.176   6.412  19.407  0.00  0.00    +0.000 C 
BRANCH  27  28
ATOM     28  C   UNL     1       2.389   5.132  19.288  0.00  0.00    +0.000 A 
ATOM     29  C   UNL     1       1.899   4.511  20.447  0.00  0.00    +0.000 A 
ATOM     30  C   UNL     1       1.140   3.345  20.354  0.00  0.00    +0.000 A 
ATOM     31  C   UNL     1       0.855   2.796  19.106  0.00  0.00    +0.000 A 
ATOM     32  C   UNL     1       1.313   3.421  17.948  0.00  0.00    +0.000 A 
ATOM     33  C   UNL     1       2.069   4.588  18.038  0.00  0.00    +0.000 A 
ENDBRANCH  27  28
ENDBRANCH  26  27
ENDBRANCH   6  26
TORSDOF 8
ENDMDL
MODEL 7
REMARK VINA RESULT:      -8.2      1.353      1.934
REMARK  Name = 
REMARK  9 active torsions:
REMARK  status: ('A' for Active; 'I' for Inactive)
REMARK    1  A    between atoms: C_1  and  C_2
REMARK    2  A    between atoms: C_3  and  C_4
REMARK    3  A    between atoms: C_4  and  C_5
REMARK    4  A    between atoms: C_5  and  O_7
REMARK    5  A    between atoms: C_10  and  O_11
REMARK    6  A    between atoms: O_11  and  C_12
REMARK    7  A    between atoms: C_12  and  C_13
REMARK    8  A    between atoms: C_23  and  C_25
REMARK    9  A    between atoms: C_28  and  C_29
REMARK                            x       y       z     vdW  Elec       q    Type
REMARK                         _______ _______ _______ _____ _____    ______ ____
ROOT
ATOM      1  C   UNL     1      -1.850  11.301  19.285  0.00  0.00    +0.000 C 
ATOM      2  C   UNL     1      -0.621  11.654  20.155  0.00  0.00    +0.000 C 
ATOM      3  C   UNL     1       0.616  11.427  19.247  0.00  0.00    +0.000 C 
ATOM      4  C   UNL     1       0.968  10.025  19.654  0.00  0.00    +0.000 A 
ATOM      5  C   UNL     1       1.775   9.151  18.952  0.00  0.00    +0.000 A 
ATOM      6  C   UNL     1       2.057   7.911  19.519  0.00  0.00    +0.000 A 
ATOM      7  C   UNL     1       1.495   7.560  20.758  0.00  0.00    +0.000 A 
ATOM      8  C   UNL     1       0.661   8.450  21.453  0.00  0.00    +0.000 A 
ATOM      9  C   UNL     1       0.385   9.677  20.876  0.00  0.00    +0.000 A 
ATOM     10  N   UNL     1      -0.461  10.726  21.321  0.00  0.00    +0.000 N 
ATOM     11  C   UNL     1      -0.902  10.861  22.641  0.00  0.00    +0.000 C 
ATOM     12  O   UNL     1      -0.637  10.059  23.539  0.00  0.00    +0.000 OA
ENDROOT
BRANCH  11  13
ATOM     13  C   UNL     1      -1.657  12.085  23.074  0.00  0.00    +0.000 A 
ATOM     14  C   UNL     1      -2.997  12.061  23.455  0.00  0.00    +0.000 A 
ATOM     15  C   UNL     1      -3.690  13.215  23.810  0.00  0.00    +0.000 A 
ATOM     16  C   UNL     1      -3.017  14.431  23.872  0.00  0.00    +0.000 A 
ATOM     17  C   UNL     1      -1.655  14.476  23.566  0.00  0.00    +0.000 A 
ATOM     18  C   UNL     1      -0.978  13.311  23.163  0.00  0.00    +0.000 A 
BRANCH  16  19
ATOM     19  C   UNL     1      -3.730  15.600  24.274  0.00  0.00    +0.000 C 
ATOM     20  N   UNL     1      -4.287  16.569  24.602  0.00  0.00    +0.000 NA
ENDBRANCH  16  19
ENDBRANCH  11  13
BRANCH   3  21
ATOM     21  C   UNL     1       1.769  12.403  19.496  0.00  0.00    +0.000 C 
BRANCH  21  22
ATOM     22  C   UNL     1       2.001  13.280  18.290  0.00  0.00    +0.000 C 
ATOM     23  O   UNL     1       1.813  14.486  18.257  0.00  0.00    +0.000 OA
BRANCH  22  24
ATOM     24  O   UNL     1       2.452  12.591  17.221  0.00  0.00    +0.000 OA
ATOM     25  H   UNL     1       2.937  11.773  17.444  0.00  0.00    +0.000 HD
ENDBRANCH  22  24
ENDBRANCH  21  22
ENDBRANCH   3  21
BRANCH   6  26
ATOM     26  O   UNL     1       2.869   6.974  18.939  0.00  0.00    +0.000 OA
BRANCH  26  27
ATOM     27  C   UNL     1       2.226   6.142  17.966  0.00  0.00    +0.000 C 
BRANCH  27  28
ATOM     28  C   UNL     1       2.433   4.682  18.282  0.00  0.00    +0.000 A 
ATOM     29  C   UNL     1       1.341   3.802  18.235  0.00  0.00    +0.000 A 
ATOM     30  C   UNL     1       1.520   2.443  18.490  0.00  0.00    +0.000 A 
ATOM     31  C   UNL     1       2.790   1.950  18.782  0.00  0.00    +0.000 A 
ATOM     32  C   UNL     1       3.885   2.811  18.802  0.00  0.00    +0.000 A 
ATOM     33  C   UNL     1       3.709   4.169  18.545  0.00  0.00    +0.000 A 
ENDBRANCH  27  28
ENDBRANCH  26  27
ENDBRANCH   6  26
TORSDOF 8
ENDMDL
MODEL 8
REMARK VINA RESULT:      -8.1      0.631      1.321
REMARK  Name = 
REMARK  9 active torsions:
REMARK  status: ('A' for Active; 'I' for Inactive)
REMARK    1  A    between atoms: C_1  and  C_2
REMARK    2  A    between atoms: C_3  and  C_4
REMARK    3  A    between atoms: C_4  and  C_5
REMARK    4  A    between atoms: C_5  and  O_7
REMARK    5  A    between atoms: C_10  and  O_11
REMARK    6  A    between atoms: O_11  and  C_12
REMARK    7  A    between atoms: C_12  and  C_13
REMARK    8  A    between atoms: C_23  and  C_25
REMARK    9  A    between atoms: C_28  and  C_29
REMARK                            x       y       z     vdW  Elec       q    Type
REMARK                         _______ _______ _______ _____ _____    ______ ____
ROOT
ATOM      1  C   UNL     1      -1.881  11.423  19.275  0.00  0.00    +0.000 C 
ATOM      2  C   UNL     1      -0.650  11.749  20.152  0.00  0.00    +0.000 C 
ATOM      3  C   UNL     1       0.587  11.499  19.251  0.00  0.00    +0.000 C 
ATOM      4  C   UNL     1       0.908  10.089  19.656  0.00  0.00    +0.000 A 
ATOM      5  C   UNL     1       1.701   9.200  18.957  0.00  0.00    +0.000 A 
ATOM      6  C   UNL     1       1.954   7.954  19.523  0.00  0.00    +0.000 A 
ATOM      7  C   UNL     1       1.379   7.611  20.759  0.00  0.00    +0.000 A 
ATOM      8  C   UNL     1       0.559   8.517  21.451  0.00  0.00    +0.000 A 
ATOM      9  C   UNL     1       0.312   9.750  20.875  0.00  0.00    +0.000 A 
ATOM     10  N   UNL     1      -0.515  10.816  21.317  0.00  0.00    +0.000 N 
ATOM     11  C   UNL     1      -0.961  10.958  22.636  0.00  0.00    +0.000 C 
ATOM     12  O   UNL     1      -0.717  10.148  23.534  0.00  0.00    +0.000 OA
ENDROOT
BRANCH  11  13
ATOM     13  C   UNL     1      -1.692  12.196  23.067  0.00  0.00    +0.000 A 
ATOM     14  C   UNL     1      -3.043  12.204  23.408  0.00  0.00    +0.000 A 
ATOM     15  C   UNL     1      -3.713  13.372  23.762  0.00  0.00    +0.000 A 
ATOM     16  C   UNL     1      -3.007  14.567  23.864  0.00  0.00    +0.000 A 
ATOM     17  C   UNL     1      -1.636  14.577  23.600  0.00  0.00    +0.000 A 
ATOM     18  C   UNL     1      -0.982  13.400  23.197  0.00  0.00    +0.000 A 
BRANCH  16  19
ATOM     19  C   UNL     1      -3.698  15.750  24.266  0.00  0.00    +0.000 C 
ATOM     20  N   UNL     1      -4.282  16.710  24.574  0.00  0.00    +0.000 NA
ENDBRANCH  16  19
ENDBRANCH  11  13
BRANCH   3  21
ATOM     21  C   UNL     1       1.758  12.450  19.508  0.00  0.00    +0.000 C 
BRANCH  21  22
ATOM     22  C   UNL     1       2.216  13.099  18.225  0.00  0.00    +0.000 C 
ATOM     23  O   UNL     1       2.325  14.303  18.052  0.00  0.00    +0.000 OA
BRANCH  22  24
ATOM     24  O   UNL     1       2.505  12.202  17.259  0.00  0.00    +0.000 OA
ATOM     25  H   UNL     1       2.441  11.270  17.542  0.00  0.00    +0.000 HD
ENDBRANCH  22  24
ENDBRANCH  21  22
ENDBRANCH   3  21
BRANCH   6  26
ATOM     26  O   UNL     1       2.750   7.001  18.946  0.00  0.00    +0.000 OA
BRANCH  26  27
ATOM     27  C   UNL     1       3.422   7.422  17.753  0.00  0.00    +0.000 C 
BRANCH  27  28
ATOM     28  C   UNL     1       4.474   6.423  17.344  0.00  0.00    +0.000 A 
ATOM     29  C   UNL     1       5.020   6.482  16.052  0.00  0.00    +0.000 A 
ATOM     30  C   UNL     1       6.018   5.588  15.668  0.00  0.00    +0.000 A 
ATOM     31  C   UNL     1       6.489   4.638  16.572  0.00  0.00    +0.000 A 
ATOM     32  C   UNL     1       5.975   4.591  17.866  0.00  0.00    +0.000 A 
ATOM     33  C   UNL     1       4.979   5.485  18.253  0.00  0.00    +0.000 A 
ENDBRANCH  27  28
ENDBRANCH  26  27
ENDBRANCH   6  26
TORSDOF 8
ENDMDL
MODEL 9
REMARK VINA RESULT:      -8.1      1.368      1.969
REMARK  Name = 
REMARK  9 active torsions:
REMARK  status: ('A' for Active; 'I' for Inactive)
REMARK    1  A    between atoms: C_1  and  C_2
REMARK    2  A    between atoms: C_3  and  C_4
REMARK    3  A    between atoms: C_4  and  C_5
REMARK    4  A    between atoms: C_5  and  O_7
REMARK    5  A    between atoms: C_10  and  O_11
REMARK    6  A    between atoms: O_11  and  C_12
REMARK    7  A    between atoms: C_12  and  C_13
REMARK    8  A    between atoms: C_23  and  C_25
REMARK    9  A    between atoms: C_28  and  C_29
REMARK                            x       y       z     vdW  Elec       q    Type
REMARK                         _______ _______ _______ _____ _____    ______ ____
ROOT
ATOM      1  C   UNL     1      -2.211  11.204  19.248  0.00  0.00    +0.000 C 
ATOM      2  C   UNL     1      -0.888  11.717  19.864  0.00  0.00    +0.000 C 
ATOM      3  C   UNL     1       0.173  11.600  18.739  0.00  0.00    +0.000 C 
ATOM      4  C   UNL     1       0.753  10.258  19.086  0.00  0.00    +0.000 A 
ATOM      5  C   UNL     1       1.508   9.457  18.252  0.00  0.00    +0.000 A 
ATOM      6  C   UNL     1       2.032   8.274  18.767  0.00  0.00    +0.000 A 
ATOM      7  C   UNL     1       1.757   7.902  20.094  0.00  0.00    +0.000 A 
ATOM      8  C   UNL     1       0.973   8.717  20.927  0.00  0.00    +0.000 A 
ATOM      9  C   UNL     1       0.455   9.887  20.400  0.00  0.00    +0.000 A 
ATOM     10  N   UNL     1      -0.406  10.850  20.987  0.00  0.00    +0.000 N 
ATOM     11  C   UNL     1      -0.603  10.978  22.366  0.00  0.00    +0.000 C 
ATOM     12  O   UNL     1      -0.084  10.239  23.206  0.00  0.00    +0.000 OA
ENDROOT
BRANCH  11  13
ATOM     13  C   UNL     1      -1.397  12.124  22.923  0.00  0.00    +0.000 A 
ATOM     14  C   UNL     1      -2.701  11.991  23.397  0.00  0.00    +0.000 A 
ATOM     15  C   UNL     1      -3.436  13.076  23.867  0.00  0.00    +0.000 A 
ATOM     16  C   UNL     1      -2.836  14.330  23.951  0.00  0.00    +0.000 A 
ATOM     17  C   UNL     1      -1.506  14.481  23.552  0.00  0.00    +0.000 A 
ATOM     18  C   UNL     1      -0.792  13.386  23.034  0.00  0.00    +0.000 A 
BRANCH  16  19
ATOM     19  C   UNL     1      -3.588  15.425  24.471  0.00  0.00    +0.000 C 
ATOM     20  N   UNL     1      -4.225  16.309  24.883  0.00  0.00    +0.000 NA
ENDBRANCH  16  19
ENDBRANCH  11  13
BRANCH   3  21
ATOM     21  C   UNL     1       1.233  12.704  18.754  0.00  0.00    +0.000 C 
BRANCH  21  22
ATOM     22  C   UNL     1       0.624  14.028  19.144  0.00  0.00    +0.000 C 
ATOM     23  O   UNL     1      -0.238  14.614  18.508  0.00  0.00    +0.000 OA
BRANCH  22  24
ATOM     24  O   UNL     1       1.129  14.519  20.295  0.00  0.00    +0.000 OA
ATOM     25  H   UNL     1       1.116  13.890  21.041  0.00  0.00    +0.000 HD
ENDBRANCH  22  24
ENDBRANCH  21  22
ENDBRANCH   3  21
BRANCH   6  26
ATOM     26  O   UNL     1       2.821   7.414  18.053  0.00  0.00    +0.000 OA
BRANCH  26  27
ATOM     27  C   UNL     1       3.499   6.427  18.839  0.00  0.00    +0.000 C 
BRANCH  27  28
ATOM     28  C   UNL     1       3.122   5.035  18.401  0.00  0.00    +0.000 A 
ATOM     29  C   UNL     1       4.129   4.124  18.046  0.00  0.00    +0.000 A 
ATOM     30  C   UNL     1       3.801   2.822  17.671  0.00  0.00    +0.000 A 
ATOM     31  C   UNL     1       2.469   2.414  17.659  0.00  0.00    +0.000 A 
ATOM     32  C   UNL     1       1.464   3.302  18.039  0.00  0.00    +0.000 A 
ATOM     33  C   UNL     1       1.789   4.603  18.416  0.00  0.00    +0.000 A 
ENDBRANCH  27  28
ENDBRANCH  26  27
ENDBRANCH   6  26
TORSDOF 8
ENDMDL
