MODEL 1
REMARK VINA RESULT:      -7.3      0.000      0.000
REMARK  Name = 
REMARK  11 active torsions:
REMARK  status: ('A' for Active; 'I' for Inactive)
REMARK    1  A    between atoms: C_1  and  C_2
REMARK    2  A    between atoms: C_2  and  C_3
REMARK    3  A    between atoms: C_2  and  N_4
REMARK    4  A    between atoms: N_4  and  C_5
REMARK    5  A    between atoms: C_6  and  C_8
REMARK    6  A    between atoms: N_10  and  C_11
REMARK    7  A    between atoms: C_13  and  N_14
REMARK    8  A    between atoms: C_15  and  C_17
REMARK    9  A    between atoms: C_19  and  C_20
REMARK   10  A    between atoms: C_25  and  N_26
REMARK   11  A    between atoms: N_26  and  C_27
REMARK                            x       y       z     vdW  Elec       q    Type
REMARK                         _______ _______ _______ _____ _____    ______ ____
ROOT
ATOM      1  N   UNL     1       1.449   8.336  17.988  0.00  0.00    +0.000 N 
ATOM      2  C   UNL     1       1.290   9.715  17.986  0.00  0.00    +0.000 C 
ATOM      3  O   UNL     1       2.191  10.550  17.949  0.00  0.00    +0.000 OA
ATOM      4  H   UNL     1       0.596   7.769  17.965  0.00  0.00    +0.000 HD
ENDROOT
BRANCH   1  10
ATOM      5  C   UNL     1       3.055   6.507  18.734  0.00  0.00    +0.000 A 
ATOM      6  N   UNL     1       4.307   6.124  18.397  0.00  0.00    +0.000 NA
ATOM      7  N   UNL     1       4.703   7.025  17.488  0.00  0.00    +0.000 N 
ATOM      8  C   UNL     1       6.016   6.927  16.899  0.00  0.00    +0.000 C 
ATOM      9  C   UNL     1       3.767   7.967  17.209  0.00  0.00    +0.000 A 
ATOM     10  C   UNL     1       2.663   7.659  17.968  0.00  0.00    +0.000 A 
BRANCH   5  13
ATOM     11  N   UNL     1       2.149   4.364  19.665  0.00  0.00    +0.000 N 
ATOM     12  C   UNL     1       3.042   3.574  18.824  0.00  0.00    +0.000 C 
ATOM     13  C   UNL     1       2.228   5.774  19.722  0.00  0.00    +0.000 C 
ATOM     14  O   UNL     1       1.628   6.411  20.601  0.00  0.00    +0.000 OA
BRANCH  11  16
ATOM     15  C   UNL     1       0.368   2.628  19.874  0.00  0.00    +0.000 C 
ATOM     16  C   UNL     1       1.248   3.654  20.590  0.00  0.00    +0.000 C 
ATOM     17  C   UNL     1       2.019   3.004  21.743  0.00  0.00    +0.000 C 
ENDBRANCH  11  16
ENDBRANCH   5  13
ENDBRANCH   1  10
BRANCH   2  18
ATOM     18  C   UNL     1      -0.149  10.161  18.000  0.00  0.00    +0.000 A 
ATOM     19  N   UNL     1      -0.894   9.676  16.957  0.00  0.00    +0.000 NA
ATOM     20  C   UNL     1      -2.199  10.035  16.871  0.00  0.00    +0.000 A 
ATOM     21  C   UNL     1      -2.774  10.869  17.826  0.00  0.00    +0.000 A 
ATOM     22  C   UNL     1      -2.011  11.338  18.890  0.00  0.00    +0.000 A 
ATOM     23  C   UNL     1      -0.660  10.999  19.007  0.00  0.00    +0.000 A 
BRANCH  20  24
ATOM     24  C   UNL     1      -3.022   9.492  15.736  0.00  0.00    +0.000 C 
ATOM     25  C   UNL     1      -3.983  10.381  14.977  0.00  0.00    +0.000 C 
ATOM     26  C   UNL     1      -2.712   9.922  14.321  0.00  0.00    +0.000 C 
ENDBRANCH  20  24
BRANCH  23  27
ATOM     27  N   UNL     1       0.075  11.444  20.123  0.00  0.00    +0.000 N 
ATOM     28  H   UNL     1       0.586  12.316  19.971  0.00  0.00    +0.000 HD
BRANCH  27  29
ATOM     29  C   UNL     1       0.226  10.836  21.376  0.00  0.00    +0.000 A 
ATOM     30  C   UNL     1       1.209   9.904  21.675  0.00  0.00    +0.000 A 
ATOM     31  N   UNL     1       1.279   9.187  22.819  0.00  0.00    +0.000 NA
ATOM     32  C   UNL     1       0.308   9.430  23.707  0.00  0.00    +0.000 A 
ATOM     33  N   UNL     1      -0.682  10.325  23.565  0.00  0.00    +0.000 NA
ATOM     34  C   UNL     1      -0.692  11.009  22.397  0.00  0.00    +0.000 A 
ENDBRANCH  27  29
ENDBRANCH  23  27
ENDBRANCH   2  18
TORSDOF 7
ENDMDL
MODEL 2
REMARK VINA RESULT:      -7.3      1.608      1.999
REMARK  Name = 
REMARK  11 active torsions:
REMARK  status: ('A' for Active; 'I' for Inactive)
REMARK    1  A    between atoms: C_1  and  C_2
REMARK    2  A    between atoms: C_2  and  C_3
REMARK    3  A    between atoms: C_2  and  N_4
REMARK    4  A    between atoms: N_4  and  C_5
REMARK    5  A    between atoms: C_6  and  C_8
REMARK    6  A    between atoms: N_10  and  C_11
REMARK    7  A    between atoms: C_13  and  N_14
REMARK    8  A    between atoms: C_15  and  C_17
REMARK    9  A    between atoms: C_19  and  C_20
REMARK   10  A    between atoms: C_25  and  N_26
REMARK   11  A    between atoms: N_26  and  C_27
REMARK                            x       y       z     vdW  Elec       q    Type
REMARK                         _______ _______ _______ _____ _____    ______ ____
ROOT
ATOM      1  N   UNL     1       1.566   8.365  18.205  0.00  0.00    +0.000 N 
ATOM      2  C   UNL     1       1.473   9.749  18.230  0.00  0.00    +0.000 C 
ATOM      3  O   UNL     1       2.402  10.543  18.102  0.00  0.00    +0.000 OA
ATOM      4  H   UNL     1       0.691   7.837  18.271  0.00  0.00    +0.000 HD
ENDROOT
BRANCH   1  10
ATOM      5  C   UNL     1       3.104   6.390  18.675  0.00  0.00    +0.000 A 
ATOM      6  N   UNL     1       4.315   5.982  18.232  0.00  0.00    +0.000 NA
ATOM      7  N   UNL     1       4.714   6.951  17.397  0.00  0.00    +0.000 N 
ATOM      8  C   UNL     1       5.989   6.849  16.729  0.00  0.00    +0.000 C 
ATOM      9  C   UNL     1       3.819   7.962  17.266  0.00  0.00    +0.000 A 
ATOM     10  C   UNL     1       2.739   7.633  18.050  0.00  0.00    +0.000 A 
BRANCH   5  13
ATOM     11  N   UNL     1       2.133   4.209  19.437  0.00  0.00    +0.000 N 
ATOM     12  C   UNL     1       2.941   3.467  18.476  0.00  0.00    +0.000 C 
ATOM     13  C   UNL     1       2.288   5.602  19.628  0.00  0.00    +0.000 C 
ATOM     14  O   UNL     1       1.766   6.174  20.596  0.00  0.00    +0.000 OA
BRANCH  11  16
ATOM     15  C   UNL     1       0.477   2.348  19.601  0.00  0.00    +0.000 C 
ATOM     16  C   UNL     1       1.241   3.453  20.334  0.00  0.00    +0.000 C 
ATOM     17  C   UNL     1       1.999   2.889  21.539  0.00  0.00    +0.000 C 
ENDBRANCH  11  16
ENDBRANCH   5  13
ENDBRANCH   1  10
BRANCH   2  18
ATOM     18  C   UNL     1       0.065  10.260  18.402  0.00  0.00    +0.000 A 
ATOM     19  N   UNL     1      -0.804   9.839  17.431  0.00  0.00    +0.000 NA
ATOM     20  C   UNL     1      -2.092  10.259  17.487  0.00  0.00    +0.000 A 
ATOM     21  C   UNL     1      -2.526  11.091  18.514  0.00  0.00    +0.000 A 
ATOM     22  C   UNL     1      -1.637  11.497  19.504  0.00  0.00    +0.000 A 
ATOM     23  C   UNL     1      -0.299  11.092  19.475  0.00  0.00    +0.000 A 
BRANCH  20  24
ATOM     24  C   UNL     1      -3.051   9.785  16.430  0.00  0.00    +0.000 C 
ATOM     25  C   UNL     1      -3.893  10.769  15.647  0.00  0.00    +0.000 C 
ATOM     26  C   UNL     1      -2.750  10.062  14.975  0.00  0.00    +0.000 C 
ENDBRANCH  20  24
BRANCH  23  27
ATOM     27  N   UNL     1       0.566  11.473  20.519  0.00  0.00    +0.000 N 
ATOM     28  H   UNL     1       0.868  10.703  21.118  0.00  0.00    +0.000 HD
BRANCH  27  29
ATOM     29  C   UNL     1       1.023  12.754  20.859  0.00  0.00    +0.000 A 
ATOM     30  C   UNL     1       2.242  13.277  20.455  0.00  0.00    +0.000 A 
ATOM     31  N   UNL     1       2.774  14.438  20.897  0.00  0.00    +0.000 NA
ATOM     32  C   UNL     1       2.033  15.105  21.789  0.00  0.00    +0.000 A 
ATOM     33  N   UNL     1       0.824  14.736  22.240  0.00  0.00    +0.000 NA
ATOM     34  C   UNL     1       0.350  13.564  21.757  0.00  0.00    +0.000 A 
ENDBRANCH  27  29
ENDBRANCH  23  27
ENDBRANCH   2  18
TORSDOF 7
ENDMDL
MODEL 3
REMARK VINA RESULT:      -7.2      4.309      8.515
REMARK  Name = 
REMARK  11 active torsions:
REMARK  status: ('A' for Active; 'I' for Inactive)
REMARK    1  A    between atoms: C_1  and  C_2
REMARK    2  A    between atoms: C_2  and  C_3
REMARK    3  A    between atoms: C_2  and  N_4
REMARK    4  A    between atoms: N_4  and  C_5
REMARK    5  A    between atoms: C_6  and  C_8
REMARK    6  A    between atoms: N_10  and  C_11
REMARK    7  A    between atoms: C_13  and  N_14
REMARK    8  A    between atoms: C_15  and  C_17
REMARK    9  A    between atoms: C_19  and  C_20
REMARK   10  A    between atoms: C_25  and  N_26
REMARK   11  A    between atoms: N_26  and  C_27
REMARK                            x       y       z     vdW  Elec       q    Type
REMARK                         _______ _______ _______ _____ _____    ______ ____
ROOT
ATOM      1  N   UNL     1      -2.626  13.219  19.906  0.00  0.00    +0.000 N 
ATOM      2  C   UNL     1      -1.772  12.647  18.974  0.00  0.00    +0.000 C 
ATOM      3  O   UNL     1      -2.007  11.659  18.283  0.00  0.00    +0.000 OA
ATOM      4  H   UNL     1      -2.307  14.078  20.366  0.00  0.00    +0.000 HD
ENDROOT
BRANCH   1  10
ATOM      5  C   UNL     1      -4.482  12.610  21.539  0.00  0.00    +0.000 A 
ATOM      6  N   UNL     1      -5.754  12.165  21.433  0.00  0.00    +0.000 NA
ATOM      7  N   UNL     1      -5.945  11.997  20.117  0.00  0.00    +0.000 N 
ATOM      8  C   UNL     1      -7.216  11.520  19.627  0.00  0.00    +0.000 C 
ATOM      9  C   UNL     1      -4.866  12.321  19.363  0.00  0.00    +0.000 A 
ATOM     10  C   UNL     1      -3.896  12.757  20.234  0.00  0.00    +0.000 A 
BRANCH   5  13
ATOM     11  N   UNL     1      -3.633  14.287  23.196  0.00  0.00    +0.000 N 
ATOM     12  C   UNL     1      -4.226  15.389  22.447  0.00  0.00    +0.000 C 
ATOM     13  C   UNL     1      -3.849  12.936  22.839  0.00  0.00    +0.000 C 
ATOM     14  O   UNL     1      -3.535  12.015  23.608  0.00  0.00    +0.000 OA
BRANCH  11  16
ATOM     15  C   UNL     1      -1.402  14.694  24.241  0.00  0.00    +0.000 C 
ATOM     16  C   UNL     1      -2.916  14.596  24.446  0.00  0.00    +0.000 C 
ATOM     17  C   UNL     1      -3.461  15.862  25.113  0.00  0.00    +0.000 C 
ENDBRANCH  11  16
ENDBRANCH   5  13
ENDBRANCH   1  10
BRANCH   2  18
ATOM     18  C   UNL     1      -0.461  13.376  18.824  0.00  0.00    +0.000 A 
ATOM     19  N   UNL     1      -0.572  14.741  18.876  0.00  0.00    +0.000 NA
ATOM     20  C   UNL     1       0.551  15.488  18.733  0.00  0.00    +0.000 A 
ATOM     21  C   UNL     1       1.791  14.884  18.548  0.00  0.00    +0.000 A 
ATOM     22  C   UNL     1       1.891  13.497  18.515  0.00  0.00    +0.000 A 
ATOM     23  C   UNL     1       0.756  12.693  18.649  0.00  0.00    +0.000 A 
BRANCH  20  24
ATOM     24  C   UNL     1       0.433  16.986  18.805  0.00  0.00    +0.000 C 
ATOM     25  C   UNL     1       0.126  17.802  17.569  0.00  0.00    +0.000 C 
ATOM     26  C   UNL     1      -0.921  17.634  18.633  0.00  0.00    +0.000 C 
ENDBRANCH  20  24
BRANCH  23  27
ATOM     27  N   UNL     1       0.894  11.292  18.667  0.00  0.00    +0.000 N 
ATOM     28  H   UNL     1       0.949  10.861  17.742  0.00  0.00    +0.000 HD
BRANCH  27  29
ATOM     29  C   UNL     1       0.922  10.425  19.768  0.00  0.00    +0.000 A 
ATOM     30  C   UNL     1       0.783  10.836  21.085  0.00  0.00    +0.000 A 
ATOM     31  N   UNL     1       0.964  10.049  22.169  0.00  0.00    +0.000 NA
ATOM     32  C   UNL     1       1.298   8.780  21.905  0.00  0.00    +0.000 A 
ATOM     33  N   UNL     1       1.432   8.239  20.684  0.00  0.00    +0.000 NA
ATOM     34  C   UNL     1       1.235   9.083  19.644  0.00  0.00    +0.000 A 
ENDBRANCH  27  29
ENDBRANCH  23  27
ENDBRANCH   2  18
TORSDOF 7
ENDMDL
MODEL 4
REMARK VINA RESULT:      -7.2      3.698      7.675
REMARK  Name = 
REMARK  11 active torsions:
REMARK  status: ('A' for Active; 'I' for Inactive)
REMARK    1  A    between atoms: C_1  and  C_2
REMARK    2  A    between atoms: C_2  and  C_3
REMARK    3  A    between atoms: C_2  and  N_4
REMARK    4  A    between atoms: N_4  and  C_5
REMARK    5  A    between atoms: C_6  and  C_8
REMARK    6  A    between atoms: N_10  and  C_11
REMARK    7  A    between atoms: C_13  and  N_14
REMARK    8  A    between atoms: C_15  and  C_17
REMARK    9  A    between atoms: C_19  and  C_20
REMARK   10  A    between atoms: C_25  and  N_26
REMARK   11  A    between atoms: N_26  and  C_27
REMARK                            x       y       z     vdW  Elec       q    Type
REMARK                         _______ _______ _______ _____ _____    ______ ____
ROOT
ATOM      1  N   UNL     1      -1.731  13.896  19.873  0.00  0.00    +0.000 N 
ATOM      2  C   UNL     1      -1.578  12.534  20.096  0.00  0.00    +0.000 C 
ATOM      3  O   UNL     1      -1.091  12.011  21.095  0.00  0.00    +0.000 OA
ATOM      4  H   UNL     1      -2.208  14.176  19.011  0.00  0.00    +0.000 HD
ENDROOT
BRANCH   1  10
ATOM      5  C   UNL     1      -0.007  15.275  21.142  0.00  0.00    +0.000 A 
ATOM      6  N   UNL     1      -0.045  16.342  21.972  0.00  0.00    +0.000 NA
ATOM      7  N   UNL     1      -1.350  16.608  22.122  0.00  0.00    +0.000 N 
ATOM      8  C   UNL     1      -1.771  17.704  22.960  0.00  0.00    +0.000 C 
ATOM      9  C   UNL     1      -2.161  15.776  21.423  0.00  0.00    +0.000 A 
ATOM     10  C   UNL     1      -1.340  14.909  20.742  0.00  0.00    +0.000 A 
BRANCH   5  13
ATOM     11  N   UNL     1       1.811  14.987  19.443  0.00  0.00    +0.000 N 
ATOM     12  C   UNL     1       1.319  16.118  18.664  0.00  0.00    +0.000 C 
ATOM     13  C   UNL     1       1.258  14.644  20.698  0.00  0.00    +0.000 C 
ATOM     14  O   UNL     1       1.827  13.836  21.447  0.00  0.00    +0.000 OA
BRANCH  11  16
ATOM     15  C   UNL     1       2.679  13.061  18.113  0.00  0.00    +0.000 C 
ATOM     16  C   UNL     1       3.017  14.283  18.970  0.00  0.00    +0.000 C 
ATOM     17  C   UNL     1       3.968  15.226  18.229  0.00  0.00    +0.000 C 
ENDBRANCH  11  16
ENDBRANCH   5  13
ENDBRANCH   1  10
BRANCH   2  18
ATOM     18  C   UNL     1      -2.108  11.673  18.979  0.00  0.00    +0.000 A 
ATOM     19  N   UNL     1      -3.461  11.778  18.787  0.00  0.00    +0.000 NA
ATOM     20  C   UNL     1      -4.038  11.028  17.815  0.00  0.00    +0.000 A 
ATOM     21  C   UNL     1      -3.273  10.178  17.022  0.00  0.00    +0.000 A 
ATOM     22  C   UNL     1      -1.899  10.095  17.216  0.00  0.00    +0.000 A 
ATOM     23  C   UNL     1      -1.269  10.844  18.213  0.00  0.00    +0.000 A 
BRANCH  20  24
ATOM     24  C   UNL     1      -5.520  11.153  17.594  0.00  0.00    +0.000 C 
ATOM     25  C   UNL     1      -6.506  10.644  18.622  0.00  0.00    +0.000 C 
ATOM     26  C   UNL     1      -6.318  12.122  18.435  0.00  0.00    +0.000 C 
ENDBRANCH  20  24
BRANCH  23  27
ATOM     27  N   UNL     1       0.131  10.782  18.352  0.00  0.00    +0.000 N 
ATOM     28  H   UNL     1       0.623  11.626  18.055  0.00  0.00    +0.000 HD
BRANCH  27  29
ATOM     29  C   UNL     1       0.924   9.715  18.797  0.00  0.00    +0.000 A 
ATOM     30  C   UNL     1       1.682   8.908  17.961  0.00  0.00    +0.000 A 
ATOM     31  N   UNL     1       2.325   7.782  18.342  0.00  0.00    +0.000 NA
ATOM     32  C   UNL     1       2.198   7.459  19.635  0.00  0.00    +0.000 A 
ATOM     33  N   UNL     1       1.527   8.163  20.559  0.00  0.00    +0.000 NA
ATOM     34  C   UNL     1       0.908   9.280  20.111  0.00  0.00    +0.000 A 
ENDBRANCH  27  29
ENDBRANCH  23  27
ENDBRANCH   2  18
TORSDOF 7
ENDMDL
MODEL 5
REMARK VINA RESULT:      -7.2      3.066      7.484
REMARK  Name = 
REMARK  11 active torsions:
REMARK  status: ('A' for Active; 'I' for Inactive)
REMARK    1  A    between atoms: C_1  and  C_2
REMARK    2  A    between atoms: C_2  and  C_3
REMARK    3  A    between atoms: C_2  and  N_4
REMARK    4  A    between atoms: N_4  and  C_5
REMARK    5  A    between atoms: C_6  and  C_8
REMARK    6  A    between atoms: N_10  and  C_11
REMARK    7  A    between atoms: C_13  and  N_14
REMARK    8  A    between atoms: C_15  and  C_17
REMARK    9  A    between atoms: C_19  and  C_20
REMARK   10  A    between atoms: C_25  and  N_26
REMARK   11  A    between atoms: N_26  and  C_27
REMARK                            x       y       z     vdW  Elec       q    Type
REMARK                         _______ _______ _______ _____ _____    ______ ____
ROOT
ATOM      1  N   UNL     1      -1.866   9.860  18.443  0.00  0.00    +0.000 N 
ATOM      2  C   UNL     1      -0.809  10.623  18.919  0.00  0.00    +0.000 C 
ATOM      3  O   UNL     1      -0.475  11.734  18.516  0.00  0.00    +0.000 OA
ATOM      4  H   UNL     1      -2.053   8.973  18.921  0.00  0.00    +0.000 HD
ENDROOT
BRANCH   1  10
ATOM      5  C   UNL     1      -3.876  11.074  17.459  0.00  0.00    +0.000 A 
ATOM      6  N   UNL     1      -4.419  11.201  16.228  0.00  0.00    +0.000 NA
ATOM      7  N   UNL     1      -3.664  10.422  15.442  0.00  0.00    +0.000 N 
ATOM      8  C   UNL     1      -3.961  10.312  14.034  0.00  0.00    +0.000 C 
ATOM      9  C   UNL     1      -2.651   9.803  16.098  0.00  0.00    +0.000 A 
ATOM     10  C   UNL     1      -2.722  10.217  17.407  0.00  0.00    +0.000 A 
BRANCH   5  13
ATOM     11  N   UNL     1      -5.763  11.635  19.010  0.00  0.00    +0.000 N 
ATOM     12  C   UNL     1      -6.618  10.622  18.402  0.00  0.00    +0.000 C 
ATOM     13  C   UNL     1      -4.403  11.782  18.649  0.00  0.00    +0.000 C 
ATOM     14  O   UNL     1      -3.636  12.481  19.327  0.00  0.00    +0.000 OA
BRANCH  11  16
ATOM     15  C   UNL     1      -6.927  13.738  19.682  0.00  0.00    +0.000 C 
ATOM     16  C   UNL     1      -6.298  12.419  20.137  0.00  0.00    +0.000 C 
ATOM     17  C   UNL     1      -7.285  11.602  20.975  0.00  0.00    +0.000 C 
ENDBRANCH  11  16
ENDBRANCH   5  13
ENDBRANCH   1  10
BRANCH   2  18
ATOM     18  C   UNL     1      -0.061   9.980  20.060  0.00  0.00    +0.000 A 
ATOM     19  N   UNL     1       0.793   8.981  19.674  0.00  0.00    +0.000 NA
ATOM     20  C   UNL     1       1.500   8.328  20.630  0.00  0.00    +0.000 A 
ATOM     21  C   UNL     1       1.370   8.671  21.972  0.00  0.00    +0.000 A 
ATOM     22  C   UNL     1       0.513   9.700  22.347  0.00  0.00    +0.000 A 
ATOM     23  C   UNL     1      -0.240  10.390  21.393  0.00  0.00    +0.000 A 
BRANCH  20  24
ATOM     24  C   UNL     1       2.449   7.240  20.207  0.00  0.00    +0.000 C 
ATOM     25  C   UNL     1       1.988   5.804  20.101  0.00  0.00    +0.000 C 
ATOM     26  C   UNL     1       2.278   6.589  18.854  0.00  0.00    +0.000 C 
ENDBRANCH  20  24
BRANCH  23  27
ATOM     27  N   UNL     1      -1.058  11.463  21.795  0.00  0.00    +0.000 N 
ATOM     28  H   UNL     1      -2.053  11.236  21.854  0.00  0.00    +0.000 HD
BRANCH  27  29
ATOM     29  C   UNL     1      -0.696  12.787  22.078  0.00  0.00    +0.000 A 
ATOM     30  C   UNL     1       0.271  13.494  21.381  0.00  0.00    +0.000 A 
ATOM     31  N   UNL     1       0.750  14.709  21.731  0.00  0.00    +0.000 NA
ATOM     32  C   UNL     1       0.219  15.235  22.841  0.00  0.00    +0.000 A 
ATOM     33  N   UNL     1      -0.745  14.680  23.591  0.00  0.00    +0.000 NA
ATOM     34  C   UNL     1      -1.180  13.465  23.183  0.00  0.00    +0.000 A 
ENDBRANCH  27  29
ENDBRANCH  23  27
ENDBRANCH   2  18
TORSDOF 7
ENDMDL
MODEL 6
REMARK VINA RESULT:      -7.1      3.955      8.145
REMARK  Name = 
REMARK  11 active torsions:
REMARK  status: ('A' for Active; 'I' for Inactive)
REMARK    1  A    between atoms: C_1  and  C_2
REMARK    2  A    between atoms: C_2  and  C_3
REMARK    3  A    between atoms: C_2  and  N_4
REMARK    4  A    between atoms: N_4  and  C_5
REMARK    5  A    between atoms: C_6  and  C_8
REMARK    6  A    between atoms: N_10  and  C_11
REMARK    7  A    between atoms: C_13  and  N_14
REMARK    8  A    between atoms: C_15  and  C_17
REMARK    9  A    between atoms: C_19  and  C_20
REMARK   10  A    between atoms: C_25  and  N_26
REMARK   11  A    between atoms: N_26  and  C_27
REMARK                            x       y       z     vdW  Elec       q    Type
REMARK                         _______ _______ _______ _____ _____    ______ ____
ROOT
ATOM      1  N   UNL     1      -2.211  13.969  19.928  0.00  0.00    +0.000 N 
ATOM      2  C   UNL     1      -1.594  12.726  19.942  0.00  0.00    +0.000 C 
ATOM      3  O   UNL     1      -0.675  12.379  20.682  0.00  0.00    +0.000 OA
ATOM      4  H   UNL     1      -3.003  14.089  19.288  0.00  0.00    +0.000 HD
ENDROOT
BRANCH   1  10
ATOM      5  C   UNL     1      -0.831  16.014  20.558  0.00  0.00    +0.000 A 
ATOM      6  N   UNL     1      -0.864  16.933  21.550  0.00  0.00    +0.000 NA
ATOM      7  N   UNL     1      -1.866  16.536  22.346  0.00  0.00    +0.000 N 
ATOM      8  C   UNL     1      -2.192  17.295  23.529  0.00  0.00    +0.000 C 
ATOM      9  C   UNL     1      -2.493  15.413  21.917  0.00  0.00    +0.000 A 
ATOM     10  C   UNL     1      -1.882  15.048  20.740  0.00  0.00    +0.000 A 
BRANCH   5  13
ATOM     11  N   UNL     1       1.448  15.572  19.616  0.00  0.00    +0.000 N 
ATOM     12  C   UNL     1       1.820  14.778  20.781  0.00  0.00    +0.000 C 
ATOM     13  C   UNL     1       0.137  16.072  19.438  0.00  0.00    +0.000 C 
ATOM     14  O   UNL     1      -0.224  16.542  18.349  0.00  0.00    +0.000 OA
BRANCH  11  16
ATOM     15  C   UNL     1       3.573  16.670  18.901  0.00  0.00    +0.000 C 
ATOM     16  C   UNL     1       2.430  15.723  18.527  0.00  0.00    +0.000 C 
ATOM     17  C   UNL     1       2.972  14.368  18.063  0.00  0.00    +0.000 C 
ENDBRANCH  11  16
ENDBRANCH   5  13
ENDBRANCH   1  10
BRANCH   2  18
ATOM     18  C   UNL     1      -2.173  11.748  18.953  0.00  0.00    +0.000 A 
ATOM     19  N   UNL     1      -3.536  11.821  18.829  0.00  0.00    +0.000 NA
ATOM     20  C   UNL     1      -4.156  10.969  17.975  0.00  0.00    +0.000 A 
ATOM     21  C   UNL     1      -3.425  10.047  17.233  0.00  0.00    +0.000 A 
ATOM     22  C   UNL     1      -2.040   9.995  17.356  0.00  0.00    +0.000 A 
ATOM     23  C   UNL     1      -1.367  10.850  18.232  0.00  0.00    +0.000 A 
BRANCH  20  24
ATOM     24  C   UNL     1      -5.650  11.059  17.826  0.00  0.00    +0.000 C 
ATOM     25  C   UNL     1      -6.572  10.367  18.806  0.00  0.00    +0.000 C 
ATOM     26  C   UNL     1      -6.449  11.864  18.824  0.00  0.00    +0.000 C 
ENDBRANCH  20  24
BRANCH  23  27
ATOM     27  N   UNL     1       0.040  10.814  18.296  0.00  0.00    +0.000 N 
ATOM     28  H   UNL     1       0.501  11.655  17.945  0.00  0.00    +0.000 HD
BRANCH  27  29
ATOM     29  C   UNL     1       0.873   9.775  18.733  0.00  0.00    +0.000 A 
ATOM     30  C   UNL     1       1.669   9.011  17.893  0.00  0.00    +0.000 A 
ATOM     31  N   UNL     1       2.356   7.907  18.263  0.00  0.00    +0.000 NA
ATOM     32  C   UNL     1       2.234   7.563  19.551  0.00  0.00    +0.000 A 
ATOM     33  N   UNL     1       1.529   8.227  20.479  0.00  0.00    +0.000 NA
ATOM     34  C   UNL     1       0.867   9.323  20.041  0.00  0.00    +0.000 A 
ENDBRANCH  27  29
ENDBRANCH  23  27
ENDBRANCH   2  18
TORSDOF 7
ENDMDL
MODEL 7
REMARK VINA RESULT:      -7.1      1.673      2.195
REMARK  Name = 
REMARK  11 active torsions:
REMARK  status: ('A' for Active; 'I' for Inactive)
REMARK    1  A    between atoms: C_1  and  C_2
REMARK    2  A    between atoms: C_2  and  C_3
REMARK    3  A    between atoms: C_2  and  N_4
REMARK    4  A    between atoms: N_4  and  C_5
REMARK    5  A    between atoms: C_6  and  C_8
REMARK    6  A    between atoms: N_10  and  C_11
REMARK    7  A    between atoms: C_13  and  N_14
REMARK    8  A    between atoms: C_15  and  C_17
REMARK    9  A    between atoms: C_19  and  C_20
REMARK   10  A    between atoms: C_25  and  N_26
REMARK   11  A    between atoms: N_26  and  C_27
REMARK                            x       y       z     vdW  Elec       q    Type
REMARK                         _______ _______ _______ _____ _____    ______ ____
ROOT
ATOM      1  N   UNL     1       1.599   8.073  17.911  0.00  0.00    +0.000 N 
ATOM      2  C   UNL     1       1.503   9.455  17.985  0.00  0.00    +0.000 C 
ATOM      3  O   UNL     1       2.429  10.255  17.868  0.00  0.00    +0.000 OA
ATOM      4  H   UNL     1       0.725   7.541  17.974  0.00  0.00    +0.000 HD
ENDROOT
BRANCH   1  10
ATOM      5  C   UNL     1       2.975   5.932  17.835  0.00  0.00    +0.000 A 
ATOM      6  N   UNL     1       4.250   5.614  17.517  0.00  0.00    +0.000 NA
ATOM      7  N   UNL     1       4.834   6.789  17.246  0.00  0.00    +0.000 N 
ATOM      8  C   UNL     1       6.224   6.833  16.863  0.00  0.00    +0.000 C 
ATOM      9  C   UNL     1       4.000   7.853  17.361  0.00  0.00    +0.000 A 
ATOM     10  C   UNL     1       2.770   7.350  17.710  0.00  0.00    +0.000 A 
BRANCH   5  13
ATOM     11  N   UNL     1       2.038   4.264  19.453  0.00  0.00    +0.000 N 
ATOM     12  C   UNL     1       2.937   4.720  20.507  0.00  0.00    +0.000 C 
ATOM     13  C   UNL     1       1.959   4.917  18.202  0.00  0.00    +0.000 C 
ATOM     14  O   UNL     1       1.039   4.667  17.409  0.00  0.00    +0.000 OA
BRANCH  11  16
ATOM     15  C   UNL     1       1.306   1.940  18.912  0.00  0.00    +0.000 C 
ATOM     16  C   UNL     1       1.080   3.189  19.767  0.00  0.00    +0.000 C 
ATOM     17  C   UNL     1       1.090   2.840  21.258  0.00  0.00    +0.000 C 
ENDBRANCH  11  16
ENDBRANCH   5  13
ENDBRANCH   1  10
BRANCH   2  18
ATOM     18  C   UNL     1       0.098   9.957  18.200  0.00  0.00    +0.000 A 
ATOM     19  N   UNL     1      -0.776   9.613  17.202  0.00  0.00    +0.000 NA
ATOM     20  C   UNL     1      -2.062  10.032  17.294  0.00  0.00    +0.000 A 
ATOM     21  C   UNL     1      -2.490  10.787  18.383  0.00  0.00    +0.000 A 
ATOM     22  C   UNL     1      -1.596  11.114  19.397  0.00  0.00    +0.000 A 
ATOM     23  C   UNL     1      -0.260  10.708  19.333  0.00  0.00    +0.000 A 
BRANCH  20  24
ATOM     24  C   UNL     1      -3.027   9.642  16.208  0.00  0.00    +0.000 C 
ATOM     25  C   UNL     1      -3.921  10.673  15.556  0.00  0.00    +0.000 C 
ATOM     26  C   UNL     1      -2.768  10.091  14.789  0.00  0.00    +0.000 C 
ENDBRANCH  20  24
BRANCH  23  27
ATOM     27  N   UNL     1       0.610  11.007  20.399  0.00  0.00    +0.000 N 
ATOM     28  H   UNL     1       0.982  10.187  20.883  0.00  0.00    +0.000 HD
BRANCH  27  29
ATOM     29  C   UNL     1       0.990  12.260  20.899  0.00  0.00    +0.000 A 
ATOM     30  C   UNL     1       0.280  12.961  21.862  0.00  0.00    +0.000 A 
ATOM     31  N   UNL     1       0.534  14.233  22.244  0.00  0.00    +0.000 NA
ATOM     32  C   UNL     1       1.563  14.822  21.622  0.00  0.00    +0.000 A 
ATOM     33  N   UNL     1       2.355  14.253  20.700  0.00  0.00    +0.000 NA
ATOM     34  C   UNL     1       2.045  12.979  20.365  0.00  0.00    +0.000 A 
ENDBRANCH  27  29
ENDBRANCH  23  27
ENDBRANCH   2  18
TORSDOF 7
ENDMDL
MODEL 8
REMARK VINA RESULT:      -7.1      2.008      2.694
REMARK  Name = 
REMARK  11 active torsions:
REMARK  status: ('A' for Active; 'I' for Inactive)
REMARK    1  A    between atoms: C_1  and  C_2
REMARK    2  A    between atoms: C_2  and  C_3
REMARK    3  A    between atoms: C_2  and  N_4
REMARK    4  A    between atoms: N_4  and  C_5
REMARK    5  A    between atoms: C_6  and  C_8
REMARK    6  A    between atoms: N_10  and  C_11
REMARK    7  A    between atoms: C_13  and  N_14
REMARK    8  A    between atoms: C_15  and  C_17
REMARK    9  A    between atoms: C_19  and  C_20
REMARK   10  A    between atoms: C_25  and  N_26
REMARK   11  A    between atoms: N_26  and  C_27
REMARK                            x       y       z     vdW  Elec       q    Type
REMARK                         _______ _______ _______ _____ _____    ______ ____
ROOT
ATOM      1  N   UNL     1       1.722   8.462  18.317  0.00  0.00    +0.000 N 
ATOM      2  C   UNL     1       1.673   9.830  18.084  0.00  0.00    +0.000 C 
ATOM      3  O   UNL     1       2.581  10.524  17.633  0.00  0.00    +0.000 OA
ATOM      4  H   UNL     1       0.862   8.014  18.646  0.00  0.00    +0.000 HD
ENDROOT
BRANCH   1  10
ATOM      5  C   UNL     1       3.120   6.367  18.693  0.00  0.00    +0.000 A 
ATOM      6  N   UNL     1       4.268   5.868  18.183  0.00  0.00    +0.000 NA
ATOM      7  N   UNL     1       4.697   6.808  17.331  0.00  0.00    +0.000 N 
ATOM      8  C   UNL     1       5.921   6.609  16.594  0.00  0.00    +0.000 C 
ATOM      9  C   UNL     1       3.881   7.889  17.253  0.00  0.00    +0.000 A 
ATOM     10  C   UNL     1       2.822   7.641  18.094  0.00  0.00    +0.000 A 
BRANCH   5  13
ATOM     11  N   UNL     1       2.206   4.229  19.628  0.00  0.00    +0.000 N 
ATOM     12  C   UNL     1       3.084   3.434  18.777  0.00  0.00    +0.000 C 
ATOM     13  C   UNL     1       2.296   5.639  19.687  0.00  0.00    +0.000 C 
ATOM     14  O   UNL     1       1.710   6.279  20.573  0.00  0.00    +0.000 OA
BRANCH  11  16
ATOM     15  C   UNL     1       0.446   2.474  19.857  0.00  0.00    +0.000 C 
ATOM     16  C   UNL     1       1.308   3.525  20.560  0.00  0.00    +0.000 C 
ATOM     17  C   UNL     1       2.080   2.906  21.730  0.00  0.00    +0.000 C 
ENDBRANCH  11  16
ENDBRANCH   5  13
ENDBRANCH   1  10
BRANCH   2  18
ATOM     18  C   UNL     1       0.340  10.454  18.410  0.00  0.00    +0.000 A 
ATOM     19  N   UNL     1      -0.706   9.943  17.687  0.00  0.00    +0.000 NA
ATOM     20  C   UNL     1      -1.946  10.452  17.895  0.00  0.00    +0.000 A 
ATOM     21  C   UNL     1      -2.155  11.462  18.829  0.00  0.00    +0.000 A 
ATOM     22  C   UNL     1      -1.087  11.958  19.569  0.00  0.00    +0.000 A 
ATOM     23  C   UNL     1       0.207  11.466  19.376  0.00  0.00    +0.000 A 
BRANCH  20  24
ATOM     24  C   UNL     1      -3.098   9.883  17.113  0.00  0.00    +0.000 C 
ATOM     25  C   UNL     1      -3.880  10.742  16.144  0.00  0.00    +0.000 C 
ATOM     26  C   UNL     1      -2.956   9.678  15.623  0.00  0.00    +0.000 C 
ENDBRANCH  20  24
BRANCH  23  27
ATOM     27  N   UNL     1       1.261  11.948  20.177  0.00  0.00    +0.000 N 
ATOM     28  H   UNL     1       1.468  11.371  20.994  0.00  0.00    +0.000 HD
BRANCH  27  29
ATOM     29  C   UNL     1       2.019  13.116  20.022  0.00  0.00    +0.000 A 
ATOM     30  C   UNL     1       2.577  13.826  21.075  0.00  0.00    +0.000 A 
ATOM     31  N   UNL     1       3.174  15.034  20.969  0.00  0.00    +0.000 NA
ATOM     32  C   UNL     1       3.211  15.548  19.733  0.00  0.00    +0.000 A 
ATOM     33  N   UNL     1       2.744  14.957  18.622  0.00  0.00    +0.000 NA
ATOM     34  C   UNL     1       2.160  13.749  18.800  0.00  0.00    +0.000 A 
ENDBRANCH  27  29
ENDBRANCH  23  27
ENDBRANCH   2  18
TORSDOF 7
ENDMDL
MODEL 9
REMARK VINA RESULT:      -7.0      3.001      8.122
REMARK  Name = 
REMARK  11 active torsions:
REMARK  status: ('A' for Active; 'I' for Inactive)
REMARK    1  A    between atoms: C_1  and  C_2
REMARK    2  A    between atoms: C_2  and  C_3
REMARK    3  A    between atoms: C_2  and  N_4
REMARK    4  A    between atoms: N_4  and  C_5
REMARK    5  A    between atoms: C_6  and  C_8
REMARK    6  A    between atoms: N_10  and  C_11
REMARK    7  A    between atoms: C_13  and  N_14
REMARK    8  A    between atoms: C_15  and  C_17
REMARK    9  A    between atoms: C_19  and  C_20
REMARK   10  A    between atoms: C_25  and  N_26
REMARK   11  A    between atoms: N_26  and  C_27
REMARK                            x       y       z     vdW  Elec       q    Type
REMARK                         _______ _______ _______ _____ _____    ______ ____
ROOT
ATOM      1  N   UNL     1       0.379  11.432  20.906  0.00  0.00    +0.000 N 
ATOM      2  C   UNL     1       0.225  10.058  21.025  0.00  0.00    +0.000 C 
ATOM      3  O   UNL     1      -0.422   9.471  21.889  0.00  0.00    +0.000 OA
ATOM      4  H   UNL     1       0.905  11.774  20.097  0.00  0.00    +0.000 HD
ENDROOT
BRANCH   1  10
ATOM      5  C   UNL     1       0.323  13.712  22.038  0.00  0.00    +0.000 A 
ATOM      6  N   UNL     1      -0.506  14.342  22.902  0.00  0.00    +0.000 NA
ATOM      7  N   UNL     1      -1.447  13.433  23.190  0.00  0.00    +0.000 N 
ATOM      8  C   UNL     1      -2.516  13.766  24.102  0.00  0.00    +0.000 C 
ATOM      9  C   UNL     1      -1.279  12.249  22.551  0.00  0.00    +0.000 A 
ATOM     10  C   UNL     1      -0.161  12.386  21.763  0.00  0.00    +0.000 A 
BRANCH   5  13
ATOM     11  N   UNL     1       1.472  14.840  20.118  0.00  0.00    +0.000 N 
ATOM     12  C   UNL     1       0.222  14.939  19.374  0.00  0.00    +0.000 C 
ATOM     13  C   UNL     1       1.517  14.363  21.449  0.00  0.00    +0.000 C 
ATOM     14  O   UNL     1       2.536  14.499  22.141  0.00  0.00    +0.000 OA
BRANCH  11  16
ATOM     15  C   UNL     1       3.463  14.358  18.691  0.00  0.00    +0.000 C 
ATOM     16  C   UNL     1       2.694  15.397  19.511  0.00  0.00    +0.000 C 
ATOM     17  C   UNL     1       2.392  16.642  18.674  0.00  0.00    +0.000 C 
ENDBRANCH  11  16
ENDBRANCH   5  13
ENDBRANCH   1  10
BRANCH   2  18
ATOM     18  C   UNL     1       0.918   9.273  19.941  0.00  0.00    +0.000 A 
ATOM     19  N   UNL     1       1.590   8.169  20.394  0.00  0.00    +0.000 NA
ATOM     20  C   UNL     1       2.261   7.404  19.497  0.00  0.00    +0.000 A 
ATOM     21  C   UNL     1       2.260   7.728  18.144  0.00  0.00    +0.000 A 
ATOM     22  C   UNL     1       1.558   8.842  17.695  0.00  0.00    +0.000 A 
ATOM     23  C   UNL     1       0.863   9.659  18.590  0.00  0.00    +0.000 A 
BRANCH  20  24
ATOM     24  C   UNL     1       2.987   6.183  19.991  0.00  0.00    +0.000 C 
ATOM     25  C   UNL     1       2.226   4.954  20.438  0.00  0.00    +0.000 C 
ATOM     26  C   UNL     1       2.993   4.930  19.146  0.00  0.00    +0.000 C 
ENDBRANCH  20  24
BRANCH  23  27
ATOM     27  N   UNL     1       0.117  10.749  18.101  0.00  0.00    +0.000 N 
ATOM     28  H   UNL     1       0.661  11.601  17.956  0.00  0.00    +0.000 HD
BRANCH  27  29
ATOM     29  C   UNL     1      -1.257  10.825  17.834  0.00  0.00    +0.000 A 
ATOM     30  C   UNL     1      -2.112  11.749  18.416  0.00  0.00    +0.000 A 
ATOM     31  N   UNL     1      -3.459  11.743  18.300  0.00  0.00    +0.000 NA
ATOM     32  C   UNL     1      -3.965  10.754  17.553  0.00  0.00    +0.000 A 
ATOM     33  N   UNL     1      -3.256   9.817  16.905  0.00  0.00    +0.000 NA
ATOM     34  C   UNL     1      -1.913   9.881  17.063  0.00  0.00    +0.000 A 
ENDBRANCH  27  29
ENDBRANCH  23  27
ENDBRANCH   2  18
TORSDOF 7
ENDMDL
