MODEL 1
REMARK VINA RESULT:      -8.3      0.000      0.000
REMARK  Name = 
REMARK  5 active torsions:
REMARK  status: ('A' for Active; 'I' for Inactive)
REMARK    1  A    between atoms: C_2  and  C_4
REMARK    2  A    between atoms: C_9  and  C_10
REMARK    3  A    between atoms: C_11  and  C_12
REMARK    4  A    between atoms: C_12  and  C_13
REMARK    5  A    between atoms: C_13  and  C_14
REMARK                            x       y       z     vdW  Elec       q    Type
REMARK                         _______ _______ _______ _____ _____    ______ ____
ROOT
ATOM      1  C   UNL     1       3.990   2.988  19.900  0.00  0.00    +0.000 A 
ATOM      2  C   UNL     1       2.940   3.401  20.715  0.00  0.00    +0.000 A 
ATOM      3  C   UNL     1       2.339   4.641  20.497  0.00  0.00    +0.000 A 
ATOM      4  C   UNL     1       2.771   5.482  19.455  0.00  0.00    +0.000 A 
ATOM      5  C   UNL     1       2.156   6.731  19.256  0.00  0.00    +0.000 A 
ATOM      6  C   UNL     1       2.559   7.595  18.229  0.00  0.00    +0.000 A 
ATOM      7  C   UNL     1       3.575   7.177  17.370  0.00  0.00    +0.000 A 
ATOM      8  C   UNL     1       4.204   5.940  17.551  0.00  0.00    +0.000 A 
ATOM      9 BR   UNL     1       5.587   5.506  16.315  0.00  0.00    +0.000 Br
ATOM     10  C   UNL     1       3.821   5.067  18.599  0.00  0.00    +0.000 A 
ATOM     11  C   UNL     1       4.417   3.806  18.848  0.00  0.00    +0.000 A 
ENDROOT
BRANCH   1  13
ATOM     12  N   UNL     1       5.304   1.489  21.247  0.00  0.00    +0.000 NA
ATOM     13  C   UNL     1       4.653   1.676  20.148  0.00  0.00    +0.000 C 
ATOM     14  N   UNL     1       4.588   0.687  19.209  0.00  0.00    +0.000 N 
ATOM     15  H   UNL     1       5.661   0.533  21.279  0.00  0.00    +0.000 HD
ATOM     16  H   UNL     1       5.302  -0.029  19.275  0.00  0.00    +0.000 HD
ATOM     17  H   UNL     1       4.463   0.999  18.251  0.00  0.00    +0.000 HD
ENDBRANCH   1  13
BRANCH   6  18
ATOM     18  C   UNL     1       1.862   8.879  18.054  0.00  0.00    +0.000 C 
ATOM     19  C   UNL     1       1.139   9.479  19.014  0.00  0.00    +0.000 C 
BRANCH  19  20
ATOM     20  C   UNL     1       0.430  10.795  18.824  0.00  0.00    +0.000 C 
BRANCH  20  21
ATOM     21  C   UNL     1      -1.028  10.715  19.289  0.00  0.00    +0.000 C 
BRANCH  21  22
ATOM     22  C   UNL     1      -2.004  10.730  18.146  0.00  0.00    +0.000 A 
ATOM     23  C   UNL     1      -1.800   9.956  16.999  0.00  0.00    +0.000 A 
ATOM     24  C   UNL     1      -2.742   9.983  15.974  0.00  0.00    +0.000 A 
ATOM     25  C   UNL     1      -3.856  10.792  16.126  0.00  0.00    +0.000 A 
ATOM     26  N   UNL     1      -4.079  11.565  17.208  0.00  0.00    +0.000 NA
ATOM     27  C   UNL     1      -3.150  11.518  18.190  0.00  0.00    +0.000 A 
ENDBRANCH  21  22
ENDBRANCH  20  21
ENDBRANCH  19  20
ENDBRANCH   6  18
TORSDOF 5
ENDMDL
MODEL 2
REMARK VINA RESULT:      -8.1      3.045      9.358
REMARK  Name = 
REMARK  5 active torsions:
REMARK  status: ('A' for Active; 'I' for Inactive)
REMARK    1  A    between atoms: C_2  and  C_4
REMARK    2  A    between atoms: C_9  and  C_10
REMARK    3  A    between atoms: C_11  and  C_12
REMARK    4  A    between atoms: C_12  and  C_13
REMARK    5  A    between atoms: C_13  and  C_14
REMARK                            x       y       z     vdW  Elec       q    Type
REMARK                         _______ _______ _______ _____ _____    ______ ____
ROOT
ATOM      1  C   UNL     1      -4.445  11.436  17.462  0.00  0.00    +0.000 A 
ATOM      2  C   UNL     1      -4.058  10.596  16.421  0.00  0.00    +0.000 A 
ATOM      3  C   UNL     1      -2.787  10.022  16.430  0.00  0.00    +0.000 A 
ATOM      4  C   UNL     1      -1.887  10.268  17.484  0.00  0.00    +0.000 A 
ATOM      5  C   UNL     1      -0.608   9.683  17.470  0.00  0.00    +0.000 A 
ATOM      6  C   UNL     1       0.314   9.906  18.501  0.00  0.00    +0.000 A 
ATOM      7  C   UNL     1      -0.073  10.704  19.578  0.00  0.00    +0.000 A 
ATOM      8  C   UNL     1      -1.340  11.298  19.611  0.00  0.00    +0.000 A 
ATOM      9 BR   UNL     1      -1.728  12.375  21.134  0.00  0.00    +0.000 Br
ATOM     10  C   UNL     1      -2.274  11.099  18.564  0.00  0.00    +0.000 A 
ATOM     11  C   UNL     1      -3.567  11.674  18.526  0.00  0.00    +0.000 A 
ENDROOT
BRANCH   1  13
ATOM     12  N   UNL     1      -5.908  13.303  17.064  0.00  0.00    +0.000 NA
ATOM     13  C   UNL     1      -5.792  12.074  17.442  0.00  0.00    +0.000 C 
ATOM     14  N   UNL     1      -6.891  11.368  17.840  0.00  0.00    +0.000 N 
ATOM     15  H   UNL     1      -6.893  13.574  17.069  0.00  0.00    +0.000 HD
ATOM     16  H   UNL     1      -7.693  11.922  18.115  0.00  0.00    +0.000 HD
ATOM     17  H   UNL     1      -6.715  10.618  18.500  0.00  0.00    +0.000 HD
ENDBRANCH   1  13
BRANCH   6  18
ATOM     18  C   UNL     1       1.629   9.249  18.445  0.00  0.00    +0.000 C 
ATOM     19  C   UNL     1       1.832   8.016  17.952  0.00  0.00    +0.000 C 
BRANCH  19  20
ATOM     20  C   UNL     1       3.184   7.352  17.898  0.00  0.00    +0.000 C 
BRANCH  20  21
ATOM     21  C   UNL     1       3.382   6.395  19.079  0.00  0.00    +0.000 C 
BRANCH  21  22
ATOM     22  C   UNL     1       2.531   5.159  18.974  0.00  0.00    +0.000 A 
ATOM     23  C   UNL     1       1.740   4.723  20.041  0.00  0.00    +0.000 A 
ATOM     24  C   UNL     1       0.950   3.586  19.892  0.00  0.00    +0.000 A 
ATOM     25  C   UNL     1       0.985   2.915  18.681  0.00  0.00    +0.000 A 
ATOM     26  N   UNL     1       1.748   3.294  17.635  0.00  0.00    +0.000 NA
ATOM     27  C   UNL     1       2.502   4.404  17.806  0.00  0.00    +0.000 A 
ENDBRANCH  21  22
ENDBRANCH  20  21
ENDBRANCH  19  20
ENDBRANCH   6  18
TORSDOF 5
ENDMDL
MODEL 3
REMARK VINA RESULT:      -8.1      3.117      4.330
REMARK  Name = 
REMARK  5 active torsions:
REMARK  status: ('A' for Active; 'I' for Inactive)
REMARK    1  A    between atoms: C_2  and  C_4
REMARK    2  A    between atoms: C_9  and  C_10
REMARK    3  A    between atoms: C_11  and  C_12
REMARK    4  A    between atoms: C_12  and  C_13
REMARK    5  A    between atoms: C_13  and  C_14
REMARK                            x       y       z     vdW  Elec       q    Type
REMARK                         _______ _______ _______ _____ _____    ______ ____
ROOT
ATOM      1  C   UNL     1       5.659   5.125  15.651  0.00  0.00    +0.000 A 
ATOM      2  C   UNL     1       5.738   6.477  15.971  0.00  0.00    +0.000 A 
ATOM      3  C   UNL     1       4.944   6.996  16.995  0.00  0.00    +0.000 A 
ATOM      4  C   UNL     1       4.069   6.169  17.722  0.00  0.00    +0.000 A 
ATOM      5  C   UNL     1       3.273   6.713  18.746  0.00  0.00    +0.000 A 
ATOM      6  C   UNL     1       2.389   5.921  19.490  0.00  0.00    +0.000 A 
ATOM      7  C   UNL     1       2.333   4.553  19.220  0.00  0.00    +0.000 A 
ATOM      8  C   UNL     1       3.113   3.991  18.203  0.00  0.00    +0.000 A 
ATOM      9 BR   UNL     1       2.922   2.115  17.931  0.00  0.00    +0.000 Br
ATOM     10  C   UNL     1       3.994   4.785  17.428  0.00  0.00    +0.000 A 
ATOM     11  C   UNL     1       4.806   4.288  16.379  0.00  0.00    +0.000 A 
ENDROOT
BRANCH   1  13
ATOM     12  N   UNL     1       6.180   3.427  14.030  0.00  0.00    +0.000 NA
ATOM     13  C   UNL     1       6.485   4.574  14.540  0.00  0.00    +0.000 C 
ATOM     14  N   UNL     1       7.566   5.268  14.079  0.00  0.00    +0.000 N 
ATOM     15  H   UNL     1       6.815   3.213  13.258  0.00  0.00    +0.000 HD
ATOM     16  H   UNL     1       8.257   4.723  13.578  0.00  0.00    +0.000 HD
ATOM     17  H   UNL     1       8.002   5.895  14.748  0.00  0.00    +0.000 HD
ENDBRANCH   1  13
BRANCH   6  18
ATOM     18  C   UNL     1       1.599   6.540  20.567  0.00  0.00    +0.000 C 
ATOM     19  C   UNL     1       1.596   7.856  20.834  0.00  0.00    +0.000 C 
BRANCH  19  20
ATOM     20  C   UNL     1       0.782   8.481  21.938  0.00  0.00    +0.000 C 
BRANCH  20  21
ATOM     21  C   UNL     1      -0.540   9.045  21.404  0.00  0.00    +0.000 C 
BRANCH  21  22
ATOM     22  C   UNL     1      -0.347  10.260  20.540  0.00  0.00    +0.000 A 
ATOM     23  C   UNL     1      -0.841  10.316  19.233  0.00  0.00    +0.000 A 
ATOM     24  C   UNL     1      -0.659  11.470  18.477  0.00  0.00    +0.000 A 
ATOM     25  C   UNL     1       0.021  12.531  19.050  0.00  0.00    +0.000 A 
ATOM     26  N   UNL     1       0.528  12.509  20.300  0.00  0.00    +0.000 NA
ATOM     27  C   UNL     1       0.334  11.377  21.014  0.00  0.00    +0.000 A 
ENDBRANCH  21  22
ENDBRANCH  20  21
ENDBRANCH  19  20
ENDBRANCH   6  18
TORSDOF 5
ENDMDL
MODEL 4
REMARK VINA RESULT:      -8.1      0.954      1.290
REMARK  Name = 
REMARK  5 active torsions:
REMARK  status: ('A' for Active; 'I' for Inactive)
REMARK    1  A    between atoms: C_2  and  C_4
REMARK    2  A    between atoms: C_9  and  C_10
REMARK    3  A    between atoms: C_11  and  C_12
REMARK    4  A    between atoms: C_12  and  C_13
REMARK    5  A    between atoms: C_13  and  C_14
REMARK                            x       y       z     vdW  Elec       q    Type
REMARK                         _______ _______ _______ _____ _____    ______ ____
ROOT
ATOM      1  C   UNL     1       3.530   3.146  19.660  0.00  0.00    +0.000 A 
ATOM      2  C   UNL     1       2.615   3.308  20.696  0.00  0.00    +0.000 A 
ATOM      3  C   UNL     1       2.010   4.549  20.900  0.00  0.00    +0.000 A 
ATOM      4  C   UNL     1       2.301   5.643  20.065  0.00  0.00    +0.000 A 
ATOM      5  C   UNL     1       1.685   6.886  20.291  0.00  0.00    +0.000 A 
ATOM      6  C   UNL     1       1.951   7.998  19.481  0.00  0.00    +0.000 A 
ATOM      7  C   UNL     1       2.826   7.842  18.405  0.00  0.00    +0.000 A 
ATOM      8  C   UNL     1       3.453   6.615  18.163  0.00  0.00    +0.000 A 
ATOM      9 BR   UNL     1       4.636   6.551  16.671  0.00  0.00    +0.000 Br
ATOM     10  C   UNL     1       3.210   5.489  18.989  0.00  0.00    +0.000 A 
ATOM     11  C   UNL     1       3.814   4.221  18.810  0.00  0.00    +0.000 A 
ENDROOT
BRANCH   1  13
ATOM     12  N   UNL     1       3.820   1.066  18.487  0.00  0.00    +0.000 NA
ATOM     13  C   UNL     1       4.200   1.830  19.457  0.00  0.00    +0.000 C 
ATOM     14  N   UNL     1       5.193   1.428  20.303  0.00  0.00    +0.000 N 
ATOM     15  H   UNL     1       4.402   0.227  18.461  0.00  0.00    +0.000 HD
ATOM     16  H   UNL     1       5.375   0.432  20.325  0.00  0.00    +0.000 HD
ATOM     17  H   UNL     1       5.157   1.819  21.239  0.00  0.00    +0.000 HD
ENDBRANCH   1  13
BRANCH   6  18
ATOM     18  C   UNL     1       1.258   9.268  19.750  0.00  0.00    +0.000 C 
ATOM     19  C   UNL     1       0.144   9.373  20.495  0.00  0.00    +0.000 C 
BRANCH  19  20
ATOM     20  C   UNL     1      -0.557  10.678  20.766  0.00  0.00    +0.000 C 
BRANCH  20  21
ATOM     21  C   UNL     1      -0.607  11.555  19.510  0.00  0.00    +0.000 C 
BRANCH  21  22
ATOM     22  C   UNL     1      -1.741  11.192  18.592  0.00  0.00    +0.000 A 
ATOM     23  C   UNL     1      -1.589  10.234  17.586  0.00  0.00    +0.000 A 
ATOM     24  C   UNL     1      -2.673   9.911  16.773  0.00  0.00    +0.000 A 
ATOM     25  C   UNL     1      -3.873  10.566  16.988  0.00  0.00    +0.000 A 
ATOM     26  N   UNL     1      -4.054  11.509  17.937  0.00  0.00    +0.000 NA
ATOM     27  C   UNL     1      -2.986  11.800  18.714  0.00  0.00    +0.000 A 
ENDBRANCH  21  22
ENDBRANCH  20  21
ENDBRANCH  19  20
ENDBRANCH   6  18
TORSDOF 5
ENDMDL
MODEL 5
REMARK VINA RESULT:      -8.0      3.579      8.600
REMARK  Name = 
REMARK  5 active torsions:
REMARK  status: ('A' for Active; 'I' for Inactive)
REMARK    1  A    between atoms: C_2  and  C_4
REMARK    2  A    between atoms: C_9  and  C_10
REMARK    3  A    between atoms: C_11  and  C_12
REMARK    4  A    between atoms: C_12  and  C_13
REMARK    5  A    between atoms: C_13  and  C_14
REMARK                            x       y       z     vdW  Elec       q    Type
REMARK                         _______ _______ _______ _____ _____    ______ ____
ROOT
ATOM      1  C   UNL     1      -1.473  11.587  22.611  0.00  0.00    +0.000 A 
ATOM      2  C   UNL     1      -0.969  10.397  23.125  0.00  0.00    +0.000 A 
ATOM      3  C   UNL     1      -0.169   9.581  22.324  0.00  0.00    +0.000 A 
ATOM      4  C   UNL     1       0.148   9.947  21.004  0.00  0.00    +0.000 A 
ATOM      5  C   UNL     1       0.952   9.107  20.212  0.00  0.00    +0.000 A 
ATOM      6  C   UNL     1       1.287   9.438  18.893  0.00  0.00    +0.000 A 
ATOM      7  C   UNL     1       0.833  10.652  18.377  0.00  0.00    +0.000 A 
ATOM      8  C   UNL     1       0.030  11.502  19.145  0.00  0.00    +0.000 A 
ATOM      9 BR   UNL     1      -0.532  13.119  18.307  0.00  0.00    +0.000 Br
ATOM     10  C   UNL     1      -0.335  11.168  20.473  0.00  0.00    +0.000 A 
ATOM     11  C   UNL     1      -1.150  11.974  21.305  0.00  0.00    +0.000 A 
ENDROOT
BRANCH   1  13
ATOM     12  N   UNL     1      -1.952  13.629  23.790  0.00  0.00    +0.000 NA
ATOM     13  C   UNL     1      -2.352  12.449  23.453  0.00  0.00    +0.000 C 
ATOM     14  N   UNL     1      -3.562  11.983  23.881  0.00  0.00    +0.000 N 
ATOM     15  H   UNL     1      -2.681  14.100  24.328  0.00  0.00    +0.000 HD
ATOM     16  H   UNL     1      -3.953  12.453  24.688  0.00  0.00    +0.000 HD
ATOM     17  H   UNL     1      -3.638  10.974  23.967  0.00  0.00    +0.000 HD
ENDBRANCH   1  13
BRANCH   6  18
ATOM     18  C   UNL     1       2.151   8.532  18.120  0.00  0.00    +0.000 C 
ATOM     19  C   UNL     1       2.714   7.420  18.623  0.00  0.00    +0.000 C 
BRANCH  19  20
ATOM     20  C   UNL     1       3.596   6.497  17.823  0.00  0.00    +0.000 C 
BRANCH  20  21
ATOM     21  C   UNL     1       3.995   5.262  18.638  0.00  0.00    +0.000 C 
BRANCH  21  22
ATOM     22  C   UNL     1       2.824   4.377  18.962  0.00  0.00    +0.000 A 
ATOM     23  C   UNL     1       2.324   4.271  20.264  0.00  0.00    +0.000 A 
ATOM     24  C   UNL     1       1.222   3.457  20.515  0.00  0.00    +0.000 A 
ATOM     25  C   UNL     1       0.661   2.767  19.454  0.00  0.00    +0.000 A 
ATOM     26  N   UNL     1       1.124   2.829  18.189  0.00  0.00    +0.000 NA
ATOM     27  C   UNL     1       2.192   3.629  17.973  0.00  0.00    +0.000 A 
ENDBRANCH  21  22
ENDBRANCH  20  21
ENDBRANCH  19  20
ENDBRANCH   6  18
TORSDOF 5
ENDMDL
MODEL 6
REMARK VINA RESULT:      -7.9      3.721      4.893
REMARK  Name = 
REMARK  5 active torsions:
REMARK  status: ('A' for Active; 'I' for Inactive)
REMARK    1  A    between atoms: C_2  and  C_4
REMARK    2  A    between atoms: C_9  and  C_10
REMARK    3  A    between atoms: C_11  and  C_12
REMARK    4  A    between atoms: C_12  and  C_13
REMARK    5  A    between atoms: C_13  and  C_14
REMARK                            x       y       z     vdW  Elec       q    Type
REMARK                         _______ _______ _______ _____ _____    ______ ____
ROOT
ATOM      1  C   UNL     1       5.611   5.005  15.463  0.00  0.00    +0.000 A 
ATOM      2  C   UNL     1       5.538   6.385  15.631  0.00  0.00    +0.000 A 
ATOM      3  C   UNL     1       4.767   6.917  16.665  0.00  0.00    +0.000 A 
ATOM      4  C   UNL     1       4.068   6.080  17.553  0.00  0.00    +0.000 A 
ATOM      5  C   UNL     1       3.292   6.638  18.585  0.00  0.00    +0.000 A 
ATOM      6  C   UNL     1       2.582   5.836  19.487  0.00  0.00    +0.000 A 
ATOM      7  C   UNL     1       2.683   4.449  19.367  0.00  0.00    +0.000 A 
ATOM      8  C   UNL     1       3.447   3.873  18.346  0.00  0.00    +0.000 A 
ATOM      9 BR   UNL     1       3.482   1.968  18.290  0.00  0.00    +0.000 Br
ATOM     10  C   UNL     1       4.152   4.673  17.413  0.00  0.00    +0.000 A 
ATOM     11  C   UNL     1       4.935   4.160  16.351  0.00  0.00    +0.000 A 
ENDROOT
BRANCH   1  13
ATOM     12  N   UNL     1       6.065   3.300  13.828  0.00  0.00    +0.000 NA
ATOM     13  C   UNL     1       6.410   4.433  14.342  0.00  0.00    +0.000 C 
ATOM     14  N   UNL     1       7.511   5.094  13.878  0.00  0.00    +0.000 N 
ATOM     15  H   UNL     1       6.686   3.070  13.050  0.00  0.00    +0.000 HD
ATOM     16  H   UNL     1       8.180   4.529  13.369  0.00  0.00    +0.000 HD
ATOM     17  H   UNL     1       7.972   5.702  14.547  0.00  0.00    +0.000 HD
ENDBRANCH   1  13
BRANCH   6  18
ATOM     18  C   UNL     1       1.805   6.474  20.562  0.00  0.00    +0.000 C 
ATOM     19  C   UNL     1       1.544   7.791  20.620  0.00  0.00    +0.000 C 
BRANCH  19  20
ATOM     20  C   UNL     1       0.747   8.435  21.724  0.00  0.00    +0.000 C 
BRANCH  20  21
ATOM     21  C   UNL     1      -0.428   9.245  21.163  0.00  0.00    +0.000 C 
BRANCH  21  22
ATOM     22  C   UNL     1      -0.392  10.688  21.583  0.00  0.00    +0.000 A 
ATOM     23  C   UNL     1      -1.233  11.180  22.586  0.00  0.00    +0.000 A 
ATOM     24  C   UNL     1      -1.150  12.519  22.960  0.00  0.00    +0.000 A 
ATOM     25  C   UNL     1      -0.232  13.326  22.310  0.00  0.00    +0.000 A 
ATOM     26  N   UNL     1       0.584  12.894  21.326  0.00  0.00    +0.000 NA
ATOM     27  C   UNL     1       0.484  11.589  20.986  0.00  0.00    +0.000 A 
ENDBRANCH  21  22
ENDBRANCH  20  21
ENDBRANCH  19  20
ENDBRANCH   6  18
TORSDOF 5
ENDMDL
MODEL 7
REMARK VINA RESULT:      -7.9      2.952      9.131
REMARK  Name = 
REMARK  5 active torsions:
REMARK  status: ('A' for Active; 'I' for Inactive)
REMARK    1  A    between atoms: C_2  and  C_4
REMARK    2  A    between atoms: C_9  and  C_10
REMARK    3  A    between atoms: C_11  and  C_12
REMARK    4  A    between atoms: C_12  and  C_13
REMARK    5  A    between atoms: C_13  and  C_14
REMARK                            x       y       z     vdW  Elec       q    Type
REMARK                         _______ _______ _______ _____ _____    ______ ____
ROOT
ATOM      1  C   UNL     1      -4.004  11.497  17.881  0.00  0.00    +0.000 A 
ATOM      2  C   UNL     1      -3.766  10.631  16.819  0.00  0.00    +0.000 A 
ATOM      3  C   UNL     1      -2.525  10.003  16.701  0.00  0.00    +0.000 A 
ATOM      4  C   UNL     1      -1.509  10.223  17.648  0.00  0.00    +0.000 A 
ATOM      5  C   UNL     1      -0.263   9.585  17.507  0.00  0.00    +0.000 A 
ATOM      6  C   UNL     1       0.773   9.781  18.429  0.00  0.00    +0.000 A 
ATOM      7  C   UNL     1       0.537  10.607  19.529  0.00  0.00    +0.000 A 
ATOM      8  C   UNL     1      -0.694  11.254  19.688  0.00  0.00    +0.000 A 
ATOM      9 BR   UNL     1      -0.872  12.364  21.226  0.00  0.00    +0.000 Br
ATOM     10  C   UNL     1      -1.742  11.082  18.750  0.00  0.00    +0.000 A 
ATOM     11  C   UNL     1      -3.008  11.711  18.841  0.00  0.00    +0.000 A 
ENDROOT
BRANCH   1  13
ATOM     12  N   UNL     1      -5.438  13.200  18.793  0.00  0.00    +0.000 NA
ATOM     13  C   UNL     1      -5.318  12.192  17.995  0.00  0.00    +0.000 C 
ATOM     14  N   UNL     1      -6.392  11.749  17.277  0.00  0.00    +0.000 N 
ATOM     15  H   UNL     1      -6.382  13.584  18.724  0.00  0.00    +0.000 HD
ATOM     16  H   UNL     1      -7.300  12.030  17.626  0.00  0.00    +0.000 HD
ATOM     17  H   UNL     1      -6.378  10.766  17.028  0.00  0.00    +0.000 HD
ENDBRANCH   1  13
BRANCH   6  18
ATOM     18  C   UNL     1       2.047   9.068  18.244  0.00  0.00    +0.000 C 
ATOM     19  C   UNL     1       2.141   7.752  17.991  0.00  0.00    +0.000 C 
BRANCH  19  20
ATOM     20  C   UNL     1       3.451   7.032  17.801  0.00  0.00    +0.000 C 
BRANCH  20  21
ATOM     21  C   UNL     1       3.741   6.085  18.972  0.00  0.00    +0.000 C 
BRANCH  21  22
ATOM     22  C   UNL     1       2.680   5.034  19.146  0.00  0.00    +0.000 A 
ATOM     23  C   UNL     1       2.336   4.162  18.108  0.00  0.00    +0.000 A 
ATOM     24  C   UNL     1       1.364   3.188  18.321  0.00  0.00    +0.000 A 
ATOM     25  C   UNL     1       0.759   3.124  19.565  0.00  0.00    +0.000 A 
ATOM     26  N   UNL     1       1.051   3.957  20.585  0.00  0.00    +0.000 NA
ATOM     27  C   UNL     1       2.001   4.891  20.352  0.00  0.00    +0.000 A 
ENDBRANCH  21  22
ENDBRANCH  20  21
ENDBRANCH  19  20
ENDBRANCH   6  18
TORSDOF 5
ENDMDL
MODEL 8
REMARK VINA RESULT:      -7.9      2.127      3.096
REMARK  Name = 
REMARK  5 active torsions:
REMARK  status: ('A' for Active; 'I' for Inactive)
REMARK    1  A    between atoms: C_2  and  C_4
REMARK    2  A    between atoms: C_9  and  C_10
REMARK    3  A    between atoms: C_11  and  C_12
REMARK    4  A    between atoms: C_12  and  C_13
REMARK    5  A    between atoms: C_13  and  C_14
REMARK                            x       y       z     vdW  Elec       q    Type
REMARK                         _______ _______ _______ _____ _____    ______ ____
ROOT
ATOM      1  C   UNL     1       3.623   3.249  19.317  0.00  0.00    +0.000 A 
ATOM      2  C   UNL     1       2.602   3.584  20.200  0.00  0.00    +0.000 A 
ATOM      3  C   UNL     1       2.059   4.870  20.176  0.00  0.00    +0.000 A 
ATOM      4  C   UNL     1       2.520   5.834  19.261  0.00  0.00    +0.000 A 
ATOM      5  C   UNL     1       1.962   7.125  19.257  0.00  0.00    +0.000 A 
ATOM      6  C   UNL     1       2.396   8.111  18.361  0.00  0.00    +0.000 A 
ATOM      7  C   UNL     1       3.384   7.778  17.433  0.00  0.00    +0.000 A 
ATOM      8  C   UNL     1       3.954   6.501  17.422  0.00  0.00    +0.000 A 
ATOM      9 BR   UNL     1       5.304   6.191  16.112  0.00  0.00    +0.000 Br
ATOM     10  C   UNL     1       3.541   5.501  18.337  0.00  0.00    +0.000 A 
ATOM     11  C   UNL     1       4.078   4.192  18.389  0.00  0.00    +0.000 A 
ENDROOT
BRANCH   1  13
ATOM     12  N   UNL     1       3.828   0.988  18.521  0.00  0.00    +0.000 NA
ATOM     13  C   UNL     1       4.226   1.886  19.359  0.00  0.00    +0.000 C 
ATOM     14  N   UNL     1       5.177   1.585  20.292  0.00  0.00    +0.000 N 
ATOM     15  H   UNL     1       4.365   0.129  18.655  0.00  0.00    +0.000 HD
ATOM     16  H   UNL     1       5.305   0.599  20.487  0.00  0.00    +0.000 HD
ATOM     17  H   UNL     1       5.141   2.131  21.147  0.00  0.00    +0.000 HD
ENDBRANCH   1  13
BRANCH   6  18
ATOM     18  C   UNL     1       1.759   9.438  18.387  0.00  0.00    +0.000 C 
ATOM     19  C   UNL     1       0.430   9.633  18.413  0.00  0.00    +0.000 C 
BRANCH  19  20
ATOM     20  C   UNL     1      -0.212  10.995  18.440  0.00  0.00    +0.000 C 
BRANCH  20  21
ATOM     21  C   UNL     1       0.379  11.867  19.555  0.00  0.00    +0.000 C 
BRANCH  21  22
ATOM     22  C   UNL     1      -0.360  11.726  20.856  0.00  0.00    +0.000 A 
ATOM     23  C   UNL     1      -1.578  12.375  21.081  0.00  0.00    +0.000 A 
ATOM     24  C   UNL     1      -2.240  12.197  22.293  0.00  0.00    +0.000 A 
ATOM     25  C   UNL     1      -1.655  11.382  23.247  0.00  0.00    +0.000 A 
ATOM     26  N   UNL     1      -0.474  10.753  23.075  0.00  0.00    +0.000 NA
ATOM     27  C   UNL     1       0.145  10.940  21.888  0.00  0.00    +0.000 A 
ENDBRANCH  21  22
ENDBRANCH  20  21
ENDBRANCH  19  20
ENDBRANCH   6  18
TORSDOF 5
ENDMDL
MODEL 9
REMARK VINA RESULT:      -7.9      3.491      4.651
REMARK  Name = 
REMARK  5 active torsions:
REMARK  status: ('A' for Active; 'I' for Inactive)
REMARK    1  A    between atoms: C_2  and  C_4
REMARK    2  A    between atoms: C_9  and  C_10
REMARK    3  A    between atoms: C_11  and  C_12
REMARK    4  A    between atoms: C_12  and  C_13
REMARK    5  A    between atoms: C_13  and  C_14
REMARK                            x       y       z     vdW  Elec       q    Type
REMARK                         _______ _______ _______ _____ _____    ______ ____
ROOT
ATOM      1  C   UNL     1       5.676   5.146  15.798  0.00  0.00    +0.000 A 
ATOM      2  C   UNL     1       5.821   6.463  16.223  0.00  0.00    +0.000 A 
ATOM      3  C   UNL     1       5.024   6.948  17.260  0.00  0.00    +0.000 A 
ATOM      4  C   UNL     1       4.079   6.122  17.896  0.00  0.00    +0.000 A 
ATOM      5  C   UNL     1       3.281   6.633  18.935  0.00  0.00    +0.000 A 
ATOM      6  C   UNL     1       2.329   5.840  19.590  0.00  0.00    +0.000 A 
ATOM      7  C   UNL     1       2.205   4.503  19.213  0.00  0.00    +0.000 A 
ATOM      8  C   UNL     1       2.986   3.974  18.179  0.00  0.00    +0.000 A 
ATOM      9 BR   UNL     1       2.699   2.138  17.758  0.00  0.00    +0.000 Br
ATOM     10  C   UNL     1       3.936   4.771  17.493  0.00  0.00    +0.000 A 
ATOM     11  C   UNL     1       4.753   4.307  16.434  0.00  0.00    +0.000 A 
ENDROOT
BRANCH   1  13
ATOM     12  N   UNL     1       7.555   5.288  14.302  0.00  0.00    +0.000 NA
ATOM     13  C   UNL     1       6.506   4.631  14.672  0.00  0.00    +0.000 C 
ATOM     14  N   UNL     1       6.147   3.485  14.023  0.00  0.00    +0.000 N 
ATOM     15  H   UNL     1       8.030   4.785  13.551  0.00  0.00    +0.000 HD
ATOM     16  H   UNL     1       6.535   3.365  13.095  0.00  0.00    +0.000 HD
ATOM     17  H   UNL     1       5.158   3.261  14.044  0.00  0.00    +0.000 HD
ENDBRANCH   1  13
BRANCH   6  18
ATOM     18  C   UNL     1       1.540   6.422  20.687  0.00  0.00    +0.000 C 
ATOM     19  C   UNL     1       0.999   7.651  20.654  0.00  0.00    +0.000 C 
BRANCH  19  20
ATOM     20  C   UNL     1       0.190   8.237  21.782  0.00  0.00    +0.000 C 
BRANCH  20  21
ATOM     21  C   UNL     1       0.647   9.662  22.113  0.00  0.00    +0.000 C 
BRANCH  21  22
ATOM     22  C   UNL     1      -0.477  10.659  22.069  0.00  0.00    +0.000 A 
ATOM     23  C   UNL     1      -1.264  10.926  23.194  0.00  0.00    +0.000 A 
ATOM     24  C   UNL     1      -2.280  11.874  23.114  0.00  0.00    +0.000 A 
ATOM     25  C   UNL     1      -2.484  12.519  21.906  0.00  0.00    +0.000 A 
ATOM     26  N   UNL     1      -1.758  12.277  20.795  0.00  0.00    +0.000 NA
ATOM     27  C   UNL     1      -0.776  11.354  20.901  0.00  0.00    +0.000 A 
ENDBRANCH  21  22
ENDBRANCH  20  21
ENDBRANCH  19  20
ENDBRANCH   6  18
TORSDOF 5
ENDMDL
