MODEL 1
REMARK VINA RESULT:      -8.7      0.000      0.000
REMARK  Name = 
REMARK  6 active torsions:
REMARK  status: ('A' for Active; 'I' for Inactive)
REMARK    1  A    between atoms: C_3  and  C_4
REMARK    2  A    between atoms: C_4  and  O_5
REMARK    3  A    between atoms: C_4  and  C_6
REMARK    4  A    between atoms: N_19  and  C_20
REMARK    5  A    between atoms: C_20  and  C_21
REMARK    6  A    between atoms: C_22  and  C_23
REMARK                            x       y       z     vdW  Elec       q    Type
REMARK                         _______ _______ _______ _____ _____    ______ ____
ROOT
ATOM      1  O   UNL     1       1.421   4.770  17.772  0.00  0.00    +0.000 OA
ATOM      2  C   UNL     1       1.843   4.434  18.878  0.00  0.00    +0.000 C 
ATOM      3  C   UNL     1       1.898   2.958  19.264  0.00  0.00    +0.000 C 
ATOM      4  C   UNL     1       1.401   2.770  20.706  0.00  0.00    +0.000 C 
ATOM      5  C   UNL     1       2.161   3.671  21.668  0.00  0.00    +0.000 C 
ATOM      6  C   UNL     1       2.039   5.119  21.223  0.00  0.00    +0.000 C 
ATOM      7  N   UNL     1       2.344   5.341  19.812  0.00  0.00    +0.000 N 
ENDROOT
BRANCH   3   8
ATOM      8  C   UNL     1       3.308   2.360  19.049  0.00  0.00    +0.000 C 
BRANCH   8   9
ATOM      9  C   UNL     1       4.353   3.208  18.345  0.00  0.00    +0.000 A 
ATOM     10  C   UNL     1       5.320   3.958  19.030  0.00  0.00    +0.000 A 
ATOM     11  C   UNL     1       6.294   4.680  18.330  0.00  0.00    +0.000 A 
ATOM     12  C   UNL     1       6.310   4.670  16.939  0.00  0.00    +0.000 A 
ATOM     13  C   UNL     1       5.345   3.942  16.241  0.00  0.00    +0.000 A 
ATOM     14  C   UNL     1       4.355   3.247  16.938  0.00  0.00    +0.000 A 
ATOM     15  O   UNL     1       5.322   3.851  14.872  0.00  0.00    +0.000 OA
ATOM     16  C   UNL     1       6.600   4.193  14.325  0.00  0.00    +0.000 C 
ATOM     17  C   UNL     1       7.092   5.504  14.917  0.00  0.00    +0.000 C 
ATOM     18  O   UNL     1       7.311   5.380  16.328  0.00  0.00    +0.000 OA
ENDBRANCH   8   9
BRANCH   8  19
ATOM     19  O   UNL     1       3.187   1.144  18.300  0.00  0.00    +0.000 OA
ATOM     20  H   UNL     1       3.804   1.207  17.550  0.00  0.00    +0.000 HD
ENDBRANCH   8  19
ENDBRANCH   3   8
BRANCH   7  21
ATOM     21  C   UNL     1       2.452   6.743  19.405  0.00  0.00    +0.000 C 
BRANCH  21  22
ATOM     22  C   UNL     1       1.551   7.631  20.216  0.00  0.00    +0.000 C 
ATOM     23  C   UNL     1       1.513   8.974  20.199  0.00  0.00    +0.000 C 
BRANCH  23  24
ATOM     24  C   UNL     1       0.632   9.714  21.108  0.00  0.00    +0.000 A 
ATOM     25  C   UNL     1       0.381   9.196  22.384  0.00  0.00    +0.000 A 
ATOM     26  C   UNL     1      -0.479   9.859  23.262  0.00  0.00    +0.000 A 
ATOM     27  C   UNL     1      -1.094  11.047  22.867  0.00  0.00    +0.000 A 
ATOM     28  C   UNL     1      -0.850  11.567  21.599  0.00  0.00    +0.000 A 
ATOM     29  C   UNL     1       0.010  10.907  20.715  0.00  0.00    +0.000 A 
ENDBRANCH  23  24
ENDBRANCH  21  22
ENDBRANCH   7  21
TORSDOF 6
ENDMDL
MODEL 2
REMARK VINA RESULT:      -8.6      1.245      1.662
REMARK  Name = 
REMARK  6 active torsions:
REMARK  status: ('A' for Active; 'I' for Inactive)
REMARK    1  A    between atoms: C_3  and  C_4
REMARK    2  A    between atoms: C_4  and  O_5
REMARK    3  A    between atoms: C_4  and  C_6
REMARK    4  A    between atoms: N_19  and  C_20
REMARK    5  A    between atoms: C_20  and  C_21
REMARK    6  A    between atoms: C_22  and  C_23
REMARK                            x       y       z     vdW  Elec       q    Type
REMARK                         _______ _______ _______ _____ _____    ______ ____
ROOT
ATOM      1  O   UNL     1       1.087   4.445  17.195  0.00  0.00    +0.000 OA
ATOM      2  C   UNL     1       1.628   4.521  18.298  0.00  0.00    +0.000 C 
ATOM      3  C   UNL     1       1.717   3.290  19.196  0.00  0.00    +0.000 C 
ATOM      4  C   UNL     1       1.384   3.670  20.647  0.00  0.00    +0.000 C 
ATOM      5  C   UNL     1       2.252   4.825  21.123  0.00  0.00    +0.000 C 
ATOM      6  C   UNL     1       2.090   6.011  20.188  0.00  0.00    +0.000 C 
ATOM      7  N   UNL     1       2.236   5.684  18.772  0.00  0.00    +0.000 N 
ENDROOT
BRANCH   3   8
ATOM      8  C   UNL     1       3.090   2.590  19.076  0.00  0.00    +0.000 C 
BRANCH   8   9
ATOM      9  C   UNL     1       4.215   3.320  18.363  0.00  0.00    +0.000 A 
ATOM     10  C   UNL     1       5.256   3.971  19.039  0.00  0.00    +0.000 A 
ATOM     11  C   UNL     1       6.298   4.584  18.332  0.00  0.00    +0.000 A 
ATOM     12  C   UNL     1       6.307   4.563  16.940  0.00  0.00    +0.000 A 
ATOM     13  C   UNL     1       5.269   3.933  16.251  0.00  0.00    +0.000 A 
ATOM     14  C   UNL     1       4.215   3.349  16.955  0.00  0.00    +0.000 A 
ATOM     15  O   UNL     1       5.232   3.836  14.882  0.00  0.00    +0.000 OA
ATOM     16  C   UNL     1       6.537   4.041  14.329  0.00  0.00    +0.000 C 
ATOM     17  C   UNL     1       7.164   5.297  14.910  0.00  0.00    +0.000 C 
ATOM     18  O   UNL     1       7.373   5.161  16.321  0.00  0.00    +0.000 OA
ENDBRANCH   8   9
BRANCH   8  19
ATOM     19  O   UNL     1       2.915   1.338  18.400  0.00  0.00    +0.000 OA
ATOM     20  H   UNL     1       1.983   1.079  18.512  0.00  0.00    +0.000 HD
ENDBRANCH   8  19
ENDBRANCH   3   8
BRANCH   7  21
ATOM     21  C   UNL     1       2.306   6.831  17.865  0.00  0.00    +0.000 C 
BRANCH  21  22
ATOM     22  C   UNL     1       1.913   8.109  18.550  0.00  0.00    +0.000 C 
ATOM     23  C   UNL     1       1.533   9.256  17.962  0.00  0.00    +0.000 C 
BRANCH  23  24
ATOM     24  C   UNL     1       1.254  10.454  18.758  0.00  0.00    +0.000 A 
ATOM     25  C   UNL     1       0.287  10.390  19.768  0.00  0.00    +0.000 A 
ATOM     26  C   UNL     1      -0.027  11.521  20.524  0.00  0.00    +0.000 A 
ATOM     27  C   UNL     1       0.626  12.728  20.272  0.00  0.00    +0.000 A 
ATOM     28  C   UNL     1       1.589  12.800  19.268  0.00  0.00    +0.000 A 
ATOM     29  C   UNL     1       1.906  11.669  18.508  0.00  0.00    +0.000 A 
ENDBRANCH  23  24
ENDBRANCH  21  22
ENDBRANCH   7  21
TORSDOF 6
ENDMDL
MODEL 3
REMARK VINA RESULT:      -8.5      1.533      1.845
REMARK  Name = 
REMARK  6 active torsions:
REMARK  status: ('A' for Active; 'I' for Inactive)
REMARK    1  A    between atoms: C_3  and  C_4
REMARK    2  A    between atoms: C_4  and  O_5
REMARK    3  A    between atoms: C_4  and  C_6
REMARK    4  A    between atoms: N_19  and  C_20
REMARK    5  A    between atoms: C_20  and  C_21
REMARK    6  A    between atoms: C_22  and  C_23
REMARK                            x       y       z     vdW  Elec       q    Type
REMARK                         _______ _______ _______ _____ _____    ______ ____
ROOT
ATOM      1  O   UNL     1       1.140   4.605  17.164  0.00  0.00    +0.000 OA
ATOM      2  C   UNL     1       1.662   4.629  18.278  0.00  0.00    +0.000 C 
ATOM      3  C   UNL     1       1.700   3.367  19.136  0.00  0.00    +0.000 C 
ATOM      4  C   UNL     1       1.351   3.706  20.592  0.00  0.00    +0.000 C 
ATOM      5  C   UNL     1       2.241   4.820  21.123  0.00  0.00    +0.000 C 
ATOM      6  C   UNL     1       2.129   6.041  20.226  0.00  0.00    +0.000 C 
ATOM      7  N   UNL     1       2.293   5.757  18.802  0.00  0.00    +0.000 N 
ENDROOT
BRANCH   3   8
ATOM      8  C   UNL     1       3.055   2.632  19.016  0.00  0.00    +0.000 C 
BRANCH   8   9
ATOM      9  C   UNL     1       4.202   3.338  18.313  0.00  0.00    +0.000 A 
ATOM     10  C   UNL     1       5.256   3.957  18.998  0.00  0.00    +0.000 A 
ATOM     11  C   UNL     1       6.316   4.549  18.300  0.00  0.00    +0.000 A 
ATOM     12  C   UNL     1       6.331   4.537  16.908  0.00  0.00    +0.000 A 
ATOM     13  C   UNL     1       5.281   3.939  16.210  0.00  0.00    +0.000 A 
ATOM     14  C   UNL     1       4.209   3.377  16.906  0.00  0.00    +0.000 A 
ATOM     15  O   UNL     1       5.247   3.853  14.840  0.00  0.00    +0.000 OA
ATOM     16  C   UNL     1       6.559   4.028  14.295  0.00  0.00    +0.000 C 
ATOM     17  C   UNL     1       7.215   5.264  14.888  0.00  0.00    +0.000 C 
ATOM     18  O   UNL     1       7.415   5.113  16.299  0.00  0.00    +0.000 OA
ENDBRANCH   8   9
BRANCH   8  19
ATOM     19  O   UNL     1       2.851   1.389  18.330  0.00  0.00    +0.000 OA
ATOM     20  H   UNL     1       3.157   1.514  17.415  0.00  0.00    +0.000 HD
ENDBRANCH   8  19
ENDBRANCH   3   8
BRANCH   7  21
ATOM     21  C   UNL     1       2.412   6.932  17.936  0.00  0.00    +0.000 C 
BRANCH  21  22
ATOM     22  C   UNL     1       1.388   7.979  18.272  0.00  0.00    +0.000 C 
ATOM     23  C   UNL     1       1.472   9.297  18.027  0.00  0.00    +0.000 C 
BRANCH  23  24
ATOM     24  C   UNL     1       0.427  10.217  18.485  0.00  0.00    +0.000 A 
ATOM     25  C   UNL     1      -0.854  10.124  17.928  0.00  0.00    +0.000 A 
ATOM     26  C   UNL     1      -1.863  11.006  18.319  0.00  0.00    +0.000 A 
ATOM     27  C   UNL     1      -1.597  11.989  19.272  0.00  0.00    +0.000 A 
ATOM     28  C   UNL     1      -0.325  12.088  19.830  0.00  0.00    +0.000 A 
ATOM     29  C   UNL     1       0.690  11.207  19.442  0.00  0.00    +0.000 A 
ENDBRANCH  23  24
ENDBRANCH  21  22
ENDBRANCH   7  21
TORSDOF 6
ENDMDL
MODEL 4
REMARK VINA RESULT:      -8.4      1.069      2.094
REMARK  Name = 
REMARK  6 active torsions:
REMARK  status: ('A' for Active; 'I' for Inactive)
REMARK    1  A    between atoms: C_3  and  C_4
REMARK    2  A    between atoms: C_4  and  O_5
REMARK    3  A    between atoms: C_4  and  C_6
REMARK    4  A    between atoms: N_19  and  C_20
REMARK    5  A    between atoms: C_20  and  C_21
REMARK    6  A    between atoms: C_22  and  C_23
REMARK                            x       y       z     vdW  Elec       q    Type
REMARK                         _______ _______ _______ _____ _____    ______ ____
ROOT
ATOM      1  O   UNL     1       1.275   5.340  17.591  0.00  0.00    +0.000 OA
ATOM      2  C   UNL     1       1.593   4.770  18.634  0.00  0.00    +0.000 C 
ATOM      3  C   UNL     1       1.406   3.262  18.772  0.00  0.00    +0.000 C 
ATOM      4  C   UNL     1       0.825   2.925  20.154  0.00  0.00    +0.000 C 
ATOM      5  C   UNL     1       1.671   3.530  21.265  0.00  0.00    +0.000 C 
ATOM      6  C   UNL     1       1.789   5.031  21.063  0.00  0.00    +0.000 C 
ATOM      7  N   UNL     1       2.185   5.426  19.713  0.00  0.00    +0.000 N 
ENDROOT
BRANCH   3   8
ATOM      8  C   UNL     1       2.717   2.492  18.486  0.00  0.00    +0.000 C 
BRANCH   8   9
ATOM      9  C   UNL     1       3.948   3.285  18.085  0.00  0.00    +0.000 A 
ATOM     10  C   UNL     1       4.234   3.640  16.760  0.00  0.00    +0.000 A 
ATOM     11  C   UNL     1       5.357   4.418  16.451  0.00  0.00    +0.000 A 
ATOM     12  C   UNL     1       6.213   4.843  17.462  0.00  0.00    +0.000 A 
ATOM     13  C   UNL     1       5.953   4.485  18.786  0.00  0.00    +0.000 A 
ATOM     14  C   UNL     1       4.851   3.684  19.090  0.00  0.00    +0.000 A 
ATOM     15  O   UNL     1       6.729   4.901  19.840  0.00  0.00    +0.000 OA
ATOM     16  C   UNL     1       7.504   6.047  19.469  0.00  0.00    +0.000 C 
ATOM     17  C   UNL     1       8.216   5.798  18.150  0.00  0.00    +0.000 C 
ATOM     18  O   UNL     1       7.275   5.623  17.084  0.00  0.00    +0.000 OA
ENDBRANCH   8   9
BRANCH   8  19
ATOM     19  O   UNL     1       2.478   1.541  17.440  0.00  0.00    +0.000 OA
ATOM     20  H   UNL     1       2.938   1.866  16.647  0.00  0.00    +0.000 HD
ENDBRANCH   8  19
ENDBRANCH   3   8
BRANCH   7  21
ATOM     21  C   UNL     1       2.522   6.841  19.545  0.00  0.00    +0.000 C 
BRANCH  21  22
ATOM     22  C   UNL     1       1.663   7.725  20.404  0.00  0.00    +0.000 C 
ATOM     23  C   UNL     1       1.127   8.908  20.062  0.00  0.00    +0.000 C 
BRANCH  23  24
ATOM     24  C   UNL     1       0.372   9.703  21.035  0.00  0.00    +0.000 A 
ATOM     25  C   UNL     1       0.010  11.014  20.707  0.00  0.00    +0.000 A 
ATOM     26  C   UNL     1      -0.681  11.810  21.624  0.00  0.00    +0.000 A 
ATOM     27  C   UNL     1      -1.014  11.296  22.877  0.00  0.00    +0.000 A 
ATOM     28  C   UNL     1      -0.656   9.992  23.210  0.00  0.00    +0.000 A 
ATOM     29  C   UNL     1       0.037   9.192  22.296  0.00  0.00    +0.000 A 
ENDBRANCH  23  24
ENDBRANCH  21  22
ENDBRANCH   7  21
TORSDOF 6
ENDMDL
MODEL 5
REMARK VINA RESULT:      -8.4      0.842      1.634
REMARK  Name = 
REMARK  6 active torsions:
REMARK  status: ('A' for Active; 'I' for Inactive)
REMARK    1  A    between atoms: C_3  and  C_4
REMARK    2  A    between atoms: C_4  and  O_5
REMARK    3  A    between atoms: C_4  and  C_6
REMARK    4  A    between atoms: N_19  and  C_20
REMARK    5  A    between atoms: C_20  and  C_21
REMARK    6  A    between atoms: C_22  and  C_23
REMARK                            x       y       z     vdW  Elec       q    Type
REMARK                         _______ _______ _______ _____ _____    ______ ____
ROOT
ATOM      1  O   UNL     1       1.234   4.769  17.729  0.00  0.00    +0.000 OA
ATOM      2  C   UNL     1       1.728   4.450  18.809  0.00  0.00    +0.000 C 
ATOM      3  C   UNL     1       1.861   2.977  19.187  0.00  0.00    +0.000 C 
ATOM      4  C   UNL     1       1.451   2.767  20.652  0.00  0.00    +0.000 C 
ATOM      5  C   UNL     1       2.224   3.696  21.576  0.00  0.00    +0.000 C 
ATOM      6  C   UNL     1       2.021   5.138  21.143  0.00  0.00    +0.000 C 
ATOM      7  N   UNL     1       2.241   5.374  19.718  0.00  0.00    +0.000 N 
ENDROOT
BRANCH   3   8
ATOM      8  C   UNL     1       3.280   2.436  18.895  0.00  0.00    +0.000 C 
BRANCH   8   9
ATOM      9  C   UNL     1       4.237   3.307  18.100  0.00  0.00    +0.000 A 
ATOM     10  C   UNL     1       4.222   3.384  16.701  0.00  0.00    +0.000 A 
ATOM     11  C   UNL     1       5.092   4.245  16.020  0.00  0.00    +0.000 A 
ATOM     12  C   UNL     1       5.995   5.032  16.728  0.00  0.00    +0.000 A 
ATOM     13  C   UNL     1       6.035   4.955  18.121  0.00  0.00    +0.000 A 
ATOM     14  C   UNL     1       5.190   4.075  18.798  0.00  0.00    +0.000 A 
ATOM     15  O   UNL     1       6.869   5.730  18.889  0.00  0.00    +0.000 OA
ATOM     16  C   UNL     1       7.317   6.870  18.148  0.00  0.00    +0.000 C 
ATOM     17  C   UNL     1       7.840   6.442  16.787  0.00  0.00    +0.000 C 
ATOM     18  O   UNL     1       6.794   5.867  15.993  0.00  0.00    +0.000 OA
ENDBRANCH   8   9
BRANCH   8  19
ATOM     19  O   UNL     1       3.167   1.193  18.188  0.00  0.00    +0.000 OA
ATOM     20  H   UNL     1       3.375   1.375  17.255  0.00  0.00    +0.000 HD
ENDBRANCH   8  19
ENDBRANCH   3   8
BRANCH   7  21
ATOM     21  C   UNL     1       2.271   6.781  19.311  0.00  0.00    +0.000 C 
BRANCH  21  22
ATOM     22  C   UNL     1       1.423   7.639  20.206  0.00  0.00    +0.000 C 
ATOM     23  C   UNL     1       1.172   8.951  20.064  0.00  0.00    +0.000 C 
BRANCH  23  24
ATOM     24  C   UNL     1       0.387   9.681  21.064  0.00  0.00    +0.000 A 
ATOM     25  C   UNL     1       0.319   9.184  22.370  0.00  0.00    +0.000 A 
ATOM     26  C   UNL     1      -0.447   9.836  23.339  0.00  0.00    +0.000 A 
ATOM     27  C   UNL     1      -1.151  10.993  23.004  0.00  0.00    +0.000 A 
ATOM     28  C   UNL     1      -1.089  11.493  21.706  0.00  0.00    +0.000 A 
ATOM     29  C   UNL     1      -0.324  10.842  20.732  0.00  0.00    +0.000 A 
ENDBRANCH  23  24
ENDBRANCH  21  22
ENDBRANCH   7  21
TORSDOF 6
ENDMDL
MODEL 6
REMARK VINA RESULT:      -8.2      0.770      1.201
REMARK  Name = 
REMARK  6 active torsions:
REMARK  status: ('A' for Active; 'I' for Inactive)
REMARK    1  A    between atoms: C_3  and  C_4
REMARK    2  A    between atoms: C_4  and  O_5
REMARK    3  A    between atoms: C_4  and  C_6
REMARK    4  A    between atoms: N_19  and  C_20
REMARK    5  A    between atoms: C_20  and  C_21
REMARK    6  A    between atoms: C_22  and  C_23
REMARK                            x       y       z     vdW  Elec       q    Type
REMARK                         _______ _______ _______ _____ _____    ______ ____
ROOT
ATOM      1  O   UNL     1       2.012   5.808  17.424  0.00  0.00    +0.000 OA
ATOM      2  C   UNL     1       2.073   5.272  18.530  0.00  0.00    +0.000 C 
ATOM      3  C   UNL     1       2.025   3.751  18.649  0.00  0.00    +0.000 C 
ATOM      4  C   UNL     1       1.108   3.340  19.811  0.00  0.00    +0.000 C 
ATOM      5  C   UNL     1       1.518   4.032  21.103  0.00  0.00    +0.000 C 
ATOM      6  C   UNL     1       1.520   5.538  20.902  0.00  0.00    +0.000 C 
ATOM      7  N   UNL     1       2.246   5.984  19.716  0.00  0.00    +0.000 N 
ENDROOT
BRANCH   3   8
ATOM      8  C   UNL     1       3.440   3.140  18.779  0.00  0.00    +0.000 C 
BRANCH   8   9
ATOM      9  C   UNL     1       4.554   3.707  17.916  0.00  0.00    +0.000 A 
ATOM     10  C   UNL     1       5.734   4.247  18.445  0.00  0.00    +0.000 A 
ATOM     11  C   UNL     1       6.753   4.708  17.602  0.00  0.00    +0.000 A 
ATOM     12  C   UNL     1       6.602   4.643  16.220  0.00  0.00    +0.000 A 
ATOM     13  C   UNL     1       5.426   4.122  15.676  0.00  0.00    +0.000 A 
ATOM     14  C   UNL     1       4.398   3.692  16.517  0.00  0.00    +0.000 A 
ATOM     15  O   UNL     1       5.223   3.988  14.325  0.00  0.00    +0.000 OA
ATOM     16  C   UNL     1       6.471   4.016  13.625  0.00  0.00    +0.000 C 
ATOM     17  C   UNL     1       7.303   5.205  14.078  0.00  0.00    +0.000 C 
ATOM     18  O   UNL     1       7.654   5.088  15.463  0.00  0.00    +0.000 OA
ENDBRANCH   8   9
BRANCH   8  19
ATOM     19  O   UNL     1       3.368   1.737  18.495  0.00  0.00    +0.000 OA
ATOM     20  H   UNL     1       4.193   1.336  18.819  0.00  0.00    +0.000 HD
ENDBRANCH   8  19
ENDBRANCH   3   8
BRANCH   7  21
ATOM     21  C   UNL     1       2.456   7.430  19.614  0.00  0.00    +0.000 C 
BRANCH  21  22
ATOM     22  C   UNL     1       1.401   8.201  20.357  0.00  0.00    +0.000 C 
ATOM     23  C   UNL     1       1.361   9.529  20.553  0.00  0.00    +0.000 C 
BRANCH  23  24
ATOM     24  C   UNL     1       0.308  10.138  21.370  0.00  0.00    +0.000 A 
ATOM     25  C   UNL     1      -0.418  11.217  20.852  0.00  0.00    +0.000 A 
ATOM     26  C   UNL     1      -1.406  11.841  21.617  0.00  0.00    +0.000 A 
ATOM     27  C   UNL     1      -1.674  11.388  22.908  0.00  0.00    +0.000 A 
ATOM     28  C   UNL     1      -0.956  10.316  23.431  0.00  0.00    +0.000 A 
ATOM     29  C   UNL     1       0.036   9.688  22.669  0.00  0.00    +0.000 A 
ENDBRANCH  23  24
ENDBRANCH  21  22
ENDBRANCH   7  21
TORSDOF 6
ENDMDL
MODEL 7
REMARK VINA RESULT:      -8.1      1.723      2.204
REMARK  Name = 
REMARK  6 active torsions:
REMARK  status: ('A' for Active; 'I' for Inactive)
REMARK    1  A    between atoms: C_3  and  C_4
REMARK    2  A    between atoms: C_4  and  O_5
REMARK    3  A    between atoms: C_4  and  C_6
REMARK    4  A    between atoms: N_19  and  C_20
REMARK    5  A    between atoms: C_20  and  C_21
REMARK    6  A    between atoms: C_22  and  C_23
REMARK                            x       y       z     vdW  Elec       q    Type
REMARK                         _______ _______ _______ _____ _____    ______ ____
ROOT
ATOM      1  O   UNL     1       2.308   6.551  17.498  0.00  0.00    +0.000 OA
ATOM      2  C   UNL     1       2.271   5.859  18.514  0.00  0.00    +0.000 C 
ATOM      3  C   UNL     1       2.277   4.336  18.407  0.00  0.00    +0.000 C 
ATOM      4  C   UNL     1       1.256   3.733  19.383  0.00  0.00    +0.000 C 
ATOM      5  C   UNL     1       1.490   4.237  20.800  0.00  0.00    +0.000 C 
ATOM      6  C   UNL     1       1.448   5.755  20.821  0.00  0.00    +0.000 C 
ATOM      7  N   UNL     1       2.280   6.393  19.803  0.00  0.00    +0.000 N 
ENDROOT
BRANCH   3   8
ATOM      8  C   UNL     1       3.695   3.753  18.610  0.00  0.00    +0.000 C 
BRANCH   8   9
ATOM      9  C   UNL     1       4.792   4.162  17.643  0.00  0.00    +0.000 A 
ATOM     10  C   UNL     1       6.028   4.674  18.059  0.00  0.00    +0.000 A 
ATOM     11  C   UNL     1       7.025   4.987  17.126  0.00  0.00    +0.000 A 
ATOM     12  C   UNL     1       6.795   4.801  15.766  0.00  0.00    +0.000 A 
ATOM     13  C   UNL     1       5.563   4.308  15.334  0.00  0.00    +0.000 A 
ATOM     14  C   UNL     1       4.559   4.026  16.261  0.00  0.00    +0.000 A 
ATOM     15  O   UNL     1       5.279   4.059  14.014  0.00  0.00    +0.000 OA
ATOM     16  C   UNL     1       6.487   3.942  13.255  0.00  0.00    +0.000 C 
ATOM     17  C   UNL     1       7.410   5.112  13.548  0.00  0.00    +0.000 C 
ATOM     18  O   UNL     1       7.829   5.105  14.919  0.00  0.00    +0.000 OA
ENDBRANCH   8   9
BRANCH   8  19
ATOM     19  O   UNL     1       3.618   2.321  18.568  0.00  0.00    +0.000 OA
ATOM     20  H   UNL     1       2.842   2.060  19.094  0.00  0.00    +0.000 HD
ENDBRANCH   8  19
ENDBRANCH   3   8
BRANCH   7  21
ATOM     21  C   UNL     1       2.436   7.843  19.935  0.00  0.00    +0.000 C 
BRANCH  21  22
ATOM     22  C   UNL     1       1.154   8.571  19.643  0.00  0.00    +0.000 C 
ATOM     23  C   UNL     1       0.970   9.550  18.743  0.00  0.00    +0.000 C 
BRANCH  23  24
ATOM     24  C   UNL     1      -0.324  10.228  18.621  0.00  0.00    +0.000 A 
ATOM     25  C   UNL     1      -0.686  11.181  19.579  0.00  0.00    +0.000 A 
ATOM     26  C   UNL     1      -1.925  11.821  19.511  0.00  0.00    +0.000 A 
ATOM     27  C   UNL     1      -2.812  11.510  18.480  0.00  0.00    +0.000 A 
ATOM     28  C   UNL     1      -2.459  10.562  17.523  0.00  0.00    +0.000 A 
ATOM     29  C   UNL     1      -1.219   9.918  17.588  0.00  0.00    +0.000 A 
ENDBRANCH  23  24
ENDBRANCH  21  22
ENDBRANCH   7  21
TORSDOF 6
ENDMDL
MODEL 8
REMARK VINA RESULT:      -8.0      1.750      3.019
REMARK  Name = 
REMARK  6 active torsions:
REMARK  status: ('A' for Active; 'I' for Inactive)
REMARK    1  A    between atoms: C_3  and  C_4
REMARK    2  A    between atoms: C_4  and  O_5
REMARK    3  A    between atoms: C_4  and  C_6
REMARK    4  A    between atoms: N_19  and  C_20
REMARK    5  A    between atoms: C_20  and  C_21
REMARK    6  A    between atoms: C_22  and  C_23
REMARK                            x       y       z     vdW  Elec       q    Type
REMARK                         _______ _______ _______ _____ _____    ______ ____
ROOT
ATOM      1  O   UNL     1       0.484   2.772  19.605  0.00  0.00    +0.000 OA
ATOM      2  C   UNL     1       1.693   2.831  19.382  0.00  0.00    +0.000 C 
ATOM      3  C   UNL     1       2.280   2.149  18.149  0.00  0.00    +0.000 C 
ATOM      4  C   UNL     1       3.581   1.420  18.517  0.00  0.00    +0.000 C 
ATOM      5  C   UNL     1       4.559   2.360  19.208  0.00  0.00    +0.000 C 
ATOM      6  C   UNL     1       3.903   2.978  20.431  0.00  0.00    +0.000 C 
ATOM      7  N   UNL     1       2.583   3.550  20.179  0.00  0.00    +0.000 N 
ENDROOT
BRANCH   3   8
ATOM      8  C   UNL     1       2.479   3.145  16.983  0.00  0.00    +0.000 C 
BRANCH   8   9
ATOM      9  C   UNL     1       3.826   3.832  16.840  0.00  0.00    +0.000 A 
ATOM     10  C   UNL     1       4.884   3.297  16.091  0.00  0.00    +0.000 A 
ATOM     11  C   UNL     1       6.088   3.998  15.949  0.00  0.00    +0.000 A 
ATOM     12  C   UNL     1       6.253   5.237  16.560  0.00  0.00    +0.000 A 
ATOM     13  C   UNL     1       5.216   5.777  17.322  0.00  0.00    +0.000 A 
ATOM     14  C   UNL     1       4.028   5.064  17.490  0.00  0.00    +0.000 A 
ATOM     15  O   UNL     1       5.291   7.011  17.919  0.00  0.00    +0.000 OA
ATOM     16  C   UNL     1       6.316   7.802  17.308  0.00  0.00    +0.000 C 
ATOM     17  C   UNL     1       7.608   7.008  17.211  0.00  0.00    +0.000 C 
ATOM     18  O   UNL     1       7.450   5.873  16.351  0.00  0.00    +0.000 OA
ENDBRANCH   8   9
BRANCH   8  19
ATOM     19  O   UNL     1       1.494   4.182  17.085  0.00  0.00    +0.000 OA
ATOM     20  H   UNL     1       1.008   4.034  17.915  0.00  0.00    +0.000 HD
ENDBRANCH   8  19
ENDBRANCH   3   8
BRANCH   7  21
ATOM     21  C   UNL     1       2.023   4.344  21.275  0.00  0.00    +0.000 C 
BRANCH  21  22
ATOM     22  C   UNL     1       1.623   5.719  20.821  0.00  0.00    +0.000 C 
ATOM     23  C   UNL     1       2.299   6.519  19.978  0.00  0.00    +0.000 C 
BRANCH  23  24
ATOM     24  C   UNL     1       1.826   7.875  19.685  0.00  0.00    +0.000 A 
ATOM     25  C   UNL     1       2.053   8.415  18.414  0.00  0.00    +0.000 A 
ATOM     26  C   UNL     1       1.645   9.716  18.112  0.00  0.00    +0.000 A 
ATOM     27  C   UNL     1       1.006  10.486  19.084  0.00  0.00    +0.000 A 
ATOM     28  C   UNL     1       0.778   9.956  20.351  0.00  0.00    +0.000 A 
ATOM     29  C   UNL     1       1.186   8.654  20.659  0.00  0.00    +0.000 A 
ENDBRANCH  23  24
ENDBRANCH  21  22
ENDBRANCH   7  21
TORSDOF 6
ENDMDL
MODEL 9
REMARK VINA RESULT:      -8.0      1.493      2.507
REMARK  Name = 
REMARK  6 active torsions:
REMARK  status: ('A' for Active; 'I' for Inactive)
REMARK    1  A    between atoms: C_3  and  C_4
REMARK    2  A    between atoms: C_4  and  O_5
REMARK    3  A    between atoms: C_4  and  C_6
REMARK    4  A    between atoms: N_19  and  C_20
REMARK    5  A    between atoms: C_20  and  C_21
REMARK    6  A    between atoms: C_22  and  C_23
REMARK                            x       y       z     vdW  Elec       q    Type
REMARK                         _______ _______ _______ _____ _____    ______ ____
ROOT
ATOM      1  O   UNL     1       0.990   4.621  17.141  0.00  0.00    +0.000 OA
ATOM      2  C   UNL     1       1.480   4.570  18.269  0.00  0.00    +0.000 C 
ATOM      3  C   UNL     1       1.413   3.278  19.078  0.00  0.00    +0.000 C 
ATOM      4  C   UNL     1       1.044   3.587  20.537  0.00  0.00    +0.000 C 
ATOM      5  C   UNL     1       1.988   4.621  21.133  0.00  0.00    +0.000 C 
ATOM      6  C   UNL     1       1.980   5.878  20.280  0.00  0.00    +0.000 C 
ATOM      7  N   UNL     1       2.166   5.636  18.852  0.00  0.00    +0.000 N 
ENDROOT
BRANCH   3   8
ATOM      8  C   UNL     1       2.722   2.462  18.967  0.00  0.00    +0.000 C 
BRANCH   8   9
ATOM      9  C   UNL     1       3.959   3.150  18.417  0.00  0.00    +0.000 A 
ATOM     10  C   UNL     1       4.238   3.246  17.047  0.00  0.00    +0.000 A 
ATOM     11  C   UNL     1       5.367   3.938  16.591  0.00  0.00    +0.000 A 
ATOM     12  C   UNL     1       6.236   4.535  17.499  0.00  0.00    +0.000 A 
ATOM     13  C   UNL     1       5.982   4.435  18.868  0.00  0.00    +0.000 A 
ATOM     14  C   UNL     1       4.874   3.719  19.323  0.00  0.00    +0.000 A 
ATOM     15  O   UNL     1       6.771   5.032  19.820  0.00  0.00    +0.000 OA
ATOM     16  C   UNL     1       7.556   6.078  19.237  0.00  0.00    +0.000 C 
ATOM     17  C   UNL     1       8.254   5.577  17.984  0.00  0.00    +0.000 C 
ATOM     18  O   UNL     1       7.303   5.217  16.975  0.00  0.00    +0.000 OA
ENDBRANCH   8   9
BRANCH   8  19
ATOM     19  O   UNL     1       2.484   1.314  18.141  0.00  0.00    +0.000 OA
ATOM     20  H   UNL     1       2.697   0.529  18.674  0.00  0.00    +0.000 HD
ENDBRANCH   8  19
ENDBRANCH   3   8
BRANCH   7  21
ATOM     21  C   UNL     1       2.384   6.831  18.034  0.00  0.00    +0.000 C 
BRANCH  21  22
ATOM     22  C   UNL     1       1.960   8.082  18.749  0.00  0.00    +0.000 C 
ATOM     23  C   UNL     1       1.533   9.226  18.190  0.00  0.00    +0.000 C 
BRANCH  23  24
ATOM     24  C   UNL     1       1.226  10.399  19.014  0.00  0.00    +0.000 A 
ATOM     25  C   UNL     1       1.659  11.660  18.590  0.00  0.00    +0.000 A 
ATOM     26  C   UNL     1       1.413  12.794  19.367  0.00  0.00    +0.000 A 
ATOM     27  C   UNL     1       0.729  12.671  20.577  0.00  0.00    +0.000 A 
ATOM     28  C   UNL     1       0.295  11.419  21.005  0.00  0.00    +0.000 A 
ATOM     29  C   UNL     1       0.541  10.280  20.231  0.00  0.00    +0.000 A 
ENDBRANCH  23  24
ENDBRANCH  21  22
ENDBRANCH   7  21
TORSDOF 6
ENDMDL
