MODEL 1
REMARK VINA RESULT:      -8.0      0.000      0.000
REMARK  Name = 
REMARK  3 active torsions:
REMARK  status: ('A' for Active; 'I' for Inactive)
REMARK    1  A    between atoms: C_2  and  C_3
REMARK    2  A    between atoms: C_3  and  N_4
REMARK    3  A    between atoms: N_20  and  C_21
REMARK                            x       y       z     vdW  Elec       q    Type
REMARK                         _______ _______ _______ _____ _____    ______ ____
ROOT
ATOM      1  O   UNL     1       1.175   5.039  20.664  0.00  0.00    +0.000 OA
ATOM      2  C   UNL     1       1.772   5.674  19.789  0.00  0.00    +0.000 C 
ATOM      3  N   UNL     1       2.065   7.021  19.947  0.00  0.00    +0.000 N 
ATOM      4  C   UNL     1       1.842   7.631  21.270  0.00  0.00    +0.000 C 
ATOM      5  C   UNL     1       0.569   8.492  21.289  0.00  0.00    +0.000 C 
ATOM      6  C   UNL     1       0.598   9.390  20.102  0.00  0.00    +0.000 A 
ATOM      7  C   UNL     1       1.394   9.154  18.994  0.00  0.00    +0.000 A 
ATOM      8  N   UNL     1       1.319  10.207  18.123  0.00  0.00    +0.000 NA
ATOM      9  C   UNL     1       0.488  11.062  18.693  0.00  0.00    +0.000 A 
ATOM     10  N   UNL     1       0.013  10.626  19.917  0.00  0.00    +0.000 N 
ATOM     11  C   UNL     1       2.301   7.971  18.827  0.00  0.00    +0.000 C 
ENDROOT
BRANCH  10  12
ATOM     12  C   UNL     1      -0.832  11.344  20.810  0.00  0.00    +0.000 A 
ATOM     13  C   UNL     1      -1.923  12.082  20.326  0.00  0.00    +0.000 A 
ATOM     14  C   UNL     1      -2.828  12.675  21.205  0.00  0.00    +0.000 A 
ATOM     15  C   UNL     1      -2.638  12.563  22.578  0.00  0.00    +0.000 A 
ATOM     16  C   UNL     1      -1.526  11.882  23.072  0.00  0.00    +0.000 A 
ATOM     17  C   UNL     1      -0.616  11.281  22.194  0.00  0.00    +0.000 A 
ENDBRANCH  10  12
BRANCH   2  18
ATOM     18  C   UNL     1       2.310   4.952  18.578  0.00  0.00    +0.000 C 
BRANCH  18  19
ATOM     19  N   UNL     1       3.733   4.726  18.629  0.00  0.00    +0.000 N 
ATOM     20  N   UNL     1       4.217   3.832  19.521  0.00  0.00    +0.000 NA
ATOM     21  N   UNL     1       5.526   3.720  19.327  0.00  0.00    +0.000 NA
ATOM     22  C   UNL     1       5.855   4.532  18.289  0.00  0.00    +0.000 A 
ATOM     23  C   UNL     1       4.732   5.165  17.809  0.00  0.00    +0.000 A 
ATOM     24  C   UNL     1       4.692   6.128  16.683  0.00  0.00    +0.000 C 
ATOM     25  C   UNL     1       6.034   6.072  15.911  0.00  0.00    +0.000 C 
ATOM     26  C   UNL     1       7.262   5.960  16.843  0.00  0.00    +0.000 C 
ATOM     27  C   UNL     1       7.211   4.695  17.725  0.00  0.00    +0.000 C 
ENDBRANCH  18  19
ENDBRANCH   2  18
TORSDOF 3
ENDMDL
MODEL 2
REMARK VINA RESULT:      -7.9      0.758      1.199
REMARK  Name = 
REMARK  3 active torsions:
REMARK  status: ('A' for Active; 'I' for Inactive)
REMARK    1  A    between atoms: C_2  and  C_3
REMARK    2  A    between atoms: C_3  and  N_4
REMARK    3  A    between atoms: N_20  and  C_21
REMARK                            x       y       z     vdW  Elec       q    Type
REMARK                         _______ _______ _______ _____ _____    ______ ____
ROOT
ATOM      1  O   UNL     1       1.401   5.038  20.603  0.00  0.00    +0.000 OA
ATOM      2  C   UNL     1       1.981   5.716  19.749  0.00  0.00    +0.000 C 
ATOM      3  N   UNL     1       2.193   7.076  19.927  0.00  0.00    +0.000 N 
ATOM      4  C   UNL     1       1.902   7.658  21.248  0.00  0.00    +0.000 C 
ATOM      5  C   UNL     1       0.581   8.444  21.243  0.00  0.00    +0.000 C 
ATOM      6  C   UNL     1       0.587   9.354  20.065  0.00  0.00    +0.000 A 
ATOM      7  C   UNL     1       1.423   9.176  18.975  0.00  0.00    +0.000 A 
ATOM      8  N   UNL     1       1.309  10.231  18.112  0.00  0.00    +0.000 NA
ATOM      9  C   UNL     1       0.416  11.031  18.668  0.00  0.00    +0.000 A 
ATOM     10  N   UNL     1      -0.064  10.556  19.875  0.00  0.00    +0.000 N 
ATOM     11  C   UNL     1       2.401   8.049  18.821  0.00  0.00    +0.000 C 
ENDROOT
BRANCH  10  12
ATOM     12  C   UNL     1      -0.970  11.215  20.753  0.00  0.00    +0.000 A 
ATOM     13  C   UNL     1      -0.797  11.147  22.144  0.00  0.00    +0.000 A 
ATOM     14  C   UNL     1      -1.601  11.899  22.999  0.00  0.00    +0.000 A 
ATOM     15  C   UNL     1      -2.606  12.706  22.478  0.00  0.00    +0.000 A 
ATOM     16  C   UNL     1      -2.826  12.738  21.101  0.00  0.00    +0.000 A 
ATOM     17  C   UNL     1      -2.020  11.988  20.237  0.00  0.00    +0.000 A 
ENDBRANCH  10  12
BRANCH   2  18
ATOM     18  C   UNL     1       2.591   5.038  18.546  0.00  0.00    +0.000 C 
BRANCH  18  19
ATOM     19  N   UNL     1       4.032   5.032  18.558  0.00  0.00    +0.000 N 
ATOM     20  N   UNL     1       4.672   5.195  19.738  0.00  0.00    +0.000 NA
ATOM     21  N   UNL     1       5.976   5.063  19.524  0.00  0.00    +0.000 NA
ATOM     22  C   UNL     1       6.147   4.792  18.204  0.00  0.00    +0.000 A 
ATOM     23  C   UNL     1       4.927   4.741  17.570  0.00  0.00    +0.000 A 
ATOM     24  C   UNL     1       4.708   4.471  16.129  0.00  0.00    +0.000 C 
ATOM     25  C   UNL     1       6.018   3.929  15.503  0.00  0.00    +0.000 C 
ATOM     26  C   UNL     1       7.279   4.664  16.010  0.00  0.00    +0.000 C 
ATOM     27  C   UNL     1       7.445   4.550  17.540  0.00  0.00    +0.000 C 
ENDBRANCH  18  19
ENDBRANCH   2  18
TORSDOF 3
ENDMDL
MODEL 3
REMARK VINA RESULT:      -7.9      0.451      1.033
REMARK  Name = 
REMARK  3 active torsions:
REMARK  status: ('A' for Active; 'I' for Inactive)
REMARK    1  A    between atoms: C_2  and  C_3
REMARK    2  A    between atoms: C_3  and  N_4
REMARK    3  A    between atoms: N_20  and  C_21
REMARK                            x       y       z     vdW  Elec       q    Type
REMARK                         _______ _______ _______ _____ _____    ______ ____
ROOT
ATOM      1  O   UNL     1       1.242   5.245  20.732  0.00  0.00    +0.000 OA
ATOM      2  C   UNL     1       1.802   5.917  19.861  0.00  0.00    +0.000 C 
ATOM      3  N   UNL     1       2.016   7.278  20.024  0.00  0.00    +0.000 N 
ATOM      4  C   UNL     1       1.754   7.869  21.348  0.00  0.00    +0.000 C 
ATOM      5  C   UNL     1       0.433   8.654  21.366  0.00  0.00    +0.000 C 
ATOM      6  C   UNL     1       0.413   9.557  20.182  0.00  0.00    +0.000 A 
ATOM      7  C   UNL     1       1.224   9.372  19.076  0.00  0.00    +0.000 A 
ATOM      8  N   UNL     1       1.090  10.421  18.208  0.00  0.00    +0.000 NA
ATOM      9  C   UNL     1       0.210  11.224  18.778  0.00  0.00    +0.000 A 
ATOM     10  N   UNL     1      -0.243  10.757  19.999  0.00  0.00    +0.000 N 
ATOM     11  C   UNL     1       2.199   8.244  18.908  0.00  0.00    +0.000 C 
ENDROOT
BRANCH  10  12
ATOM     12  C   UNL     1      -1.131  11.422  20.892  0.00  0.00    +0.000 A 
ATOM     13  C   UNL     1      -0.926  11.365  22.279  0.00  0.00    +0.000 A 
ATOM     14  C   UNL     1      -1.712  12.122  23.147  0.00  0.00    +0.000 A 
ATOM     15  C   UNL     1      -2.730  12.924  22.642  0.00  0.00    +0.000 A 
ATOM     16  C   UNL     1      -2.981  12.945  21.271  0.00  0.00    +0.000 A 
ATOM     17  C   UNL     1      -2.193  12.189  20.394  0.00  0.00    +0.000 A 
ENDBRANCH  10  12
BRANCH   2  18
ATOM     18  C   UNL     1       2.386   5.231  18.649  0.00  0.00    +0.000 C 
BRANCH  18  19
ATOM     19  N   UNL     1       3.795   4.957  18.767  0.00  0.00    +0.000 N 
ATOM     20  N   UNL     1       4.188   3.862  19.458  0.00  0.00    +0.000 NA
ATOM     21  N   UNL     1       5.508   3.759  19.356  0.00  0.00    +0.000 NA
ATOM     22  C   UNL     1       5.937   4.785  18.575  0.00  0.00    +0.000 A 
ATOM     23  C   UNL     1       4.869   5.547  18.166  0.00  0.00    +0.000 A 
ATOM     24  C   UNL     1       4.940   6.752  17.304  0.00  0.00    +0.000 C 
ATOM     25  C   UNL     1       6.347   6.840  16.660  0.00  0.00    +0.000 C 
ATOM     26  C   UNL     1       7.483   6.472  17.641  0.00  0.00    +0.000 C 
ATOM     27  C   UNL     1       7.341   5.036  18.186  0.00  0.00    +0.000 C 
ENDBRANCH  18  19
ENDBRANCH   2  18
TORSDOF 3
ENDMDL
MODEL 4
REMARK VINA RESULT:      -7.8      2.299      9.231
REMARK  Name = 
REMARK  3 active torsions:
REMARK  status: ('A' for Active; 'I' for Inactive)
REMARK    1  A    between atoms: C_2  and  C_3
REMARK    2  A    between atoms: C_3  and  N_4
REMARK    3  A    between atoms: N_20  and  C_21
REMARK                            x       y       z     vdW  Elec       q    Type
REMARK                         _______ _______ _______ _____ _____    ______ ____
ROOT
ATOM      1  O   UNL     1       0.107  10.462  23.070  0.00  0.00    +0.000 OA
ATOM      2  C   UNL     1      -0.045  10.812  21.895  0.00  0.00    +0.000 C 
ATOM      3  N   UNL     1      -0.094   9.884  20.865  0.00  0.00    +0.000 N 
ATOM      4  C   UNL     1      -0.175   8.456  21.218  0.00  0.00    +0.000 C 
ATOM      5  C   UNL     1       1.175   7.748  21.026  0.00  0.00    +0.000 C 
ATOM      6  C   UNL     1       1.700   8.105  19.679  0.00  0.00    +0.000 A 
ATOM      7  C   UNL     1       1.259   9.205  18.963  0.00  0.00    +0.000 A 
ATOM      8  N   UNL     1       1.813   9.209  17.712  0.00  0.00    +0.000 NA
ATOM      9  C   UNL     1       2.580   8.134  17.675  0.00  0.00    +0.000 A 
ATOM     10  N   UNL     1       2.552   7.405  18.850  0.00  0.00    +0.000 N 
ATOM     11  C   UNL     1       0.229  10.183  19.444  0.00  0.00    +0.000 C 
ENDROOT
BRANCH  10  12
ATOM     12  C   UNL     1       3.203   6.164  19.101  0.00  0.00    +0.000 A 
ATOM     13  C   UNL     1       2.457   5.000  19.345  0.00  0.00    +0.000 A 
ATOM     14  C   UNL     1       3.087   3.762  19.458  0.00  0.00    +0.000 A 
ATOM     15  C   UNL     1       4.471   3.673  19.356  0.00  0.00    +0.000 A 
ATOM     16  C   UNL     1       5.228   4.830  19.172  0.00  0.00    +0.000 A 
ATOM     17  C   UNL     1       4.602   6.076  19.055  0.00  0.00    +0.000 A 
ENDBRANCH  10  12
BRANCH   2  18
ATOM     18  C   UNL     1      -0.315  12.263  21.579  0.00  0.00    +0.000 C 
BRANCH  18  19
ATOM     19  N   UNL     1      -1.713  12.562  21.395  0.00  0.00    +0.000 N 
ATOM     20  N   UNL     1      -2.198  12.648  20.135  0.00  0.00    +0.000 NA
ATOM     21  N   UNL     1      -3.510  12.834  20.208  0.00  0.00    +0.000 NA
ATOM     22  C   UNL     1      -3.848  12.841  21.524  0.00  0.00    +0.000 A 
ATOM     23  C   UNL     1      -2.730  12.645  22.300  0.00  0.00    +0.000 A 
ATOM     24  C   UNL     1      -2.699  12.591  23.781  0.00  0.00    +0.000 C 
ATOM     25  C   UNL     1      -4.146  12.458  24.321  0.00  0.00    +0.000 C 
ATOM     26  C   UNL     1      -5.157  13.344  23.559  0.00  0.00    +0.000 C 
ATOM     27  C   UNL     1      -5.217  13.001  22.056  0.00  0.00    +0.000 C 
ENDBRANCH  18  19
ENDBRANCH   2  18
TORSDOF 3
ENDMDL
MODEL 5
REMARK VINA RESULT:      -7.6      2.365      9.303
REMARK  Name = 
REMARK  3 active torsions:
REMARK  status: ('A' for Active; 'I' for Inactive)
REMARK    1  A    between atoms: C_2  and  C_3
REMARK    2  A    between atoms: C_3  and  N_4
REMARK    3  A    between atoms: N_20  and  C_21
REMARK                            x       y       z     vdW  Elec       q    Type
REMARK                         _______ _______ _______ _____ _____    ______ ____
ROOT
ATOM      1  O   UNL     1      -0.104  10.449  23.340  0.00  0.00    +0.000 OA
ATOM      2  C   UNL     1      -0.285  10.874  22.195  0.00  0.00    +0.000 C 
ATOM      3  N   UNL     1      -0.339  10.016  21.106  0.00  0.00    +0.000 N 
ATOM      4  C   UNL     1      -0.391   8.567  21.364  0.00  0.00    +0.000 C 
ATOM      5  C   UNL     1       0.966   7.896  21.100  0.00  0.00    +0.000 C 
ATOM      6  C   UNL     1       1.458   8.351  19.770  0.00  0.00    +0.000 A 
ATOM      7  C   UNL     1       0.985   9.488  19.137  0.00  0.00    +0.000 A 
ATOM      8  N   UNL     1       1.514   9.585  17.879  0.00  0.00    +0.000 NA
ATOM      9  C   UNL     1       2.297   8.528  17.756  0.00  0.00    +0.000 A 
ATOM     10  N   UNL     1       2.304   7.722  18.880  0.00  0.00    +0.000 N 
ATOM     11  C   UNL     1      -0.050  10.415  19.702  0.00  0.00    +0.000 C 
ENDROOT
BRANCH  10  12
ATOM     12  C   UNL     1       2.980   6.478  19.035  0.00  0.00    +0.000 A 
ATOM     13  C   UNL     1       4.290   6.312  18.561  0.00  0.00    +0.000 A 
ATOM     14  C   UNL     1       5.001   5.143  18.828  0.00  0.00    +0.000 A 
ATOM     15  C   UNL     1       4.403   4.115  19.548  0.00  0.00    +0.000 A 
ATOM     16  C   UNL     1       3.081   4.244  19.975  0.00  0.00    +0.000 A 
ATOM     17  C   UNL     1       2.363   5.416  19.712  0.00  0.00    +0.000 A 
ENDBRANCH  10  12
BRANCH   2  18
ATOM     18  C   UNL     1      -0.583  12.338  21.981  0.00  0.00    +0.000 C 
BRANCH  18  19
ATOM     19  N   UNL     1      -1.977  12.611  21.734  0.00  0.00    +0.000 N 
ATOM     20  N   UNL     1      -2.398  12.725  20.453  0.00  0.00    +0.000 NA
ATOM     21  N   UNL     1      -3.717  12.880  20.464  0.00  0.00    +0.000 NA
ATOM     22  C   UNL     1      -4.122  12.839  21.760  0.00  0.00    +0.000 A 
ATOM     23  C   UNL     1      -3.041  12.643  22.587  0.00  0.00    +0.000 A 
ATOM     24  C   UNL     1      -3.085  12.544  24.066  0.00  0.00    +0.000 C 
ATOM     25  C   UNL     1      -4.554  12.362  24.525  0.00  0.00    +0.000 C 
ATOM     26  C   UNL     1      -5.546  13.248  23.738  0.00  0.00    +0.000 C 
ATOM     27  C   UNL     1      -5.520  12.951  22.225  0.00  0.00    +0.000 C 
ENDBRANCH  18  19
ENDBRANCH   2  18
TORSDOF 3
ENDMDL
MODEL 6
REMARK VINA RESULT:      -7.6      2.415      9.260
REMARK  Name = 
REMARK  3 active torsions:
REMARK  status: ('A' for Active; 'I' for Inactive)
REMARK    1  A    between atoms: C_2  and  C_3
REMARK    2  A    between atoms: C_3  and  N_4
REMARK    3  A    between atoms: N_20  and  C_21
REMARK                            x       y       z     vdW  Elec       q    Type
REMARK                         _______ _______ _______ _____ _____    ______ ____
ROOT
ATOM      1  O   UNL     1       0.421  10.646  22.843  0.00  0.00    +0.000 OA
ATOM      2  C   UNL     1       0.293  10.985  21.662  0.00  0.00    +0.000 C 
ATOM      3  N   UNL     1       0.166  10.046  20.650  0.00  0.00    +0.000 N 
ATOM      4  C   UNL     1      -0.029   8.636  21.030  0.00  0.00    +0.000 C 
ATOM      5  C   UNL     1       1.260   7.818  20.848  0.00  0.00    +0.000 C 
ATOM      6  C   UNL     1       1.807   8.107  19.494  0.00  0.00    +0.000 A 
ATOM      7  C   UNL     1       1.452   9.224  18.757  0.00  0.00    +0.000 A 
ATOM      8  N   UNL     1       2.000   9.161  17.505  0.00  0.00    +0.000 NA
ATOM      9  C   UNL     1       2.678   8.027  17.487  0.00  0.00    +0.000 A 
ATOM     10  N   UNL     1       2.596   7.324  18.676  0.00  0.00    +0.000 N 
ATOM     11  C   UNL     1       0.506  10.291  19.223  0.00  0.00    +0.000 C 
ENDROOT
BRANCH  10  12
ATOM     12  C   UNL     1       3.147   6.040  18.949  0.00  0.00    +0.000 A 
ATOM     13  C   UNL     1       4.531   5.824  18.872  0.00  0.00    +0.000 A 
ATOM     14  C   UNL     1       5.085   4.607  19.266  0.00  0.00    +0.000 A 
ATOM     15  C   UNL     1       4.260   3.582  19.716  0.00  0.00    +0.000 A 
ATOM     16  C   UNL     1       2.878   3.763  19.742  0.00  0.00    +0.000 A 
ATOM     17  C   UNL     1       2.316   4.984  19.350  0.00  0.00    +0.000 A 
ENDBRANCH  10  12
BRANCH   2  18
ATOM     18  C   UNL     1       0.140  12.448  21.319  0.00  0.00    +0.000 C 
BRANCH  18  19
ATOM     19  N   UNL     1      -0.453  13.227  22.376  0.00  0.00    +0.000 N 
ATOM     20  N   UNL     1       0.235  14.283  22.868  0.00  0.00    +0.000 NA
ATOM     21  N   UNL     1      -0.534  14.902  23.756  0.00  0.00    +0.000 NA
ATOM     22  C   UNL     1      -1.719  14.240  23.800  0.00  0.00    +0.000 A 
ATOM     23  C   UNL     1      -1.705  13.187  22.915  0.00  0.00    +0.000 A 
ATOM     24  C   UNL     1      -2.817  12.234  22.682  0.00  0.00    +0.000 C 
ATOM     25  C   UNL     1      -4.112  12.786  23.331  0.00  0.00    +0.000 C 
ATOM     26  C   UNL     1      -3.867  13.427  24.715  0.00  0.00    +0.000 C 
ATOM     27  C   UNL     1      -2.875  14.607  24.645  0.00  0.00    +0.000 C 
ENDBRANCH  18  19
ENDBRANCH   2  18
TORSDOF 3
ENDMDL
MODEL 7
REMARK VINA RESULT:      -7.5      2.453      9.363
REMARK  Name = 
REMARK  3 active torsions:
REMARK  status: ('A' for Active; 'I' for Inactive)
REMARK    1  A    between atoms: C_2  and  C_3
REMARK    2  A    between atoms: C_3  and  N_4
REMARK    3  A    between atoms: N_20  and  C_21
REMARK                            x       y       z     vdW  Elec       q    Type
REMARK                         _______ _______ _______ _____ _____    ______ ____
ROOT
ATOM      1  O   UNL     1       0.143  10.610  23.157  0.00  0.00    +0.000 OA
ATOM      2  C   UNL     1       0.004  10.974  21.985  0.00  0.00    +0.000 C 
ATOM      3  N   UNL     1      -0.088  10.055  20.949  0.00  0.00    +0.000 N 
ATOM      4  C   UNL     1      -0.232   8.630  21.294  0.00  0.00    +0.000 C 
ATOM      5  C   UNL     1       1.085   7.863  21.095  0.00  0.00    +0.000 C 
ATOM      6  C   UNL     1       1.623   8.205  19.749  0.00  0.00    +0.000 A 
ATOM      7  C   UNL     1       1.229   9.327  19.040  0.00  0.00    +0.000 A 
ATOM      8  N   UNL     1       1.781   9.314  17.788  0.00  0.00    +0.000 NA
ATOM      9  C   UNL     1       2.499   8.206  17.743  0.00  0.00    +0.000 A 
ATOM     10  N   UNL     1       2.441   7.472  18.914  0.00  0.00    +0.000 N 
ATOM     11  C   UNL     1       0.245  10.348  19.529  0.00  0.00    +0.000 C 
ENDROOT
BRANCH  10  12
ATOM     12  C   UNL     1       3.036   6.202  19.156  0.00  0.00    +0.000 A 
ATOM     13  C   UNL     1       2.255   5.113  19.573  0.00  0.00    +0.000 A 
ATOM     14  C   UNL     1       2.810   3.838  19.682  0.00  0.00    +0.000 A 
ATOM     15  C   UNL     1       4.158   3.641  19.402  0.00  0.00    +0.000 A 
ATOM     16  C   UNL     1       4.958   4.726  19.043  0.00  0.00    +0.000 A 
ATOM     17  C   UNL     1       4.406   6.007  18.929  0.00  0.00    +0.000 A 
ENDBRANCH  10  12
BRANCH   2  18
ATOM     18  C   UNL     1      -0.201  12.437  21.677  0.00  0.00    +0.000 C 
BRANCH  18  19
ATOM     19  N   UNL     1      -1.124  13.089  22.572  0.00  0.00    +0.000 N 
ATOM     20  N   UNL     1      -0.628  13.849  23.575  0.00  0.00    +0.000 NA
ATOM     21  N   UNL     1      -1.648  14.420  24.206  0.00  0.00    +0.000 NA
ATOM     22  C   UNL     1      -2.786  14.030  23.575  0.00  0.00    +0.000 A 
ATOM     23  C   UNL     1      -2.482  13.205  22.517  0.00  0.00    +0.000 A 
ATOM     24  C   UNL     1      -3.459  12.581  21.594  0.00  0.00    +0.000 C 
ATOM     25  C   UNL     1      -4.845  13.249  21.783  0.00  0.00    +0.000 C 
ATOM     26  C   UNL     1      -5.185  13.523  23.265  0.00  0.00    +0.000 C 
ATOM     27  C   UNL     1      -4.155  14.452  23.939  0.00  0.00    +0.000 C 
ENDBRANCH  18  19
ENDBRANCH   2  18
TORSDOF 3
ENDMDL
MODEL 8
REMARK VINA RESULT:      -7.5      3.353      7.784
REMARK  Name = 
REMARK  3 active torsions:
REMARK  status: ('A' for Active; 'I' for Inactive)
REMARK    1  A    between atoms: C_2  and  C_3
REMARK    2  A    between atoms: C_3  and  N_4
REMARK    3  A    between atoms: N_20  and  C_21
REMARK                            x       y       z     vdW  Elec       q    Type
REMARK                         _______ _______ _______ _____ _____    ______ ____
ROOT
ATOM      1  O   UNL     1       0.019  11.767  22.417  0.00  0.00    +0.000 OA
ATOM      2  C   UNL     1       0.092  11.955  21.198  0.00  0.00    +0.000 C 
ATOM      3  N   UNL     1      -0.026  10.906  20.297  0.00  0.00    +0.000 N 
ATOM      4  C   UNL     1      -0.455   9.594  20.810  0.00  0.00    +0.000 C 
ATOM      5  C   UNL     1       0.726   8.615  20.918  0.00  0.00    +0.000 C 
ATOM      6  C   UNL     1       1.478   8.651  19.634  0.00  0.00    +0.000 A 
ATOM      7  C   UNL     1       1.376   9.691  18.726  0.00  0.00    +0.000 A 
ATOM      8  N   UNL     1       2.069   9.394  17.584  0.00  0.00    +0.000 NA
ATOM      9  C   UNL     1       2.586   8.198  17.801  0.00  0.00    +0.000 A 
ATOM     10  N   UNL     1       2.256   7.678  19.040  0.00  0.00    +0.000 N 
ATOM     11  C   UNL     1       0.528  10.914  18.916  0.00  0.00    +0.000 C 
ENDROOT
BRANCH  10  12
ATOM     12  C   UNL     1       2.590   6.388  19.542  0.00  0.00    +0.000 A 
ATOM     13  C   UNL     1       1.750   5.738  20.459  0.00  0.00    +0.000 A 
ATOM     14  C   UNL     1       2.004   4.424  20.849  0.00  0.00    +0.000 A 
ATOM     15  C   UNL     1       3.115   3.752  20.349  0.00  0.00    +0.000 A 
ATOM     16  C   UNL     1       3.989   4.407  19.481  0.00  0.00    +0.000 A 
ATOM     17  C   UNL     1       3.738   5.726  19.084  0.00  0.00    +0.000 A 
ENDBRANCH  10  12
BRANCH   2  18
ATOM     18  C   UNL     1       0.182  13.364  20.664  0.00  0.00    +0.000 C 
BRANCH  18  19
ATOM     19  N   UNL     1       1.456  13.991  20.908  0.00  0.00    +0.000 N 
ATOM     20  N   UNL     1       1.804  14.281  22.183  0.00  0.00    +0.000 NA
ATOM     21  N   UNL     1       3.042  14.761  22.176  0.00  0.00    +0.000 NA
ATOM     22  C   UNL     1       3.476  14.749  20.889  0.00  0.00    +0.000 A 
ATOM     23  C   UNL     1       2.499  14.241  20.065  0.00  0.00    +0.000 A 
ATOM     24  C   UNL     1       2.604  14.072  18.596  0.00  0.00    +0.000 C 
ATOM     25  C   UNL     1       4.083  14.239  18.164  0.00  0.00    +0.000 C 
ATOM     26  C   UNL     1       4.802  15.389  18.904  0.00  0.00    +0.000 C 
ATOM     27  C   UNL     1       4.813  15.182  20.432  0.00  0.00    +0.000 C 
ENDBRANCH  18  19
ENDBRANCH   2  18
TORSDOF 3
ENDMDL
MODEL 9
REMARK VINA RESULT:      -7.4      2.826      4.224
REMARK  Name = 
REMARK  3 active torsions:
REMARK  status: ('A' for Active; 'I' for Inactive)
REMARK    1  A    between atoms: C_2  and  C_3
REMARK    2  A    between atoms: C_3  and  N_4
REMARK    3  A    between atoms: N_20  and  C_21
REMARK                            x       y       z     vdW  Elec       q    Type
REMARK                         _______ _______ _______ _____ _____    ______ ____
ROOT
ATOM      1  O   UNL     1       3.039   7.927  18.026  0.00  0.00    +0.000 OA
ATOM      2  C   UNL     1       2.258   7.930  18.983  0.00  0.00    +0.000 C 
ATOM      3  N   UNL     1       1.301   8.923  19.132  0.00  0.00    +0.000 N 
ATOM      4  C   UNL     1       1.089   9.858  18.013  0.00  0.00    +0.000 C 
ATOM      5  C   UNL     1       1.729  11.227  18.293  0.00  0.00    +0.000 C 
ATOM      6  C   UNL     1       1.316  11.664  19.655  0.00  0.00    +0.000 A 
ATOM      7  C   UNL     1       0.831  10.791  20.615  0.00  0.00    +0.000 A 
ATOM      8  N   UNL     1       0.407  11.484  21.716  0.00  0.00    +0.000 NA
ATOM      9  C   UNL     1       0.636  12.752  21.428  0.00  0.00    +0.000 A 
ATOM     10  N   UNL     1       1.188  12.936  20.173  0.00  0.00    +0.000 N 
ATOM     11  C   UNL     1       0.681   9.310  20.427  0.00  0.00    +0.000 C 
ENDROOT
BRANCH  10  12
ATOM     12  C   UNL     1       1.478  14.178  19.541  0.00  0.00    +0.000 A 
ATOM     13  C   UNL     1       2.757  14.436  19.023  0.00  0.00    +0.000 A 
ATOM     14  C   UNL     1       3.007  15.594  18.288  0.00  0.00    +0.000 A 
ATOM     15  C   UNL     1       1.992  16.521  18.084  0.00  0.00    +0.000 A 
ATOM     16  C   UNL     1       0.732  16.305  18.643  0.00  0.00    +0.000 A 
ATOM     17  C   UNL     1       0.474  15.143  19.380  0.00  0.00    +0.000 A 
ENDBRANCH  10  12
BRANCH   2  18
ATOM     18  C   UNL     1       2.252   6.765  19.943  0.00  0.00    +0.000 C 
BRANCH  18  19
ATOM     19  N   UNL     1       3.012   5.632  19.478  0.00  0.00    +0.000 N 
ATOM     20  N   UNL     1       4.360   5.673  19.570  0.00  0.00    +0.000 NA
ATOM     21  N   UNL     1       4.839   4.499  19.176  0.00  0.00    +0.000 NA
ATOM     22  C   UNL     1       3.778   3.713  18.858  0.00  0.00    +0.000 A 
ATOM     23  C   UNL     1       2.603   4.398  19.065  0.00  0.00    +0.000 A 
ATOM     24  C   UNL     1       1.237   3.871  18.830  0.00  0.00    +0.000 C 
ATOM     25  C   UNL     1       1.306   2.335  18.633  0.00  0.00    +0.000 C 
ATOM     26  C   UNL     1       2.510   1.890  17.772  0.00  0.00    +0.000 C 
ATOM     27  C   UNL     1       3.858   2.313  18.391  0.00  0.00    +0.000 C 
ENDBRANCH  18  19
ENDBRANCH   2  18
TORSDOF 3
ENDMDL
