MODEL 1
REMARK VINA RESULT:      -6.3      0.000      0.000
REMARK  Name = 
REMARK  6 active torsions:
REMARK  status: ('A' for Active; 'I' for Inactive)
REMARK    1  A    between atoms: C_1  and  S_2
REMARK    2  A    between atoms: S_2  and  C_3
REMARK    3  A    between atoms: C_6  and  C_7
REMARK    4  A    between atoms: C_7  and  C_8
REMARK    5  A    between atoms: C_7  and  N_11
REMARK    6  A    between atoms: C_8  and  O_10
REMARK                            x       y       z     vdW  Elec       q    Type
REMARK                         _______ _______ _______ _____ _____    ______ ____
ROOT
ATOM      1  C   UNL     1       4.432   4.731  18.082  0.00  0.00    +0.000 C 
ENDROOT
BRANCH   1   5
ATOM      2  C   UNL     1       1.905   8.066  19.347  0.00  0.00    +0.000 A 
ATOM      3  C   UNL     1       2.423   8.010  18.053  0.00  0.00    +0.000 A 
ATOM      4  C   UNL     1       3.196   6.910  17.639  0.00  0.00    +0.000 A 
ATOM      5  C   UNL     1       3.465   5.830  18.505  0.00  0.00    +0.000 A 
ATOM      6  C   UNL     1       2.901   5.876  19.784  0.00  0.00    +0.000 A 
ATOM      7  C   UNL     1       2.149   6.982  20.199  0.00  0.00    +0.000 A 
BRANCH   2   9
ATOM      8  C   UNL     1       0.881   9.035  21.820  0.00  0.00    +0.000 C 
ATOM      9  S   UNL     1       0.988   9.428  20.056  0.00  0.00    +0.000 S 
ENDBRANCH   2   9
ENDBRANCH   1   5
BRANCH   1  10
ATOM     10  N   UNL     1       3.966   3.313  18.094  0.00  0.00    +0.000 NA
ATOM     11  C   UNL     1       2.659   3.073  17.453  0.00  0.00    +0.000 C 
ATOM     12  C   UNL     1       1.440   3.101  18.394  0.00  0.00    +0.000 C 
ATOM     13  O   UNL     1       1.633   2.252  19.529  0.00  0.00    +0.000 OA
ATOM     14  C   UNL     1       2.795   2.649  20.261  0.00  0.00    +0.000 C 
ATOM     15  C   UNL     1       4.046   2.584  19.376  0.00  0.00    +0.000 C 
ENDBRANCH   1  10
BRANCH   1  16
ATOM     16  C   UNL     1       5.838   4.809  18.754  0.00  0.00    +0.000 C 
ATOM     17  O   UNL     1       6.145   5.443  19.755  0.00  0.00    +0.000 OA
BRANCH  16  18
ATOM     18  O   UNL     1       6.766   4.098  18.047  0.00  0.00    +0.000 OA
ATOM     19  H   UNL     1       6.313   3.305  17.677  0.00  0.00    +0.000 HD
ENDBRANCH  16  18
ENDBRANCH   1  16
TORSDOF 5
ENDMDL
MODEL 2
REMARK VINA RESULT:      -6.3      3.126      4.876
REMARK  Name = 
REMARK  6 active torsions:
REMARK  status: ('A' for Active; 'I' for Inactive)
REMARK    1  A    between atoms: C_1  and  S_2
REMARK    2  A    between atoms: S_2  and  C_3
REMARK    3  A    between atoms: C_6  and  C_7
REMARK    4  A    between atoms: C_7  and  C_8
REMARK    5  A    between atoms: C_7  and  N_11
REMARK    6  A    between atoms: C_8  and  O_10
REMARK                            x       y       z     vdW  Elec       q    Type
REMARK                         _______ _______ _______ _____ _____    ______ ____
ROOT
ATOM      1  C   UNL     1       3.328   5.323  19.924  0.00  0.00    +0.000 C 
ENDROOT
BRANCH   1   5
ATOM      2  C   UNL     1       6.094   4.856  16.572  0.00  0.00    +0.000 A 
ATOM      3  C   UNL     1       6.565   4.943  17.881  0.00  0.00    +0.000 A 
ATOM      4  C   UNL     1       5.665   5.046  18.959  0.00  0.00    +0.000 A 
ATOM      5  C   UNL     1       4.270   5.054  18.756  0.00  0.00    +0.000 A 
ATOM      6  C   UNL     1       3.810   4.917  17.443  0.00  0.00    +0.000 A 
ATOM      7  C   UNL     1       4.708   4.836  16.371  0.00  0.00    +0.000 A 
BRANCH   2   9
ATOM      8  C   UNL     1       6.098   3.909  13.886  0.00  0.00    +0.000 C 
ATOM      9  S   UNL     1       7.099   4.815  15.092  0.00  0.00    +0.000 S 
ENDBRANCH   2   9
ENDBRANCH   1   5
BRANCH   1  10
ATOM     10  N   UNL     1       2.469   4.212  20.432  0.00  0.00    +0.000 NA
ATOM     11  C   UNL     1       3.135   2.900  20.539  0.00  0.00    +0.000 C 
ATOM     12  C   UNL     1       2.982   1.973  19.319  0.00  0.00    +0.000 C 
ATOM     13  O   UNL     1       1.612   1.838  18.929  0.00  0.00    +0.000 OA
ATOM     14  C   UNL     1       1.051   3.116  18.617  0.00  0.00    +0.000 C 
ATOM     15  C   UNL     1       1.132   4.058  19.825  0.00  0.00    +0.000 C 
ENDBRANCH   1  10
BRANCH   1  16
ATOM     16  C   UNL     1       2.457   6.609  19.773  0.00  0.00    +0.000 C 
ATOM     17  O   UNL     1       2.253   7.247  18.748  0.00  0.00    +0.000 OA
BRANCH  16  18
ATOM     18  O   UNL     1       1.952   7.011  20.977  0.00  0.00    +0.000 OA
ATOM     19  H   UNL     1       1.779   7.979  20.917  0.00  0.00    +0.000 HD
ENDBRANCH  16  18
ENDBRANCH   1  16
TORSDOF 5
ENDMDL
MODEL 3
REMARK VINA RESULT:      -6.3      3.122      4.751
REMARK  Name = 
REMARK  6 active torsions:
REMARK  status: ('A' for Active; 'I' for Inactive)
REMARK    1  A    between atoms: C_1  and  S_2
REMARK    2  A    between atoms: S_2  and  C_3
REMARK    3  A    between atoms: C_6  and  C_7
REMARK    4  A    between atoms: C_7  and  C_8
REMARK    5  A    between atoms: C_7  and  N_11
REMARK    6  A    between atoms: C_8  and  O_10
REMARK                            x       y       z     vdW  Elec       q    Type
REMARK                         _______ _______ _______ _____ _____    ______ ____
ROOT
ATOM      1  C   UNL     1       2.720   5.775  19.716  0.00  0.00    +0.000 C 
ENDROOT
BRANCH   1   5
ATOM      2  C   UNL     1       5.894   5.258  16.755  0.00  0.00    +0.000 A 
ATOM      3  C   UNL     1       4.833   6.133  16.523  0.00  0.00    +0.000 A 
ATOM      4  C   UNL     1       3.841   6.329  17.501  0.00  0.00    +0.000 A 
ATOM      5  C   UNL     1       3.887   5.663  18.742  0.00  0.00    +0.000 A 
ATOM      6  C   UNL     1       4.980   4.824  18.981  0.00  0.00    +0.000 A 
ATOM      7  C   UNL     1       5.955   4.615  17.998  0.00  0.00    +0.000 A 
BRANCH   2   9
ATOM      8  C   UNL     1       6.303   4.011  14.228  0.00  0.00    +0.000 C 
ATOM      9  S   UNL     1       7.178   4.826  15.587  0.00  0.00    +0.000 S 
ENDBRANCH   2   9
ENDBRANCH   1   5
BRANCH   1  10
ATOM     10  N   UNL     1       1.565   4.842  19.573  0.00  0.00    +0.000 NA
ATOM     11  C   UNL     1       1.299   3.983  20.743  0.00  0.00    +0.000 C 
ATOM     12  C   UNL     1       1.959   2.592  20.713  0.00  0.00    +0.000 C 
ATOM     13  O   UNL     1       1.688   1.908  19.486  0.00  0.00    +0.000 OA
ATOM     14  C   UNL     1       2.158   2.671  18.372  0.00  0.00    +0.000 C 
ATOM     15  C   UNL     1       1.485   4.048  18.330  0.00  0.00    +0.000 C 
ENDBRANCH   1  10
BRANCH   1  16
ATOM     16  C   UNL     1       2.180   7.225  19.918  0.00  0.00    +0.000 C 
ATOM     17  O   UNL     1       2.030   8.084  19.059  0.00  0.00    +0.000 OA
BRANCH  16  18
ATOM     18  O   UNL     1       1.921   7.479  21.235  0.00  0.00    +0.000 OA
ATOM     19  H   UNL     1       2.620   7.032  21.766  0.00  0.00    +0.000 HD
ENDBRANCH  16  18
ENDBRANCH   1  16
TORSDOF 5
ENDMDL
MODEL 4
REMARK VINA RESULT:      -6.2      0.521      1.243
REMARK  Name = 
REMARK  6 active torsions:
REMARK  status: ('A' for Active; 'I' for Inactive)
REMARK    1  A    between atoms: C_1  and  S_2
REMARK    2  A    between atoms: S_2  and  C_3
REMARK    3  A    between atoms: C_6  and  C_7
REMARK    4  A    between atoms: C_7  and  C_8
REMARK    5  A    between atoms: C_7  and  N_11
REMARK    6  A    between atoms: C_8  and  O_10
REMARK                            x       y       z     vdW  Elec       q    Type
REMARK                         _______ _______ _______ _____ _____    ______ ____
ROOT
ATOM      1  C   UNL     1       4.629   4.902  17.938  0.00  0.00    +0.000 C 
ENDROOT
BRANCH   1   5
ATOM      2  C   UNL     1       2.015   8.230  19.032  0.00  0.00    +0.000 A 
ATOM      3  C   UNL     1       2.260   7.188  19.926  0.00  0.00    +0.000 A 
ATOM      4  C   UNL     1       3.140   6.145  19.584  0.00  0.00    +0.000 A 
ATOM      5  C   UNL     1       3.806   6.120  18.342  0.00  0.00    +0.000 A 
ATOM      6  C   UNL     1       3.589   7.194  17.473  0.00  0.00    +0.000 A 
ATOM      7  C   UNL     1       2.697   8.221  17.809  0.00  0.00    +0.000 A 
BRANCH   2   9
ATOM      8  C   UNL     1       0.116   9.252  20.892  0.00  0.00    +0.000 C 
ATOM      9  S   UNL     1       0.859   9.574  19.272  0.00  0.00    +0.000 S 
ENDBRANCH   2   9
ENDBRANCH   1   5
BRANCH   1  10
ATOM     10  N   UNL     1       3.962   3.569  17.866  0.00  0.00    +0.000 NA
ATOM     11  C   UNL     1       2.627   3.565  17.238  0.00  0.00    +0.000 C 
ATOM     12  C   UNL     1       1.435   3.704  18.204  0.00  0.00    +0.000 C 
ATOM     13  O   UNL     1       1.516   2.760  19.276  0.00  0.00    +0.000 OA
ATOM     14  C   UNL     1       2.732   2.934  20.008  0.00  0.00    +0.000 C 
ATOM     15  C   UNL     1       3.950   2.750  19.095  0.00  0.00    +0.000 C 
ENDBRANCH   1  10
BRANCH   1  16
ATOM     16  C   UNL     1       5.983   4.752  18.699  0.00  0.00    +0.000 C 
ATOM     17  O   UNL     1       6.260   5.188  19.809  0.00  0.00    +0.000 OA
BRANCH  16  18
ATOM     18  O   UNL     1       6.907   4.089  17.942  0.00  0.00    +0.000 OA
ATOM     19  H   UNL     1       6.891   3.143  18.217  0.00  0.00    +0.000 HD
ENDBRANCH  16  18
ENDBRANCH   1  16
TORSDOF 5
ENDMDL
MODEL 5
REMARK VINA RESULT:      -6.1      1.464      2.218
REMARK  Name = 
REMARK  6 active torsions:
REMARK  status: ('A' for Active; 'I' for Inactive)
REMARK    1  A    between atoms: C_1  and  S_2
REMARK    2  A    between atoms: S_2  and  C_3
REMARK    3  A    between atoms: C_6  and  C_7
REMARK    4  A    between atoms: C_7  and  C_8
REMARK    5  A    between atoms: C_7  and  N_11
REMARK    6  A    between atoms: C_8  and  O_10
REMARK                            x       y       z     vdW  Elec       q    Type
REMARK                         _______ _______ _______ _____ _____    ______ ____
ROOT
ATOM      1  C   UNL     1       3.341   5.319  18.811  0.00  0.00    +0.000 C 
ENDROOT
BRANCH   1   5
ATOM      2  C   UNL     1       1.444   9.251  19.036  0.00  0.00    +0.000 A 
ATOM      3  C   UNL     1       1.495   8.415  20.152  0.00  0.00    +0.000 A 
ATOM      4  C   UNL     1       2.149   7.171  20.084  0.00  0.00    +0.000 A 
ATOM      5  C   UNL     1       2.778   6.733  18.901  0.00  0.00    +0.000 A 
ATOM      6  C   UNL     1       2.762   7.600  17.804  0.00  0.00    +0.000 A 
ATOM      7  C   UNL     1       2.093   8.829  17.869  0.00  0.00    +0.000 A 
BRANCH   2   9
ATOM      8  C   UNL     1      -1.151  10.355  18.646  0.00  0.00    +0.000 C 
ATOM      9  S   UNL     1       0.577  10.812  18.928  0.00  0.00    +0.000 S 
ENDBRANCH   2   9
ENDBRANCH   1   5
BRANCH   1  10
ATOM     10  N   UNL     1       2.838   4.278  19.754  0.00  0.00    +0.000 NA
ATOM     11  C   UNL     1       3.651   3.049  19.829  0.00  0.00    +0.000 C 
ATOM     12  C   UNL     1       3.213   1.901  18.900  0.00  0.00    +0.000 C 
ATOM     13  O   UNL     1       1.818   1.618  19.037  0.00  0.00    +0.000 OA
ATOM     14  C   UNL     1       1.038   2.779  18.742  0.00  0.00    +0.000 C 
ATOM     15  C   UNL     1       1.403   3.935  19.682  0.00  0.00    +0.000 C 
ENDBRANCH   1  10
BRANCH   1  16
ATOM     16  C   UNL     1       4.899   5.243  18.756  0.00  0.00    +0.000 C 
ATOM     17  O   UNL     1       5.684   5.499  19.659  0.00  0.00    +0.000 OA
BRANCH  16  18
ATOM     18  O   UNL     1       5.334   4.889  17.510  0.00  0.00    +0.000 OA
ATOM     19  H   UNL     1       4.628   4.343  17.094  0.00  0.00    +0.000 HD
ENDBRANCH  16  18
ENDBRANCH   1  16
TORSDOF 5
ENDMDL
MODEL 6
REMARK VINA RESULT:      -6.1      1.866      3.537
REMARK  Name = 
REMARK  6 active torsions:
REMARK  status: ('A' for Active; 'I' for Inactive)
REMARK    1  A    between atoms: C_1  and  S_2
REMARK    2  A    between atoms: S_2  and  C_3
REMARK    3  A    between atoms: C_6  and  C_7
REMARK    4  A    between atoms: C_7  and  C_8
REMARK    5  A    between atoms: C_7  and  N_11
REMARK    6  A    between atoms: C_8  and  O_10
REMARK                            x       y       z     vdW  Elec       q    Type
REMARK                         _______ _______ _______ _____ _____    ______ ____
ROOT
ATOM      1  C   UNL     1       3.800   5.396  17.917  0.00  0.00    +0.000 C 
ENDROOT
BRANCH   1   5
ATOM      2  C   UNL     1       1.469   8.617  19.732  0.00  0.00    +0.000 A 
ATOM      3  C   UNL     1       1.874   8.690  18.400  0.00  0.00    +0.000 A 
ATOM      4  C   UNL     1       2.583   7.627  17.810  0.00  0.00    +0.000 A 
ATOM      5  C   UNL     1       2.899   6.459  18.533  0.00  0.00    +0.000 A 
ATOM      6  C   UNL     1       2.446   6.379  19.854  0.00  0.00    +0.000 A 
ATOM      7  C   UNL     1       1.758   7.446  20.445  0.00  0.00    +0.000 A 
BRANCH   2   9
ATOM      8  C   UNL     1       0.665   9.330  22.369  0.00  0.00    +0.000 C 
ATOM      9  S   UNL     1       0.648   9.911  20.655  0.00  0.00    +0.000 S 
ENDBRANCH   2   9
ENDBRANCH   1   5
BRANCH   1  10
ATOM     10  N   UNL     1       4.592   5.735  16.698  0.00  0.00    +0.000 NA
ATOM     11  C   UNL     1       5.179   4.583  15.987  0.00  0.00    +0.000 C 
ATOM     12  C   UNL     1       6.623   4.220  16.381  0.00  0.00    +0.000 C 
ATOM     13  O   UNL     1       7.483   5.362  16.333  0.00  0.00    +0.000 OA
ATOM     14  C   UNL     1       7.006   6.388  17.207  0.00  0.00    +0.000 C 
ATOM     15  C   UNL     1       5.587   6.821  16.817  0.00  0.00    +0.000 C 
ENDBRANCH   1  10
BRANCH   1  16
ATOM     16  C   UNL     1       3.118   4.008  17.709  0.00  0.00    +0.000 C 
ATOM     17  O   UNL     1       2.134   3.763  17.023  0.00  0.00    +0.000 OA
BRANCH  16  18
ATOM     18  O   UNL     1       3.731   3.038  18.450  0.00  0.00    +0.000 OA
ATOM     19  H   UNL     1       3.025   2.459  18.822  0.00  0.00    +0.000 HD
ENDBRANCH  16  18
ENDBRANCH   1  16
TORSDOF 5
ENDMDL
MODEL 7
REMARK VINA RESULT:      -6.1      2.017      3.464
REMARK  Name = 
REMARK  6 active torsions:
REMARK  status: ('A' for Active; 'I' for Inactive)
REMARK    1  A    between atoms: C_1  and  S_2
REMARK    2  A    between atoms: S_2  and  C_3
REMARK    3  A    between atoms: C_6  and  C_7
REMARK    4  A    between atoms: C_7  and  C_8
REMARK    5  A    between atoms: C_7  and  N_11
REMARK    6  A    between atoms: C_8  and  O_10
REMARK                            x       y       z     vdW  Elec       q    Type
REMARK                         _______ _______ _______ _____ _____    ______ ____
ROOT
ATOM      1  C   UNL     1       4.448   5.590  18.228  0.00  0.00    +0.000 C 
ENDROOT
BRANCH   1   5
ATOM      2  C   UNL     1       1.526   8.666  19.279  0.00  0.00    +0.000 A 
ATOM      3  C   UNL     1       2.189   8.698  18.053  0.00  0.00    +0.000 A 
ATOM      4  C   UNL     1       3.093   7.678  17.703  0.00  0.00    +0.000 A 
ATOM      5  C   UNL     1       3.351   6.594  18.565  0.00  0.00    +0.000 A 
ATOM      6  C   UNL     1       2.645   6.548  19.771  0.00  0.00    +0.000 A 
ATOM      7  C   UNL     1       1.761   7.575  20.126  0.00  0.00    +0.000 A 
BRANCH   2   9
ATOM      8  C   UNL     1      -0.637  10.351  18.510  0.00  0.00    +0.000 C 
ATOM      9  S   UNL     1       0.424   9.925  19.914  0.00  0.00    +0.000 S 
ENDBRANCH   2   9
ENDBRANCH   1   5
BRANCH   1  10
ATOM     10  N   UNL     1       5.555   6.006  17.318  0.00  0.00    +0.000 NA
ATOM     11  C   UNL     1       5.517   5.414  15.967  0.00  0.00    +0.000 C 
ATOM     12  C   UNL     1       6.335   4.123  15.780  0.00  0.00    +0.000 C 
ATOM     13  O   UNL     1       7.678   4.281  16.247  0.00  0.00    +0.000 OA
ATOM     14  C   UNL     1       7.690   4.644  17.630  0.00  0.00    +0.000 C 
ATOM     15  C   UNL     1       6.930   5.957  17.856  0.00  0.00    +0.000 C 
ENDBRANCH   1  10
BRANCH   1  16
ATOM     16  C   UNL     1       3.930   4.185  17.788  0.00  0.00    +0.000 C 
ATOM     17  O   UNL     1       2.985   3.944  17.049  0.00  0.00    +0.000 OA
BRANCH  16  18
ATOM     18  O   UNL     1       4.645   3.185  18.383  0.00  0.00    +0.000 OA
ATOM     19  H   UNL     1       4.010   2.473  18.628  0.00  0.00    +0.000 HD
ENDBRANCH  16  18
ENDBRANCH   1  16
TORSDOF 5
ENDMDL
MODEL 8
REMARK VINA RESULT:      -6.0      1.916      3.839
REMARK  Name = 
REMARK  6 active torsions:
REMARK  status: ('A' for Active; 'I' for Inactive)
REMARK    1  A    between atoms: C_1  and  S_2
REMARK    2  A    between atoms: S_2  and  C_3
REMARK    3  A    between atoms: C_6  and  C_7
REMARK    4  A    between atoms: C_7  and  C_8
REMARK    5  A    between atoms: C_7  and  N_11
REMARK    6  A    between atoms: C_8  and  O_10
REMARK                            x       y       z     vdW  Elec       q    Type
REMARK                         _______ _______ _______ _____ _____    ______ ____
ROOT
ATOM      1  C   UNL     1       4.693   4.425  18.639  0.00  0.00    +0.000 C 
ENDROOT
BRANCH   1   5
ATOM      2  C   UNL     1       2.294   8.078  18.531  0.00  0.00    +0.000 A 
ATOM      3  C   UNL     1       2.296   7.255  19.658  0.00  0.00    +0.000 A 
ATOM      4  C   UNL     1       3.107   6.106  19.702  0.00  0.00    +0.000 A 
ATOM      5  C   UNL     1       3.946   5.754  18.626  0.00  0.00    +0.000 A 
ATOM      6  C   UNL     1       3.971   6.612  17.522  0.00  0.00    +0.000 A 
ATOM      7  C   UNL     1       3.147   7.744  17.472  0.00  0.00    +0.000 A 
BRANCH   2   9
ATOM      8  C   UNL     1       0.678   9.955  19.934  0.00  0.00    +0.000 C 
ATOM      9  S   UNL     1       1.257   9.514  18.277  0.00  0.00    +0.000 S 
ENDBRANCH   2   9
ENDBRANCH   1   5
BRANCH   1  10
ATOM     10  N   UNL     1       6.147   4.408  18.305  0.00  0.00    +0.000 NA
ATOM     11  C   UNL     1       6.940   5.509  18.885  0.00  0.00    +0.000 C 
ATOM     12  C   UNL     1       7.119   6.748  17.988  0.00  0.00    +0.000 C 
ATOM     13  O   UNL     1       7.591   6.389  16.686  0.00  0.00    +0.000 OA
ATOM     14  C   UNL     1       6.683   5.484  16.054  0.00  0.00    +0.000 C 
ATOM     15  C   UNL     1       6.515   4.208  16.888  0.00  0.00    +0.000 C 
ENDBRANCH   1  10
BRANCH   1  16
ATOM     16  C   UNL     1       3.980   3.272  17.864  0.00  0.00    +0.000 C 
ATOM     17  O   UNL     1       3.163   3.384  16.960  0.00  0.00    +0.000 OA
BRANCH  16  18
ATOM     18  O   UNL     1       4.340   2.049  18.355  0.00  0.00    +0.000 OA
ATOM     19  H   UNL     1       3.514   1.527  18.482  0.00  0.00    +0.000 HD
ENDBRANCH  16  18
ENDBRANCH   1  16
TORSDOF 5
ENDMDL
MODEL 9
REMARK VINA RESULT:      -6.0      1.467      1.870
REMARK  Name = 
REMARK  6 active torsions:
REMARK  status: ('A' for Active; 'I' for Inactive)
REMARK    1  A    between atoms: C_1  and  S_2
REMARK    2  A    between atoms: S_2  and  C_3
REMARK    3  A    between atoms: C_6  and  C_7
REMARK    4  A    between atoms: C_7  and  C_8
REMARK    5  A    between atoms: C_7  and  N_11
REMARK    6  A    between atoms: C_8  and  O_10
REMARK                            x       y       z     vdW  Elec       q    Type
REMARK                         _______ _______ _______ _____ _____    ______ ____
ROOT
ATOM      1  C   UNL     1       3.307   5.228  18.807  0.00  0.00    +0.000 C 
ENDROOT
BRANCH   1   5
ATOM      2  C   UNL     1       1.450   9.161  19.242  0.00  0.00    +0.000 A 
ATOM      3  C   UNL     1       1.874   8.703  17.994  0.00  0.00    +0.000 A 
ATOM      4  C   UNL     1       2.427   7.417  17.856  0.00  0.00    +0.000 A 
ATOM      5  C   UNL     1       2.564   6.550  18.958  0.00  0.00    +0.000 A 
ATOM      6  C   UNL     1       2.091   7.002  20.195  0.00  0.00    +0.000 A 
ATOM      7  C   UNL     1       1.560   8.290  20.334  0.00  0.00    +0.000 A 
BRANCH   2   9
ATOM      8  C   UNL     1      -0.709  10.916  18.637  0.00  0.00    +0.000 C 
ATOM      9  S   UNL     1       0.816  10.794  19.604  0.00  0.00    +0.000 S 
ENDBRANCH   2   9
ENDBRANCH   1   5
BRANCH   1  10
ATOM     10  N   UNL     1       2.962   4.094  19.715  0.00  0.00    +0.000 NA
ATOM     11  C   UNL     1       3.763   2.869  19.527  0.00  0.00    +0.000 C 
ATOM     12  C   UNL     1       3.159   1.817  18.578  0.00  0.00    +0.000 C 
ATOM     13  O   UNL     1       1.805   1.513  18.925  0.00  0.00    +0.000 OA
ATOM     14  C   UNL     1       0.998   2.693  18.886  0.00  0.00    +0.000 C 
ATOM     15  C   UNL     1       1.532   3.752  19.858  0.00  0.00    +0.000 C 
ENDBRANCH   1  10
BRANCH   1  16
ATOM     16  C   UNL     1       4.860   5.361  18.730  0.00  0.00    +0.000 C 
ATOM     17  O   UNL     1       5.630   5.583  19.656  0.00  0.00    +0.000 OA
BRANCH  16  18
ATOM     18  O   UNL     1       5.304   5.251  17.443  0.00  0.00    +0.000 OA
ATOM     19  H   UNL     1       6.115   4.691  17.457  0.00  0.00    +0.000 HD
ENDBRANCH  16  18
ENDBRANCH   1  16
TORSDOF 5
ENDMDL
