MODEL 1
REMARK VINA RESULT:      -7.0      0.000      0.000
REMARK  Name = 
REMARK  13 active torsions:
REMARK  status: ('A' for Active; 'I' for Inactive)
REMARK    1  A    between atoms: C_1  and  N_2
REMARK    2  A    between atoms: N_2  and  C_3
REMARK    3  A    between atoms: N_2  and  C_13
REMARK    4  A    between atoms: C_3  and  C_4
REMARK    5  A    between atoms: C_4  and  C_5
REMARK    6  A    between atoms: C_5  and  S_6
REMARK    7  A    between atoms: S_6  and  C_7
REMARK    8  A    between atoms: C_13  and  C_14
REMARK    9  A    between atoms: C_14  and  O_15
REMARK   10  A    between atoms: C_14  and  C_16
REMARK   11  A    between atoms: C_16  and  O_17
REMARK   12  A    between atoms: O_17  and  C_18
REMARK   13  A    between atoms: C_23  and  O_24
REMARK                            x       y       z     vdW  Elec       q    Type
REMARK                         _______ _______ _______ _____ _____    ______ ____
ROOT
ATOM      1  C   UNL     1       2.498   2.236  19.335  0.00  0.00    +0.000 C 
ENDROOT
BRANCH   1   2
ATOM      2  O   UNL     1       1.593   1.244  18.841  0.00  0.00    +0.000 OA
ATOM      3  H   UNL     1       0.976   1.033  19.561  0.00  0.00    +0.000 HD
ENDBRANCH   1   2
BRANCH   1   4
ATOM      4  C   UNL     1       1.819   3.626  19.364  0.00  0.00    +0.000 C 
BRANCH   4   6
ATOM      5  C   UNL     1       2.307   3.799  21.757  0.00  0.00    +0.000 C 
ATOM      6  N   UNL     1       1.376   4.167  20.677  0.00  0.00    +0.000 NA
BRANCH   6   7
ATOM      7  C   UNL     1       1.308   5.647  20.648  0.00  0.00    +0.000 C 
BRANCH   7   8
ATOM      8  C   UNL     1       2.379   6.320  19.781  0.00  0.00    +0.000 C 
BRANCH   8   9
ATOM      9  C   UNL     1       2.078   7.809  19.627  0.00  0.00    +0.000 C 
BRANCH   9  10
ATOM     10  S   UNL     1       1.213   8.388  21.123  0.00  0.00    +0.000 S 
BRANCH  10  11
ATOM     11  C   UNL     1       0.209   9.739  20.527  0.00  0.00    +0.000 A 
ATOM     12  C   UNL     1      -0.069  10.002  19.181  0.00  0.00    +0.000 A 
ATOM     13  C   UNL     1      -0.850  11.103  18.821  0.00  0.00    +0.000 A 
ATOM     14  C   UNL     1      -1.363  11.953  19.801  0.00  0.00    +0.000 A 
ATOM     15  C   UNL     1      -1.106  11.698  21.145  0.00  0.00    +0.000 A 
ATOM     16  C   UNL     1      -0.331  10.593  21.501  0.00  0.00    +0.000 A 
ENDBRANCH  10  11
ENDBRANCH   9  10
ENDBRANCH   8   9
ENDBRANCH   7   8
ENDBRANCH   6   7
ENDBRANCH   4   6
ENDBRANCH   1   4
BRANCH   1  17
ATOM     17  C   UNL     1       3.847   2.245  18.596  0.00  0.00    +0.000 C 
BRANCH  17  18
ATOM     18  O   UNL     1       3.693   3.024  17.392  0.00  0.00    +0.000 OA
BRANCH  18  19
ATOM     19  C   UNL     1       4.642   3.992  17.217  0.00  0.00    +0.000 A 
ATOM     20  C   UNL     1       4.702   4.606  15.968  0.00  0.00    +0.000 A 
ATOM     21  C   UNL     1       5.570   5.694  15.773  0.00  0.00    +0.000 A 
ATOM     22  C   UNL     1       6.373   6.163  16.793  0.00  0.00    +0.000 A 
ATOM     23  N   UNL     1       6.988   7.351  16.712  0.00  0.00    +0.000 NA
ATOM     24  C   UNL     1       7.803   7.684  17.726  0.00  0.00    +0.000 A 
ATOM     25  C   UNL     1       8.186   6.861  18.757  0.00  0.00    +0.000 A 
ATOM     26  C   UNL     1       7.468   5.692  18.897  0.00  0.00    +0.000 A 
ATOM     27  C   UNL     1       6.480   5.376  17.958  0.00  0.00    +0.000 A 
ATOM     28  C   UNL     1       5.576   4.334  18.186  0.00  0.00    +0.000 A 
BRANCH  24  29
ATOM     29  O   UNL     1       7.848   9.024  18.006  0.00  0.00    +0.000 OA
ATOM     30  H   UNL     1       7.102   9.095  18.632  0.00  0.00    +0.000 HD
ENDBRANCH  24  29
ENDBRANCH  18  19
ENDBRANCH  17  18
ENDBRANCH   1  17
TORSDOF 12
ENDMDL
MODEL 2
REMARK VINA RESULT:      -7.0      3.349      7.693
REMARK  Name = 
REMARK  13 active torsions:
REMARK  status: ('A' for Active; 'I' for Inactive)
REMARK    1  A    between atoms: C_1  and  N_2
REMARK    2  A    between atoms: N_2  and  C_3
REMARK    3  A    between atoms: N_2  and  C_13
REMARK    4  A    between atoms: C_3  and  C_4
REMARK    5  A    between atoms: C_4  and  C_5
REMARK    6  A    between atoms: C_5  and  S_6
REMARK    7  A    between atoms: S_6  and  C_7
REMARK    8  A    between atoms: C_13  and  C_14
REMARK    9  A    between atoms: C_14  and  O_15
REMARK   10  A    between atoms: C_14  and  C_16
REMARK   11  A    between atoms: C_16  and  O_17
REMARK   12  A    between atoms: O_17  and  C_18
REMARK   13  A    between atoms: C_23  and  O_24
REMARK                            x       y       z     vdW  Elec       q    Type
REMARK                         _______ _______ _______ _____ _____    ______ ____
ROOT
ATOM      1  C   UNL     1       2.054   3.656  20.862  0.00  0.00    +0.000 C 
ENDROOT
BRANCH   1   2
ATOM      2  O   UNL     1       2.123   2.920  22.086  0.00  0.00    +0.000 OA
ATOM      3  H   UNL     1       3.008   3.065  22.460  0.00  0.00    +0.000 HD
ENDBRANCH   1   2
BRANCH   1   4
ATOM      4  C   UNL     1       3.198   3.234  19.909  0.00  0.00    +0.000 C 
BRANCH   4   6
ATOM      5  C   UNL     1       1.474   2.115  18.579  0.00  0.00    +0.000 C 
ATOM      6  N   UNL     1       2.913   2.197  18.881  0.00  0.00    +0.000 NA
BRANCH   6   7
ATOM      7  C   UNL     1       3.606   2.504  17.607  0.00  0.00    +0.000 C 
BRANCH   7   8
ATOM      8  C   UNL     1       3.910   3.991  17.386  0.00  0.00    +0.000 C 
BRANCH   8   9
ATOM      9  C   UNL     1       5.403   4.196  17.143  0.00  0.00    +0.000 C 
BRANCH   9  10
ATOM     10  S   UNL     1       5.628   5.670  16.095  0.00  0.00    +0.000 S 
BRANCH  10  11
ATOM     11  C   UNL     1       6.227   4.999  14.554  0.00  0.00    +0.000 A 
ATOM     12  C   UNL     1       7.398   5.400  13.903  0.00  0.00    +0.000 A 
ATOM     13  C   UNL     1       7.765   4.823  12.684  0.00  0.00    +0.000 A 
ATOM     14  C   UNL     1       6.966   3.839  12.102  0.00  0.00    +0.000 A 
ATOM     15  C   UNL     1       5.804   3.420  12.743  0.00  0.00    +0.000 A 
ATOM     16  C   UNL     1       5.445   3.993  13.965  0.00  0.00    +0.000 A 
ENDBRANCH  10  11
ENDBRANCH   9  10
ENDBRANCH   8   9
ENDBRANCH   7   8
ENDBRANCH   6   7
ENDBRANCH   4   6
ENDBRANCH   1   4
BRANCH   1  17
ATOM     17  C   UNL     1       1.984   5.178  21.075  0.00  0.00    +0.000 C 
BRANCH  17  18
ATOM     18  O   UNL     1       2.650   5.817  19.967  0.00  0.00    +0.000 OA
BRANCH  18  19
ATOM     19  C   UNL     1       2.207   7.080  19.690  0.00  0.00    +0.000 A 
ATOM     20  C   UNL     1       2.493   7.591  18.426  0.00  0.00    +0.000 A 
ATOM     21  C   UNL     1       1.953   8.832  18.044  0.00  0.00    +0.000 A 
ATOM     22  C   UNL     1       1.151   9.559  18.900  0.00  0.00    +0.000 A 
ATOM     23  N   UNL     1       0.411  10.588  18.463  0.00  0.00    +0.000 NA
ATOM     24  C   UNL     1      -0.278  11.276  19.387  0.00  0.00    +0.000 A 
ATOM     25  C   UNL     1      -0.178  11.124  20.748  0.00  0.00    +0.000 A 
ATOM     26  C   UNL     1       0.489   9.998  21.184  0.00  0.00    +0.000 A 
ATOM     27  C   UNL     1       1.085   9.147  20.246  0.00  0.00    +0.000 A 
ATOM     28  C   UNL     1       1.563   7.887  20.618  0.00  0.00    +0.000 A 
BRANCH  24  29
ATOM     29  O   UNL     1      -1.473  11.784  18.947  0.00  0.00    +0.000 OA
ATOM     30  H   UNL     1      -2.095  11.203  19.425  0.00  0.00    +0.000 HD
ENDBRANCH  24  29
ENDBRANCH  18  19
ENDBRANCH  17  18
ENDBRANCH   1  17
TORSDOF 12
ENDMDL
MODEL 3
REMARK VINA RESULT:      -7.0      1.419      1.824
REMARK  Name = 
REMARK  13 active torsions:
REMARK  status: ('A' for Active; 'I' for Inactive)
REMARK    1  A    between atoms: C_1  and  N_2
REMARK    2  A    between atoms: N_2  and  C_3
REMARK    3  A    between atoms: N_2  and  C_13
REMARK    4  A    between atoms: C_3  and  C_4
REMARK    5  A    between atoms: C_4  and  C_5
REMARK    6  A    between atoms: C_5  and  S_6
REMARK    7  A    between atoms: S_6  and  C_7
REMARK    8  A    between atoms: C_13  and  C_14
REMARK    9  A    between atoms: C_14  and  O_15
REMARK   10  A    between atoms: C_14  and  C_16
REMARK   11  A    between atoms: C_16  and  O_17
REMARK   12  A    between atoms: O_17  and  C_18
REMARK   13  A    between atoms: C_23  and  O_24
REMARK                            x       y       z     vdW  Elec       q    Type
REMARK                         _______ _______ _______ _____ _____    ______ ____
ROOT
ATOM      1  C   UNL     1       1.982   3.045  18.971  0.00  0.00    +0.000 C 
ENDROOT
BRANCH   1   2
ATOM      2  O   UNL     1       1.125   1.969  18.577  0.00  0.00    +0.000 OA
ATOM      3  H   UNL     1       1.157   1.916  17.608  0.00  0.00    +0.000 HD
ENDBRANCH   1   2
BRANCH   1   4
ATOM      4  C   UNL     1       1.659   4.323  18.159  0.00  0.00    +0.000 C 
BRANCH   4   6
ATOM      5  C   UNL     1       2.667   5.562  20.014  0.00  0.00    +0.000 C 
ATOM      6  N   UNL     1       1.783   5.640  18.838  0.00  0.00    +0.000 NA
BRANCH   6   7
ATOM      7  C   UNL     1       2.362   6.656  17.929  0.00  0.00    +0.000 C 
BRANCH   7   8
ATOM      8  C   UNL     1       2.435   8.072  18.513  0.00  0.00    +0.000 C 
BRANCH   8   9
ATOM      9  C   UNL     1       1.533   9.019  17.725  0.00  0.00    +0.000 C 
BRANCH   9  10
ATOM     10  S   UNL     1       0.865  10.273  18.865  0.00  0.00    +0.000 S 
BRANCH  10  11
ATOM     11  C   UNL     1      -0.834  10.446  18.345  0.00  0.00    +0.000 A 
ATOM     12  C   UNL     1      -1.430   9.740  17.296  0.00  0.00    +0.000 A 
ATOM     13  C   UNL     1      -2.766   9.969  16.956  0.00  0.00    +0.000 A 
ATOM     14  C   UNL     1      -3.522  10.906  17.661  0.00  0.00    +0.000 A 
ATOM     15  C   UNL     1      -2.947  11.608  18.716  0.00  0.00    +0.000 A 
ATOM     16  C   UNL     1      -1.614  11.371  19.058  0.00  0.00    +0.000 A 
ENDBRANCH  10  11
ENDBRANCH   9  10
ENDBRANCH   8   9
ENDBRANCH   7   8
ENDBRANCH   6   7
ENDBRANCH   4   6
ENDBRANCH   1   4
BRANCH   1  17
ATOM     17  C   UNL     1       3.474   2.673  18.933  0.00  0.00    +0.000 C 
BRANCH  17  18
ATOM     18  O   UNL     1       3.928   2.784  17.568  0.00  0.00    +0.000 OA
BRANCH  18  19
ATOM     19  C   UNL     1       4.809   3.805  17.344  0.00  0.00    +0.000 A 
ATOM     20  C   UNL     1       4.797   4.389  16.079  0.00  0.00    +0.000 A 
ATOM     21  C   UNL     1       5.590   5.523  15.833  0.00  0.00    +0.000 A 
ATOM     22  C   UNL     1       6.388   6.067  16.819  0.00  0.00    +0.000 A 
ATOM     23  N   UNL     1       6.924   7.289  16.692  0.00  0.00    +0.000 NA
ATOM     24  C   UNL     1       7.744   7.698  17.674  0.00  0.00    +0.000 A 
ATOM     25  C   UNL     1       8.205   6.928  18.714  0.00  0.00    +0.000 A 
ATOM     26  C   UNL     1       7.566   5.720  18.903  0.00  0.00    +0.000 A 
ATOM     27  C   UNL     1       6.575   5.319  17.999  0.00  0.00    +0.000 A 
ATOM     28  C   UNL     1       5.746   4.229  18.277  0.00  0.00    +0.000 A 
BRANCH  24  29
ATOM     29  O   UNL     1       7.712   9.046  17.920  0.00  0.00    +0.000 OA
ATOM     30  H   UNL     1       6.866   9.113  18.404  0.00  0.00    +0.000 HD
ENDBRANCH  24  29
ENDBRANCH  18  19
ENDBRANCH  17  18
ENDBRANCH   1  17
TORSDOF 12
ENDMDL
MODEL 4
REMARK VINA RESULT:      -6.9      3.332      7.336
REMARK  Name = 
REMARK  13 active torsions:
REMARK  status: ('A' for Active; 'I' for Inactive)
REMARK    1  A    between atoms: C_1  and  N_2
REMARK    2  A    between atoms: N_2  and  C_3
REMARK    3  A    between atoms: N_2  and  C_13
REMARK    4  A    between atoms: C_3  and  C_4
REMARK    5  A    between atoms: C_4  and  C_5
REMARK    6  A    between atoms: C_5  and  S_6
REMARK    7  A    between atoms: S_6  and  C_7
REMARK    8  A    between atoms: C_13  and  C_14
REMARK    9  A    between atoms: C_14  and  O_15
REMARK   10  A    between atoms: C_14  and  C_16
REMARK   11  A    between atoms: C_16  and  O_17
REMARK   12  A    between atoms: O_17  and  C_18
REMARK   13  A    between atoms: C_23  and  O_24
REMARK                            x       y       z     vdW  Elec       q    Type
REMARK                         _______ _______ _______ _____ _____    ______ ____
ROOT
ATOM      1  C   UNL     1       1.930   4.456  19.949  0.00  0.00    +0.000 C 
ENDROOT
BRANCH   1   2
ATOM      2  O   UNL     1       1.980   4.952  21.290  0.00  0.00    +0.000 OA
ATOM      3  H   UNL     1       2.132   5.910  21.236  0.00  0.00    +0.000 HD
ENDBRANCH   1   2
BRANCH   1   4
ATOM      4  C   UNL     1       2.815   3.195  19.802  0.00  0.00    +0.000 C 
BRANCH   4   6
ATOM      5  C   UNL     1       0.882   2.153  18.719  0.00  0.00    +0.000 C 
ATOM      6  N   UNL     1       2.341   2.101  18.912  0.00  0.00    +0.000 NA
BRANCH   6   7
ATOM      7  C   UNL     1       2.960   2.201  17.570  0.00  0.00    +0.000 C 
BRANCH   7   8
ATOM      8  C   UNL     1       4.261   3.011  17.523  0.00  0.00    +0.000 C 
BRANCH   8   9
ATOM      9  C   UNL     1       4.279   3.915  16.293  0.00  0.00    +0.000 C 
BRANCH   9  10
ATOM     10  S   UNL     1       5.993   4.048  15.690  0.00  0.00    +0.000 S 
BRANCH  10  11
ATOM     11  C   UNL     1       6.741   5.218  16.812  0.00  0.00    +0.000 A 
ATOM     12  C   UNL     1       6.712   6.608  16.662  0.00  0.00    +0.000 A 
ATOM     13  C   UNL     1       7.351   7.434  17.590  0.00  0.00    +0.000 A 
ATOM     14  C   UNL     1       8.027   6.882  18.678  0.00  0.00    +0.000 A 
ATOM     15  C   UNL     1       8.055   5.501  18.848  0.00  0.00    +0.000 A 
ATOM     16  C   UNL     1       7.409   4.678  17.923  0.00  0.00    +0.000 A 
ENDBRANCH  10  11
ENDBRANCH   9  10
ENDBRANCH   8   9
ENDBRANCH   7   8
ENDBRANCH   6   7
ENDBRANCH   4   6
ENDBRANCH   1   4
BRANCH   1  17
ATOM     17  C   UNL     1       2.242   5.531  18.895  0.00  0.00    +0.000 C 
BRANCH  17  18
ATOM     18  O   UNL     1       2.816   6.669  19.571  0.00  0.00    +0.000 OA
BRANCH  18  19
ATOM     19  C   UNL     1       2.134   7.840  19.392  0.00  0.00    +0.000 A 
ATOM     20  C   UNL     1       2.258   8.465  18.153  0.00  0.00    +0.000 A 
ATOM     21  C   UNL     1       1.480   9.602  17.871  0.00  0.00    +0.000 A 
ATOM     22  C   UNL     1       0.600  10.117  18.801  0.00  0.00    +0.000 A 
ATOM     23  N   UNL     1      -0.338  11.011  18.459  0.00  0.00    +0.000 NA
ATOM     24  C   UNL     1      -1.098  11.505  19.450  0.00  0.00    +0.000 A 
ATOM     25  C   UNL     1      -0.905  11.299  20.794  0.00  0.00    +0.000 A 
ATOM     26  C   UNL     1      -0.020  10.296  21.132  0.00  0.00    +0.000 A 
ATOM     27  C   UNL     1       0.677   9.626  20.120  0.00  0.00    +0.000 A 
ATOM     28  C   UNL     1       1.397   8.459  20.393  0.00  0.00    +0.000 A 
BRANCH  24  29
ATOM     29  O   UNL     1      -2.385  11.804  19.088  0.00  0.00    +0.000 OA
ATOM     30  H   UNL     1      -2.873  11.380  19.821  0.00  0.00    +0.000 HD
ENDBRANCH  24  29
ENDBRANCH  18  19
ENDBRANCH  17  18
ENDBRANCH   1  17
TORSDOF 12
ENDMDL
MODEL 5
REMARK VINA RESULT:      -6.9      3.787      7.448
REMARK  Name = 
REMARK  13 active torsions:
REMARK  status: ('A' for Active; 'I' for Inactive)
REMARK    1  A    between atoms: C_1  and  N_2
REMARK    2  A    between atoms: N_2  and  C_3
REMARK    3  A    between atoms: N_2  and  C_13
REMARK    4  A    between atoms: C_3  and  C_4
REMARK    5  A    between atoms: C_4  and  C_5
REMARK    6  A    between atoms: C_5  and  S_6
REMARK    7  A    between atoms: S_6  and  C_7
REMARK    8  A    between atoms: C_13  and  C_14
REMARK    9  A    between atoms: C_14  and  O_15
REMARK   10  A    between atoms: C_14  and  C_16
REMARK   11  A    between atoms: C_16  and  O_17
REMARK   12  A    between atoms: O_17  and  C_18
REMARK   13  A    between atoms: C_23  and  O_24
REMARK                            x       y       z     vdW  Elec       q    Type
REMARK                         _______ _______ _______ _____ _____    ______ ____
ROOT
ATOM      1  C   UNL     1       5.069   4.148  18.606  0.00  0.00    +0.000 C 
ENDROOT
BRANCH   1   2
ATOM      2  O   UNL     1       4.967   3.113  19.589  0.00  0.00    +0.000 OA
ATOM      3  H   UNL     1       5.493   3.393  20.357  0.00  0.00    +0.000 HD
ENDBRANCH   1   2
BRANCH   1   4
ATOM      4  C   UNL     1       5.998   5.281  19.105  0.00  0.00    +0.000 C 
BRANCH   4   6
ATOM      5  C   UNL     1       7.666   4.512  17.486  0.00  0.00    +0.000 C 
ATOM      6  N   UNL     1       7.444   5.208  18.765  0.00  0.00    +0.000 NA
BRANCH   6   7
ATOM      7  C   UNL     1       8.029   6.562  18.628  0.00  0.00    +0.000 C 
BRANCH   7   8
ATOM      8  C   UNL     1       7.231   7.517  17.731  0.00  0.00    +0.000 C 
BRANCH   8   9
ATOM      9  C   UNL     1       8.030   8.791  17.470  0.00  0.00    +0.000 C 
BRANCH   9  10
ATOM     10  S   UNL     1       8.826   9.312  19.024  0.00  0.00    +0.000 S 
BRANCH  10  11
ATOM     11  C   UNL     1       9.411  10.959  18.662  0.00  0.00    +0.000 A 
ATOM     12  C   UNL     1       8.796  11.856  17.782  0.00  0.00    +0.000 A 
ATOM     13  C   UNL     1       9.352  13.117  17.553  0.00  0.00    +0.000 A 
ATOM     14  C   UNL     1      10.528  13.497  18.200  0.00  0.00    +0.000 A 
ATOM     15  C   UNL     1      11.145  12.621  19.088  0.00  0.00    +0.000 A 
ATOM     16  C   UNL     1      10.582  11.364  19.321  0.00  0.00    +0.000 A 
ENDBRANCH  10  11
ENDBRANCH   9  10
ENDBRANCH   8   9
ENDBRANCH   7   8
ENDBRANCH   6   7
ENDBRANCH   4   6
ENDBRANCH   1   4
BRANCH   1  17
ATOM     17  C   UNL     1       3.701   4.663  18.128  0.00  0.00    +0.000 C 
BRANCH  17  18
ATOM     18  O   UNL     1       2.906   4.970  19.291  0.00  0.00    +0.000 OA
BRANCH  18  19
ATOM     19  C   UNL     1       2.470   6.264  19.355  0.00  0.00    +0.000 A 
ATOM     20  C   UNL     1       2.621   7.044  18.210  0.00  0.00    +0.000 A 
ATOM     21  C   UNL     1       2.076   8.340  18.179  0.00  0.00    +0.000 A 
ATOM     22  C   UNL     1       1.399   8.859  19.264  0.00  0.00    +0.000 A 
ATOM     23  N   UNL     1       0.643   9.960  19.157  0.00  0.00    +0.000 NA
ATOM     24  C   UNL     1       0.083  10.426  20.285  0.00  0.00    +0.000 A 
ATOM     25  C   UNL     1       0.336   9.974  21.557  0.00  0.00    +0.000 A 
ATOM     26  C   UNL     1       1.017   8.779  21.651  0.00  0.00    +0.000 A 
ATOM     27  C   UNL     1       1.477   8.157  20.484  0.00  0.00    +0.000 A 
ATOM     28  C   UNL     1       1.959   6.845  20.508  0.00  0.00    +0.000 A 
BRANCH  24  29
ATOM     29  O   UNL     1      -1.139  11.022  20.113  0.00  0.00    +0.000 OA
ATOM     30  H   UNL     1      -0.865  11.955  20.026  0.00  0.00    +0.000 HD
ENDBRANCH  24  29
ENDBRANCH  18  19
ENDBRANCH  17  18
ENDBRANCH   1  17
TORSDOF 12
ENDMDL
MODEL 6
REMARK VINA RESULT:      -6.8      2.981      6.889
REMARK  Name = 
REMARK  13 active torsions:
REMARK  status: ('A' for Active; 'I' for Inactive)
REMARK    1  A    between atoms: C_1  and  N_2
REMARK    2  A    between atoms: N_2  and  C_3
REMARK    3  A    between atoms: N_2  and  C_13
REMARK    4  A    between atoms: C_3  and  C_4
REMARK    5  A    between atoms: C_4  and  C_5
REMARK    6  A    between atoms: C_5  and  S_6
REMARK    7  A    between atoms: S_6  and  C_7
REMARK    8  A    between atoms: C_13  and  C_14
REMARK    9  A    between atoms: C_14  and  O_15
REMARK   10  A    between atoms: C_14  and  C_16
REMARK   11  A    between atoms: C_16  and  O_17
REMARK   12  A    between atoms: O_17  and  C_18
REMARK   13  A    between atoms: C_23  and  O_24
REMARK                            x       y       z     vdW  Elec       q    Type
REMARK                         _______ _______ _______ _____ _____    ______ ____
ROOT
ATOM      1  C   UNL     1       1.486   3.553  19.303  0.00  0.00    +0.000 C 
ENDROOT
BRANCH   1   2
ATOM      2  O   UNL     1       0.427   3.069  18.472  0.00  0.00    +0.000 OA
ATOM      3  H   UNL     1       0.389   3.645  17.690  0.00  0.00    +0.000 HD
ENDBRANCH   1   2
BRANCH   1   4
ATOM      4  C   UNL     1       2.345   2.377  19.828  0.00  0.00    +0.000 C 
BRANCH   4   6
ATOM      5  C   UNL     1       4.024   1.061  18.627  0.00  0.00    +0.000 C 
ATOM      6  N   UNL     1       3.764   2.292  19.393  0.00  0.00    +0.000 NA
BRANCH   6   7
ATOM      7  C   UNL     1       4.122   3.431  18.516  0.00  0.00    +0.000 C 
BRANCH   7   8
ATOM      8  C   UNL     1       4.419   3.051  17.061  0.00  0.00    +0.000 C 
BRANCH   8   9
ATOM      9  C   UNL     1       4.611   4.305  16.213  0.00  0.00    +0.000 C 
BRANCH   9  10
ATOM     10  S   UNL     1       6.358   4.404  15.703  0.00  0.00    +0.000 S 
BRANCH  10  11
ATOM     11  C   UNL     1       7.101   5.435  16.957  0.00  0.00    +0.000 A 
ATOM     12  C   UNL     1       7.602   4.979  18.180  0.00  0.00    +0.000 A 
ATOM     13  C   UNL     1       8.144   5.877  19.103  0.00  0.00    +0.000 A 
ATOM     14  C   UNL     1       8.193   7.241  18.814  0.00  0.00    +0.000 A 
ATOM     15  C   UNL     1       7.710   7.709  17.596  0.00  0.00    +0.000 A 
ATOM     16  C   UNL     1       7.176   6.808  16.673  0.00  0.00    +0.000 A 
ENDBRANCH  10  11
ENDBRANCH   9  10
ENDBRANCH   8   9
ENDBRANCH   7   8
ENDBRANCH   6   7
ENDBRANCH   4   6
ENDBRANCH   1   4
BRANCH   1  17
ATOM     17  C   UNL     1       0.996   4.483  20.426  0.00  0.00    +0.000 C 
BRANCH  17  18
ATOM     18  O   UNL     1       2.070   5.385  20.760  0.00  0.00    +0.000 OA
BRANCH  18  19
ATOM     19  C   UNL     1       1.951   6.636  20.221  0.00  0.00    +0.000 A 
ATOM     20  C   UNL     1       2.595   6.870  19.008  0.00  0.00    +0.000 A 
ATOM     21  C   UNL     1       2.402   8.095  18.347  0.00  0.00    +0.000 A 
ATOM     22  C   UNL     1       1.590   9.077  18.880  0.00  0.00    +0.000 A 
ATOM     23  N   UNL     1       1.176  10.119  18.145  0.00  0.00    +0.000 NA
ATOM     24  C   UNL     1       0.450  11.056  18.775  0.00  0.00    +0.000 A 
ATOM     25  C   UNL     1       0.223  11.127  20.128  0.00  0.00    +0.000 A 
ATOM     26  C   UNL     1       0.549  10.002  20.857  0.00  0.00    +0.000 A 
ATOM     27  C   UNL     1       1.157   8.919  20.212  0.00  0.00    +0.000 A 
ATOM     28  C   UNL     1       1.290   7.683  20.850  0.00  0.00    +0.000 A 
BRANCH  24  29
ATOM     29  O   UNL     1      -0.500  11.663  17.995  0.00  0.00    +0.000 OA
ATOM     30  H   UNL     1      -0.972  12.184  18.673  0.00  0.00    +0.000 HD
ENDBRANCH  24  29
ENDBRANCH  18  19
ENDBRANCH  17  18
ENDBRANCH   1  17
TORSDOF 12
ENDMDL
MODEL 7
REMARK VINA RESULT:      -6.8      3.165      7.249
REMARK  Name = 
REMARK  13 active torsions:
REMARK  status: ('A' for Active; 'I' for Inactive)
REMARK    1  A    between atoms: C_1  and  N_2
REMARK    2  A    between atoms: N_2  and  C_3
REMARK    3  A    between atoms: N_2  and  C_13
REMARK    4  A    between atoms: C_3  and  C_4
REMARK    5  A    between atoms: C_4  and  C_5
REMARK    6  A    between atoms: C_5  and  S_6
REMARK    7  A    between atoms: S_6  and  C_7
REMARK    8  A    between atoms: C_13  and  C_14
REMARK    9  A    between atoms: C_14  and  O_15
REMARK   10  A    between atoms: C_14  and  C_16
REMARK   11  A    between atoms: C_16  and  O_17
REMARK   12  A    between atoms: O_17  and  C_18
REMARK   13  A    between atoms: C_23  and  O_24
REMARK                            x       y       z     vdW  Elec       q    Type
REMARK                         _______ _______ _______ _____ _____    ______ ____
ROOT
ATOM      1  C   UNL     1       1.465   4.175  19.865  0.00  0.00    +0.000 C 
ENDROOT
BRANCH   1   2
ATOM      2  O   UNL     1       0.883   3.188  20.722  0.00  0.00    +0.000 OA
ATOM      3  H   UNL     1      -0.007   3.000  20.381  0.00  0.00    +0.000 HD
ENDBRANCH   1   2
BRANCH   1   4
ATOM      4  C   UNL     1       2.688   3.592  19.116  0.00  0.00    +0.000 C 
BRANCH   4   6
ATOM      5  C   UNL     1       4.183   1.953  20.151  0.00  0.00    +0.000 C 
ATOM      6  N   UNL     1       3.946   3.381  19.880  0.00  0.00    +0.000 NA
BRANCH   6   7
ATOM      7  C   UNL     1       5.119   3.877  19.122  0.00  0.00    +0.000 C 
BRANCH   7   8
ATOM      8  C   UNL     1       5.497   5.335  19.409  0.00  0.00    +0.000 C 
BRANCH   8   9
ATOM      9  C   UNL     1       7.013   5.482  19.501  0.00  0.00    +0.000 C 
BRANCH   9  10
ATOM     10  S   UNL     1       7.591   6.475  18.086  0.00  0.00    +0.000 S 
BRANCH  10  11
ATOM     11  C   UNL     1       6.829   5.682  16.681  0.00  0.00    +0.000 A 
ATOM     12  C   UNL     1       7.201   4.439  16.159  0.00  0.00    +0.000 A 
ATOM     13  C   UNL     1       6.552   3.918  15.037  0.00  0.00    +0.000 A 
ATOM     14  C   UNL     1       5.522   4.632  14.424  0.00  0.00    +0.000 A 
ATOM     15  C   UNL     1       5.132   5.865  14.938  0.00  0.00    +0.000 A 
ATOM     16  C   UNL     1       5.778   6.379  16.064  0.00  0.00    +0.000 A 
ENDBRANCH  10  11
ENDBRANCH   9  10
ENDBRANCH   8   9
ENDBRANCH   7   8
ENDBRANCH   6   7
ENDBRANCH   4   6
ENDBRANCH   1   4
BRANCH   1  17
ATOM     17  C   UNL     1       1.780   5.494  20.590  0.00  0.00    +0.000 C 
BRANCH  17  18
ATOM     18  O   UNL     1       2.523   6.336  19.686  0.00  0.00    +0.000 OA
BRANCH  18  19
ATOM     19  C   UNL     1       2.015   7.596  19.537  0.00  0.00    +0.000 A 
ATOM     20  C   UNL     1       2.200   8.216  18.302  0.00  0.00    +0.000 A 
ATOM     21  C   UNL     1       1.590   9.457  18.053  0.00  0.00    +0.000 A 
ATOM     22  C   UNL     1       0.816  10.081  19.011  0.00  0.00    +0.000 A 
ATOM     23  N   UNL     1       0.010  11.107  18.702  0.00  0.00    +0.000 NA
ATOM     24  C   UNL     1      -0.646  11.691  19.717  0.00  0.00    +0.000 A 
ATOM     25  C   UNL     1      -0.454  11.440  21.054  0.00  0.00    +0.000 A 
ATOM     26  C   UNL     1       0.283  10.314  21.358  0.00  0.00    +0.000 A 
ATOM     27  C   UNL     1       0.851   9.564  20.321  0.00  0.00    +0.000 A 
ATOM     28  C   UNL     1       1.399   8.301  20.563  0.00  0.00    +0.000 A 
BRANCH  24  29
ATOM     29  O   UNL     1      -1.884  12.180  19.391  0.00  0.00    +0.000 OA
ATOM     30  H   UNL     1      -1.712  12.492  18.482  0.00  0.00    +0.000 HD
ENDBRANCH  24  29
ENDBRANCH  18  19
ENDBRANCH  17  18
ENDBRANCH   1  17
TORSDOF 12
ENDMDL
MODEL 8
REMARK VINA RESULT:      -6.8      1.286      1.800
REMARK  Name = 
REMARK  13 active torsions:
REMARK  status: ('A' for Active; 'I' for Inactive)
REMARK    1  A    between atoms: C_1  and  N_2
REMARK    2  A    between atoms: N_2  and  C_3
REMARK    3  A    between atoms: N_2  and  C_13
REMARK    4  A    between atoms: C_3  and  C_4
REMARK    5  A    between atoms: C_4  and  C_5
REMARK    6  A    between atoms: C_5  and  S_6
REMARK    7  A    between atoms: S_6  and  C_7
REMARK    8  A    between atoms: C_13  and  C_14
REMARK    9  A    between atoms: C_14  and  O_15
REMARK   10  A    between atoms: C_14  and  C_16
REMARK   11  A    between atoms: C_16  and  O_17
REMARK   12  A    between atoms: O_17  and  C_18
REMARK   13  A    between atoms: C_23  and  O_24
REMARK                            x       y       z     vdW  Elec       q    Type
REMARK                         _______ _______ _______ _____ _____    ______ ____
ROOT
ATOM      1  C   UNL     1       1.749   3.322  19.079  0.00  0.00    +0.000 C 
ENDROOT
BRANCH   1   2
ATOM      2  O   UNL     1       1.437   2.707  17.826  0.00  0.00    +0.000 OA
ATOM      3  H   UNL     1       0.837   3.306  17.353  0.00  0.00    +0.000 HD
ENDBRANCH   1   2
BRANCH   1   4
ATOM      4  C   UNL     1       1.376   4.824  19.055  0.00  0.00    +0.000 C 
BRANCH   4   6
ATOM      5  C   UNL     1       2.817   6.774  18.719  0.00  0.00    +0.000 C 
ATOM      6  N   UNL     1       2.310   5.792  19.691  0.00  0.00    +0.000 NA
BRANCH   6   7
ATOM      7  C   UNL     1       1.634   6.556  20.766  0.00  0.00    +0.000 C 
BRANCH   7   8
ATOM      8  C   UNL     1       1.835   8.074  20.696  0.00  0.00    +0.000 C 
BRANCH   8   9
ATOM      9  C   UNL     1       0.498   8.776  20.474  0.00  0.00    +0.000 C 
BRANCH   9  10
ATOM     10  S   UNL     1       0.778  10.260  19.454  0.00  0.00    +0.000 S 
BRANCH  10  11
ATOM     11  C   UNL     1      -0.828  10.594  18.751  0.00  0.00    +0.000 A 
ATOM     12  C   UNL     1      -1.395   9.904  17.674  0.00  0.00    +0.000 A 
ATOM     13  C   UNL     1      -2.654  10.262  17.186  0.00  0.00    +0.000 A 
ATOM     14  C   UNL     1      -3.362  11.313  17.769  0.00  0.00    +0.000 A 
ATOM     15  C   UNL     1      -2.818  12.001  18.850  0.00  0.00    +0.000 A 
ATOM     16  C   UNL     1      -1.563  11.635  19.339  0.00  0.00    +0.000 A 
ENDBRANCH  10  11
ENDBRANCH   9  10
ENDBRANCH   8   9
ENDBRANCH   7   8
ENDBRANCH   6   7
ENDBRANCH   4   6
ENDBRANCH   1   4
BRANCH   1  17
ATOM     17  C   UNL     1       3.198   3.072  19.531  0.00  0.00    +0.000 C 
BRANCH  17  18
ATOM     18  O   UNL     1       3.984   2.763  18.363  0.00  0.00    +0.000 OA
BRANCH  18  19
ATOM     19  C   UNL     1       4.799   3.777  17.942  0.00  0.00    +0.000 A 
ATOM     20  C   UNL     1       4.625   4.233  16.636  0.00  0.00    +0.000 A 
ATOM     21  C   UNL     1       5.346   5.355  16.194  0.00  0.00    +0.000 A 
ATOM     22  C   UNL     1       6.231   6.012  17.025  0.00  0.00    +0.000 A 
ATOM     23  N   UNL     1       6.707   7.228  16.721  0.00  0.00    +0.000 NA
ATOM     24  C   UNL     1       7.617   7.751  17.559  0.00  0.00    +0.000 A 
ATOM     25  C   UNL     1       8.218   7.098  18.607  0.00  0.00    +0.000 A 
ATOM     26  C   UNL     1       7.646   5.901  18.983  0.00  0.00    +0.000 A 
ATOM     27  C   UNL     1       6.574   5.389  18.242  0.00  0.00    +0.000 A 
ATOM     28  C   UNL     1       5.819   4.313  18.716  0.00  0.00    +0.000 A 
BRANCH  24  29
ATOM     29  O   UNL     1       7.567   9.115  17.677  0.00  0.00    +0.000 OA
ATOM     30  H   UNL     1       8.090   9.237  18.493  0.00  0.00    +0.000 HD
ENDBRANCH  24  29
ENDBRANCH  18  19
ENDBRANCH  17  18
ENDBRANCH   1  17
TORSDOF 12
ENDMDL
MODEL 9
REMARK VINA RESULT:      -6.7      1.271      1.668
REMARK  Name = 
REMARK  13 active torsions:
REMARK  status: ('A' for Active; 'I' for Inactive)
REMARK    1  A    between atoms: C_1  and  N_2
REMARK    2  A    between atoms: N_2  and  C_3
REMARK    3  A    between atoms: N_2  and  C_13
REMARK    4  A    between atoms: C_3  and  C_4
REMARK    5  A    between atoms: C_4  and  C_5
REMARK    6  A    between atoms: C_5  and  S_6
REMARK    7  A    between atoms: S_6  and  C_7
REMARK    8  A    between atoms: C_13  and  C_14
REMARK    9  A    between atoms: C_14  and  O_15
REMARK   10  A    between atoms: C_14  and  C_16
REMARK   11  A    between atoms: C_16  and  O_17
REMARK   12  A    between atoms: O_17  and  C_18
REMARK   13  A    between atoms: C_23  and  O_24
REMARK                            x       y       z     vdW  Elec       q    Type
REMARK                         _______ _______ _______ _____ _____    ______ ____
ROOT
ATOM      1  C   UNL     1       1.552   3.330  19.738  0.00  0.00    +0.000 C 
ENDROOT
BRANCH   1   2
ATOM      2  O   UNL     1       0.912   2.412  18.848  0.00  0.00    +0.000 OA
ATOM      3  H   UNL     1       1.103   1.516  19.173  0.00  0.00    +0.000 HD
ENDBRANCH   1   2
BRANCH   1   4
ATOM      4  C   UNL     1       1.415   4.780  19.214  0.00  0.00    +0.000 C 
BRANCH   4   6
ATOM      5  C   UNL     1       2.714   6.820  18.828  0.00  0.00    +0.000 C 
ATOM      6  N   UNL     1       2.267   5.835  19.827  0.00  0.00    +0.000 NA
BRANCH   6   7
ATOM      7  C   UNL     1       1.523   6.581  20.869  0.00  0.00    +0.000 C 
BRANCH   7   8
ATOM      8  C   UNL     1       1.432   8.093  20.631  0.00  0.00    +0.000 C 
BRANCH   8   9
ATOM      9  C   UNL     1       1.366   8.837  21.962  0.00  0.00    +0.000 C 
BRANCH   9  10
ATOM     10  S   UNL     1      -0.227   9.714  22.065  0.00  0.00    +0.000 S 
BRANCH  10  11
ATOM     11  C   UNL     1      -0.158  10.867  20.704  0.00  0.00    +0.000 A 
ATOM     12  C   UNL     1      -0.963  10.813  19.561  0.00  0.00    +0.000 A 
ATOM     13  C   UNL     1      -0.810  11.755  18.541  0.00  0.00    +0.000 A 
ATOM     14  C   UNL     1       0.148  12.763  18.651  0.00  0.00    +0.000 A 
ATOM     15  C   UNL     1       0.949  12.838  19.787  0.00  0.00    +0.000 A 
ATOM     16  C   UNL     1       0.788  11.899  20.807  0.00  0.00    +0.000 A 
ENDBRANCH  10  11
ENDBRANCH   9  10
ENDBRANCH   8   9
ENDBRANCH   7   8
ENDBRANCH   6   7
ENDBRANCH   4   6
ENDBRANCH   1   4
BRANCH   1  17
ATOM     17  C   UNL     1       3.007   2.945  20.059  0.00  0.00    +0.000 C 
BRANCH  17  18
ATOM     18  O   UNL     1       3.643   2.533  18.832  0.00  0.00    +0.000 OA
BRANCH  18  19
ATOM     19  C   UNL     1       4.487   3.461  18.290  0.00  0.00    +0.000 A 
ATOM     20  C   UNL     1       4.334   3.747  16.935  0.00  0.00    +0.000 A 
ATOM     21  C   UNL     1       5.089   4.782  16.357  0.00  0.00    +0.000 A 
ATOM     22  C   UNL     1       5.986   5.519  17.104  0.00  0.00    +0.000 A 
ATOM     23  N   UNL     1       6.498   6.671  16.649  0.00  0.00    +0.000 NA
ATOM     24  C   UNL     1       7.416   7.275  17.419  0.00  0.00    +0.000 A 
ATOM     25  C   UNL     1       7.993   6.749  18.550  0.00  0.00    +0.000 A 
ATOM     26  C   UNL     1       7.385   5.627  19.073  0.00  0.00    +0.000 A 
ATOM     27  C   UNL     1       6.305   5.051  18.395  0.00  0.00    +0.000 A 
ATOM     28  C   UNL     1       5.517   4.067  18.998  0.00  0.00    +0.000 A 
BRANCH  24  29
ATOM     29  O   UNL     1       7.403   8.644  17.358  0.00  0.00    +0.000 OA
ATOM     30  H   UNL     1       8.013   8.789  16.609  0.00  0.00    +0.000 HD
ENDBRANCH  24  29
ENDBRANCH  18  19
ENDBRANCH  17  18
ENDBRANCH   1  17
TORSDOF 12
ENDMDL
