MODEL 1
REMARK VINA RESULT:      -7.4      0.000      0.000
REMARK  Name = 
REMARK  8 active torsions:
REMARK  status: ('A' for Active; 'I' for Inactive)
REMARK    1  A    between atoms: C_1  and  O_2
REMARK    2  A    between atoms: O_2  and  C_3
REMARK    3  A    between atoms: C_6  and  C_7
REMARK    4  A    between atoms: C_9  and  C_10
REMARK    5  A    between atoms: C_18  and  O_19
REMARK    6  A    between atoms: O_19  and  C_20
REMARK    7  A    between atoms: C_20  and  C_21
REMARK    8  A    between atoms: C_21  and  N_22
REMARK                            x       y       z     vdW  Elec       q    Type
REMARK                         _______ _______ _______ _____ _____    ______ ____
ROOT
ATOM      1  C   UNL     1       6.585   5.190  15.697  0.00  0.00    +0.000 A 
ATOM      2  C   UNL     1       6.796   6.363  16.419  0.00  0.00    +0.000 A 
ATOM      3  C   UNL     1       5.796   6.863  17.257  0.00  0.00    +0.000 A 
ATOM      4  C   UNL     1       4.563   6.197  17.382  0.00  0.00    +0.000 A 
ATOM      5  C   UNL     1       4.348   5.023  16.639  0.00  0.00    +0.000 A 
ATOM      6  C   UNL     1       5.362   4.536  15.809  0.00  0.00    +0.000 A 
ENDROOT
BRANCH   4   7
ATOM      7  C   UNL     1       3.568   6.685  18.325  0.00  0.00    +0.000 A 
ATOM      8  C   UNL     1       2.767   7.795  18.381  0.00  0.00    +0.000 A 
ATOM      9  C   UNL     1       2.109   7.707  19.632  0.00  0.00    +0.000 A 
ATOM     10  N   UNL     1       2.475   6.597  20.283  0.00  0.00    +0.000 NA
ATOM     11  O   UNL     1       3.357   5.945  19.449  0.00  0.00    +0.000 OA
BRANCH   9  12
ATOM     12  C   UNL     1       1.162   8.654  20.202  0.00  0.00    +0.000 A 
ATOM     13  C   UNL     1       0.709   9.740  19.442  0.00  0.00    +0.000 A 
ATOM     14  C   UNL     1      -0.213  10.636  19.981  0.00  0.00    +0.000 A 
ATOM     15  C   UNL     1      -0.678  10.458  21.281  0.00  0.00    +0.000 A 
ATOM     16  C   UNL     1      -0.224   9.389  22.049  0.00  0.00    +0.000 A 
ATOM     17  C   UNL     1       0.698   8.488  21.510  0.00  0.00    +0.000 A 
ENDBRANCH   9  12
ENDBRANCH   4   7
BRANCH   1  19
ATOM     18  C   UNL     1       7.465   4.845  13.520  0.00  0.00    +0.000 C 
ATOM     19  O   UNL     1       7.638   4.756  14.934  0.00  0.00    +0.000 OA
ENDBRANCH   1  19
BRANCH   5  20
ATOM     20  O   UNL     1       3.139   4.392  16.810  0.00  0.00    +0.000 OA
BRANCH  20  21
ATOM     21  C   UNL     1       3.167   2.972  16.812  0.00  0.00    +0.000 C 
BRANCH  21  22
ATOM     22  C   UNL     1       3.674   2.429  18.152  0.00  0.00    +0.000 C 
BRANCH  22  23
ATOM     23  N   UNL     1       2.881   2.939  19.291  0.00  0.00    +0.000 NA
ATOM     24  C   UNL     1       1.448   2.631  19.160  0.00  0.00    +0.000 C 
ATOM     25  C   UNL     1       0.642   3.222  20.314  0.00  0.00    +0.000 C 
ATOM     26  C   UNL     1       1.165   2.734  21.655  0.00  0.00    +0.000 C 
ATOM     27  C   UNL     1       2.666   2.979  21.759  0.00  0.00    +0.000 C 
ATOM     28  C   UNL     1       3.416   2.405  20.554  0.00  0.00    +0.000 C 
ENDBRANCH  22  23
ENDBRANCH  21  22
ENDBRANCH  20  21
ENDBRANCH   5  20
TORSDOF 7
ENDMDL
MODEL 2
REMARK VINA RESULT:      -7.3      3.659      5.549
REMARK  Name = 
REMARK  8 active torsions:
REMARK  status: ('A' for Active; 'I' for Inactive)
REMARK    1  A    between atoms: C_1  and  O_2
REMARK    2  A    between atoms: O_2  and  C_3
REMARK    3  A    between atoms: C_6  and  C_7
REMARK    4  A    between atoms: C_9  and  C_10
REMARK    5  A    between atoms: C_18  and  O_19
REMARK    6  A    between atoms: O_19  and  C_20
REMARK    7  A    between atoms: C_20  and  C_21
REMARK    8  A    between atoms: C_21  and  N_22
REMARK                            x       y       z     vdW  Elec       q    Type
REMARK                         _______ _______ _______ _____ _____    ______ ____
ROOT
ATOM      1  C   UNL     1       5.634   4.357  15.002  0.00  0.00    +0.000 A 
ATOM      2  C   UNL     1       6.941   4.766  14.747  0.00  0.00    +0.000 A 
ATOM      3  C   UNL     1       7.534   5.759  15.531  0.00  0.00    +0.000 A 
ATOM      4  C   UNL     1       6.823   6.364  16.584  0.00  0.00    +0.000 A 
ATOM      5  C   UNL     1       5.497   5.961  16.827  0.00  0.00    +0.000 A 
ATOM      6  C   UNL     1       4.923   4.963  16.034  0.00  0.00    +0.000 A 
ENDROOT
BRANCH   4   7
ATOM      7  C   UNL     1       7.485   7.333  17.444  0.00  0.00    +0.000 A 
ATOM      8  C   UNL     1       7.685   8.686  17.384  0.00  0.00    +0.000 A 
ATOM      9  C   UNL     1       8.508   8.985  18.496  0.00  0.00    +0.000 A 
ATOM     10  N   UNL     1       8.772   7.878  19.200  0.00  0.00    +0.000 NA
ATOM     11  O   UNL     1       8.103   6.857  18.561  0.00  0.00    +0.000 OA
BRANCH   9  12
ATOM     12  C   UNL     1       9.039  10.283  18.881  0.00  0.00    +0.000 A 
ATOM     13  C   UNL     1       9.556  10.480  20.168  0.00  0.00    +0.000 A 
ATOM     14  C   UNL     1      10.082  11.719  20.531  0.00  0.00    +0.000 A 
ATOM     15  C   UNL     1      10.087  12.767  19.615  0.00  0.00    +0.000 A 
ATOM     16  C   UNL     1       9.563  12.586  18.338  0.00  0.00    +0.000 A 
ATOM     17  C   UNL     1       9.038  11.344  17.971  0.00  0.00    +0.000 A 
ENDBRANCH   9  12
ENDBRANCH   4   7
BRANCH   1  19
ATOM     18  C   UNL     1       5.192   3.590  12.800  0.00  0.00    +0.000 C 
ATOM     19  O   UNL     1       5.153   3.350  14.206  0.00  0.00    +0.000 OA
ENDBRANCH   1  19
BRANCH   5  20
ATOM     20  O   UNL     1       4.849   6.560  17.881  0.00  0.00    +0.000 OA
BRANCH  20  21
ATOM     21  C   UNL     1       3.435   6.642  17.781  0.00  0.00    +0.000 C 
BRANCH  21  22
ATOM     22  C   UNL     1       2.769   6.404  19.141  0.00  0.00    +0.000 C 
BRANCH  22  23
ATOM     23  N   UNL     1       2.429   4.980  19.349  0.00  0.00    +0.000 NA
ATOM     24  C   UNL     1       1.463   4.788  20.443  0.00  0.00    +0.000 C 
ATOM     25  C   UNL     1       1.177   3.307  20.682  0.00  0.00    +0.000 C 
ATOM     26  C   UNL     1       0.678   2.634  19.413  0.00  0.00    +0.000 C 
ATOM     27  C   UNL     1       1.638   2.901  18.260  0.00  0.00    +0.000 C 
ATOM     28  C   UNL     1       1.923   4.396  18.097  0.00  0.00    +0.000 C 
ENDBRANCH  22  23
ENDBRANCH  21  22
ENDBRANCH  20  21
ENDBRANCH   5  20
TORSDOF 7
ENDMDL
MODEL 3
REMARK VINA RESULT:      -7.2      0.825      1.527
REMARK  Name = 
REMARK  8 active torsions:
REMARK  status: ('A' for Active; 'I' for Inactive)
REMARK    1  A    between atoms: C_1  and  O_2
REMARK    2  A    between atoms: O_2  and  C_3
REMARK    3  A    between atoms: C_6  and  C_7
REMARK    4  A    between atoms: C_9  and  C_10
REMARK    5  A    between atoms: C_18  and  O_19
REMARK    6  A    between atoms: O_19  and  C_20
REMARK    7  A    between atoms: C_20  and  C_21
REMARK    8  A    between atoms: C_21  and  N_22
REMARK                            x       y       z     vdW  Elec       q    Type
REMARK                         _______ _______ _______ _____ _____    ______ ____
ROOT
ATOM      1  C   UNL     1       6.305   5.205  16.105  0.00  0.00    +0.000 A 
ATOM      2  C   UNL     1       6.436   6.550  16.446  0.00  0.00    +0.000 A 
ATOM      3  C   UNL     1       5.405   7.206  17.124  0.00  0.00    +0.000 A 
ATOM      4  C   UNL     1       4.222   6.526  17.467  0.00  0.00    +0.000 A 
ATOM      5  C   UNL     1       4.088   5.174  17.105  0.00  0.00    +0.000 A 
ATOM      6  C   UNL     1       5.131   4.533  16.430  0.00  0.00    +0.000 A 
ENDROOT
BRANCH   4   7
ATOM      7  C   UNL     1       3.198   7.203  18.248  0.00  0.00    +0.000 A 
ATOM      8  C   UNL     1       2.410   8.304  18.043  0.00  0.00    +0.000 A 
ATOM      9  C   UNL     1       1.702   8.479  19.257  0.00  0.00    +0.000 A 
ATOM     10  N   UNL     1       2.028   7.524  20.136  0.00  0.00    +0.000 NA
ATOM     11  O   UNL     1       2.933   6.710  19.490  0.00  0.00    +0.000 OA
BRANCH   9  12
ATOM     12  C   UNL     1       0.747   9.527  19.582  0.00  0.00    +0.000 A 
ATOM     13  C   UNL     1       0.736  10.099  20.861  0.00  0.00    +0.000 A 
ATOM     14  C   UNL     1      -0.166  11.116  21.166  0.00  0.00    +0.000 A 
ATOM     15  C   UNL     1      -1.066  11.561  20.200  0.00  0.00    +0.000 A 
ATOM     16  C   UNL     1      -1.072  10.990  18.931  0.00  0.00    +0.000 A 
ATOM     17  C   UNL     1      -0.166   9.972  18.621  0.00  0.00    +0.000 A 
ENDBRANCH   9  12
ENDBRANCH   4   7
BRANCH   1  19
ATOM     18  C   UNL     1       7.368   4.669  14.051  0.00  0.00    +0.000 C 
ATOM     19  O   UNL     1       7.384   4.637  15.478  0.00  0.00    +0.000 OA
ENDBRANCH   1  19
BRANCH   5  20
ATOM     20  O   UNL     1       2.926   4.542  17.482  0.00  0.00    +0.000 OA
BRANCH  20  21
ATOM     21  C   UNL     1       2.668   3.287  16.869  0.00  0.00    +0.000 C 
BRANCH  21  22
ATOM     22  C   UNL     1       3.143   2.130  17.755  0.00  0.00    +0.000 C 
BRANCH  22  23
ATOM     23  N   UNL     1       2.527   2.174  19.099  0.00  0.00    +0.000 NA
ATOM     24  C   UNL     1       3.479   2.596  20.139  0.00  0.00    +0.000 C 
ATOM     25  C   UNL     1       2.840   2.572  21.525  0.00  0.00    +0.000 C 
ATOM     26  C   UNL     1       1.593   3.439  21.568  0.00  0.00    +0.000 C 
ATOM     27  C   UNL     1       0.641   3.056  20.441  0.00  0.00    +0.000 C 
ATOM     28  C   UNL     1       1.348   3.053  19.083  0.00  0.00    +0.000 C 
ENDBRANCH  22  23
ENDBRANCH  21  22
ENDBRANCH  20  21
ENDBRANCH   5  20
TORSDOF 7
ENDMDL
MODEL 4
REMARK VINA RESULT:      -7.2      2.276      7.282
REMARK  Name = 
REMARK  8 active torsions:
REMARK  status: ('A' for Active; 'I' for Inactive)
REMARK    1  A    between atoms: C_1  and  O_2
REMARK    2  A    between atoms: O_2  and  C_3
REMARK    3  A    between atoms: C_6  and  C_7
REMARK    4  A    between atoms: C_9  and  C_10
REMARK    5  A    between atoms: C_18  and  O_19
REMARK    6  A    between atoms: O_19  and  C_20
REMARK    7  A    between atoms: C_20  and  C_21
REMARK    8  A    between atoms: C_21  and  N_22
REMARK                            x       y       z     vdW  Elec       q    Type
REMARK                         _______ _______ _______ _____ _____    ______ ____
ROOT
ATOM      1  C   UNL     1       3.028   7.101  19.000  0.00  0.00    +0.000 A 
ATOM      2  C   UNL     1       3.084   7.775  17.781  0.00  0.00    +0.000 A 
ATOM      3  C   UNL     1       3.843   7.261  16.727  0.00  0.00    +0.000 A 
ATOM      4  C   UNL     1       4.566   6.063  16.878  0.00  0.00    +0.000 A 
ATOM      5  C   UNL     1       4.521   5.395  18.115  0.00  0.00    +0.000 A 
ATOM      6  C   UNL     1       3.753   5.923  19.157  0.00  0.00    +0.000 A 
ENDROOT
BRANCH   4   7
ATOM      7  C   UNL     1       5.280   5.499  15.742  0.00  0.00    +0.000 A 
ATOM      8  C   UNL     1       4.954   4.610  14.753  0.00  0.00    +0.000 A 
ATOM      9  C   UNL     1       6.154   4.413  14.028  0.00  0.00    +0.000 A 
ATOM     10  N   UNL     1       7.142   5.159  14.537  0.00  0.00    +0.000 NA
ATOM     11  O   UNL     1       6.584   5.861  15.583  0.00  0.00    +0.000 OA
BRANCH   9  12
ATOM     12  C   UNL     1       6.364   3.537  12.886  0.00  0.00    +0.000 A 
ATOM     13  C   UNL     1       7.609   3.504  12.243  0.00  0.00    +0.000 A 
ATOM     14  C   UNL     1       7.816   2.650  11.161  0.00  0.00    +0.000 A 
ATOM     15  C   UNL     1       6.782   1.834  10.711  0.00  0.00    +0.000 A 
ATOM     16  C   UNL     1       5.537   1.869  11.334  0.00  0.00    +0.000 A 
ATOM     17  C   UNL     1       5.328   2.721  12.422  0.00  0.00    +0.000 A 
ENDBRANCH   9  12
ENDBRANCH   4   7
BRANCH   1  19
ATOM     18  C   UNL     1       1.558   6.745  20.829  0.00  0.00    +0.000 C 
ATOM     19  O   UNL     1       2.226   7.660  19.960  0.00  0.00    +0.000 OA
ENDBRANCH   1  19
BRANCH   5  20
ATOM     20  O   UNL     1       5.221   4.216  18.210  0.00  0.00    +0.000 OA
BRANCH  20  21
ATOM     21  C   UNL     1       5.087   3.504  19.431  0.00  0.00    +0.000 C 
BRANCH  21  22
ATOM     22  C   UNL     1       4.450   2.129  19.205  0.00  0.00    +0.000 C 
BRANCH  22  23
ATOM     23  N   UNL     1       3.025   2.108  19.597  0.00  0.00    +0.000 NA
ATOM     24  C   UNL     1       2.759   2.927  20.791  0.00  0.00    +0.000 C 
ATOM     25  C   UNL     1       1.295   2.840  21.215  0.00  0.00    +0.000 C 
ATOM     26  C   UNL     1       0.371   3.247  20.079  0.00  0.00    +0.000 C 
ATOM     27  C   UNL     1       0.698   2.456  18.819  0.00  0.00    +0.000 C 
ATOM     28  C   UNL     1       2.186   2.543  18.469  0.00  0.00    +0.000 C 
ENDBRANCH  22  23
ENDBRANCH  21  22
ENDBRANCH  20  21
ENDBRANCH   5  20
TORSDOF 7
ENDMDL
MODEL 5
REMARK VINA RESULT:      -7.1      1.030      1.675
REMARK  Name = 
REMARK  8 active torsions:
REMARK  status: ('A' for Active; 'I' for Inactive)
REMARK    1  A    between atoms: C_1  and  O_2
REMARK    2  A    between atoms: O_2  and  C_3
REMARK    3  A    between atoms: C_6  and  C_7
REMARK    4  A    between atoms: C_9  and  C_10
REMARK    5  A    between atoms: C_18  and  O_19
REMARK    6  A    between atoms: O_19  and  C_20
REMARK    7  A    between atoms: C_20  and  C_21
REMARK    8  A    between atoms: C_21  and  N_22
REMARK                            x       y       z     vdW  Elec       q    Type
REMARK                         _______ _______ _______ _____ _____    ______ ____
ROOT
ATOM      1  C   UNL     1       6.419   4.612  14.550  0.00  0.00    +0.000 A 
ATOM      2  C   UNL     1       6.233   5.987  14.688  0.00  0.00    +0.000 A 
ATOM      3  C   UNL     1       5.402   6.486  15.694  0.00  0.00    +0.000 A 
ATOM      4  C   UNL     1       4.737   5.616  16.577  0.00  0.00    +0.000 A 
ATOM      5  C   UNL     1       4.913   4.228  16.422  0.00  0.00    +0.000 A 
ATOM      6  C   UNL     1       5.752   3.748  15.412  0.00  0.00    +0.000 A 
ENDROOT
BRANCH   4   7
ATOM      7  C   UNL     1       3.946   6.157  17.670  0.00  0.00    +0.000 A 
ATOM      8  C   UNL     1       2.927   7.069  17.754  0.00  0.00    +0.000 A 
ATOM      9  C   UNL     1       2.683   7.219  19.141  0.00  0.00    +0.000 A 
ATOM     10  N   UNL     1       3.493   6.425  19.852  0.00  0.00    +0.000 NA
ATOM     11  O   UNL     1       4.253   5.739  18.930  0.00  0.00    +0.000 OA
BRANCH   9  12
ATOM     12  C   UNL     1       1.714   8.095  19.779  0.00  0.00    +0.000 A 
ATOM     13  C   UNL     1       1.242   7.806  21.067  0.00  0.00    +0.000 A 
ATOM     14  C   UNL     1       0.328   8.656  21.686  0.00  0.00    +0.000 A 
ATOM     15  C   UNL     1      -0.126   9.792  21.021  0.00  0.00    +0.000 A 
ATOM     16  C   UNL     1       0.326  10.082  19.737  0.00  0.00    +0.000 A 
ATOM     17  C   UNL     1       1.245   9.233  19.115  0.00  0.00    +0.000 A 
ENDBRANCH   9  12
ENDBRANCH   4   7
BRANCH   1  19
ATOM     18  C   UNL     1       7.915   5.269  12.828  0.00  0.00    +0.000 C 
ATOM     19  O   UNL     1       7.284   4.219  13.561  0.00  0.00    +0.000 OA
ENDBRANCH   1  19
BRANCH   5  20
ATOM     20  O   UNL     1       4.265   3.416  17.321  0.00  0.00    +0.000 OA
BRANCH  20  21
ATOM     21  C   UNL     1       2.949   3.015  16.968  0.00  0.00    +0.000 C 
BRANCH  21  22
ATOM     22  C   UNL     1       2.476   1.841  17.833  0.00  0.00    +0.000 C 
BRANCH  22  23
ATOM     23  N   UNL     1       2.006   2.288  19.162  0.00  0.00    +0.000 NA
ATOM     24  C   UNL     1       3.083   2.300  20.164  0.00  0.00    +0.000 C 
ATOM     25  C   UNL     1       2.561   2.702  21.541  0.00  0.00    +0.000 C 
ATOM     26  C   UNL     1       1.872   4.056  21.492  0.00  0.00    +0.000 C 
ATOM     27  C   UNL     1       0.810   4.071  20.399  0.00  0.00    +0.000 C 
ATOM     28  C   UNL     1       1.380   3.615  19.053  0.00  0.00    +0.000 C 
ENDBRANCH  22  23
ENDBRANCH  21  22
ENDBRANCH  20  21
ENDBRANCH   5  20
TORSDOF 7
ENDMDL
MODEL 6
REMARK VINA RESULT:      -7.1      0.969      1.363
REMARK  Name = 
REMARK  8 active torsions:
REMARK  status: ('A' for Active; 'I' for Inactive)
REMARK    1  A    between atoms: C_1  and  O_2
REMARK    2  A    between atoms: O_2  and  C_3
REMARK    3  A    between atoms: C_6  and  C_7
REMARK    4  A    between atoms: C_9  and  C_10
REMARK    5  A    between atoms: C_18  and  O_19
REMARK    6  A    between atoms: O_19  and  C_20
REMARK    7  A    between atoms: C_20  and  C_21
REMARK    8  A    between atoms: C_21  and  N_22
REMARK                            x       y       z     vdW  Elec       q    Type
REMARK                         _______ _______ _______ _____ _____    ______ ____
ROOT
ATOM      1  C   UNL     1       6.115   4.790  14.596  0.00  0.00    +0.000 A 
ATOM      2  C   UNL     1       6.113   6.145  14.921  0.00  0.00    +0.000 A 
ATOM      3  C   UNL     1       5.294   6.621  15.948  0.00  0.00    +0.000 A 
ATOM      4  C   UNL     1       4.456   5.746  16.664  0.00  0.00    +0.000 A 
ATOM      5  C   UNL     1       4.448   4.382  16.321  0.00  0.00    +0.000 A 
ATOM      6  C   UNL     1       5.277   3.924  15.293  0.00  0.00    +0.000 A 
ENDROOT
BRANCH   4   7
ATOM      7  C   UNL     1       3.676   6.245  17.786  0.00  0.00    +0.000 A 
ATOM      8  C   UNL     1       2.721   7.216  17.930  0.00  0.00    +0.000 A 
ATOM      9  C   UNL     1       2.452   7.262  19.320  0.00  0.00    +0.000 A 
ATOM     10  N   UNL     1       3.187   6.354  19.973  0.00  0.00    +0.000 NA
ATOM     11  O   UNL     1       3.921   5.698  19.010  0.00  0.00    +0.000 OA
BRANCH   9  12
ATOM     12  C   UNL     1       1.529   8.146  20.014  0.00  0.00    +0.000 A 
ATOM     13  C   UNL     1       1.204   9.394  19.467  0.00  0.00    +0.000 A 
ATOM     14  C   UNL     1       0.305  10.234  20.123  0.00  0.00    +0.000 A 
ATOM     15  C   UNL     1      -0.266   9.836  21.329  0.00  0.00    +0.000 A 
ATOM     16  C   UNL     1       0.061   8.604  21.888  0.00  0.00    +0.000 A 
ATOM     17  C   UNL     1       0.960   7.759  21.231  0.00  0.00    +0.000 A 
ENDBRANCH   9  12
ENDBRANCH   4   7
BRANCH   1  19
ATOM     18  C   UNL     1       6.436   3.574  12.583  0.00  0.00    +0.000 C 
ATOM     19  O   UNL     1       6.981   4.411  13.603  0.00  0.00    +0.000 OA
ENDBRANCH   1  19
BRANCH   5  20
ATOM     20  O   UNL     1       3.633   3.560  17.062  0.00  0.00    +0.000 OA
BRANCH  20  21
ATOM     21  C   UNL     1       4.274   2.489  17.740  0.00  0.00    +0.000 C 
BRANCH  21  22
ATOM     22  C   UNL     1       3.254   1.459  18.238  0.00  0.00    +0.000 C 
BRANCH  22  23
ATOM     23  N   UNL     1       2.463   1.970  19.378  0.00  0.00    +0.000 NA
ATOM     24  C   UNL     1       3.306   2.580  20.418  0.00  0.00    +0.000 C 
ATOM     25  C   UNL     1       2.475   3.042  21.612  0.00  0.00    +0.000 C 
ATOM     26  C   UNL     1       1.387   4.012  21.179  0.00  0.00    +0.000 C 
ATOM     27  C   UNL     1       0.563   3.413  20.046  0.00  0.00    +0.000 C 
ATOM     28  C   UNL     1       1.452   2.926  18.899  0.00  0.00    +0.000 C 
ENDBRANCH  22  23
ENDBRANCH  21  22
ENDBRANCH  20  21
ENDBRANCH   5  20
TORSDOF 7
ENDMDL
MODEL 7
REMARK VINA RESULT:      -7.1      1.855      7.712
REMARK  Name = 
REMARK  8 active torsions:
REMARK  status: ('A' for Active; 'I' for Inactive)
REMARK    1  A    between atoms: C_1  and  O_2
REMARK    2  A    between atoms: O_2  and  C_3
REMARK    3  A    between atoms: C_6  and  C_7
REMARK    4  A    between atoms: C_9  and  C_10
REMARK    5  A    between atoms: C_18  and  O_19
REMARK    6  A    between atoms: O_19  and  C_20
REMARK    7  A    between atoms: C_20  and  C_21
REMARK    8  A    between atoms: C_21  and  N_22
REMARK                            x       y       z     vdW  Elec       q    Type
REMARK                         _______ _______ _______ _____ _____    ______ ____
ROOT
ATOM      1  C   UNL     1       1.608   3.146  20.171  0.00  0.00    +0.000 A 
ATOM      2  C   UNL     1       2.581   2.205  19.838  0.00  0.00    +0.000 A 
ATOM      3  C   UNL     1       3.514   2.482  18.836  0.00  0.00    +0.000 A 
ATOM      4  C   UNL     1       3.486   3.708  18.146  0.00  0.00    +0.000 A 
ATOM      5  C   UNL     1       2.492   4.648  18.473  0.00  0.00    +0.000 A 
ATOM      6  C   UNL     1       1.569   4.354  19.480  0.00  0.00    +0.000 A 
ENDROOT
BRANCH   4   7
ATOM      7  C   UNL     1       4.519   4.013  17.167  0.00  0.00    +0.000 A 
ATOM      8  C   UNL     1       4.564   4.034  15.799  0.00  0.00    +0.000 A 
ATOM      9  C   UNL     1       5.917   4.310  15.481  0.00  0.00    +0.000 A 
ATOM     10  N   UNL     1       6.640   4.469  16.595  0.00  0.00    +0.000 NA
ATOM     11  O   UNL     1       5.759   4.319  17.643  0.00  0.00    +0.000 OA
BRANCH   9  12
ATOM     12  C   UNL     1       6.511   4.415  14.158  0.00  0.00    +0.000 A 
ATOM     13  C   UNL     1       7.501   5.373  13.904  0.00  0.00    +0.000 A 
ATOM     14  C   UNL     1       8.084   5.461  12.641  0.00  0.00    +0.000 A 
ATOM     15  C   UNL     1       7.677   4.600  11.626  0.00  0.00    +0.000 A 
ATOM     16  C   UNL     1       6.684   3.653  11.864  0.00  0.00    +0.000 A 
ATOM     17  C   UNL     1       6.100   3.561  13.130  0.00  0.00    +0.000 A 
ENDBRANCH   9  12
ENDBRANCH   4   7
BRANCH   1  19
ATOM     18  C   UNL     1       1.384   2.311  22.381  0.00  0.00    +0.000 C 
ATOM     19  O   UNL     1       0.762   2.801  21.193  0.00  0.00    +0.000 OA
ENDBRANCH   1  19
BRANCH   5  20
ATOM     20  O   UNL     1       2.517   5.841  17.790  0.00  0.00    +0.000 OA
BRANCH  20  21
ATOM     21  C   UNL     1       2.911   6.982  18.538  0.00  0.00    +0.000 C 
BRANCH  21  22
ATOM     22  C   UNL     1       2.012   8.185  18.229  0.00  0.00    +0.000 C 
BRANCH  22  23
ATOM     23  N   UNL     1       1.699   8.968  19.443  0.00  0.00    +0.000 NA
ATOM     24  C   UNL     1       0.558   9.876  19.246  0.00  0.00    +0.000 C 
ATOM     25  C   UNL     1       0.293  10.720  20.491  0.00  0.00    +0.000 C 
ATOM     26  C   UNL     1       0.063   9.841  21.710  0.00  0.00    +0.000 C 
ATOM     27  C   UNL     1       1.206   8.845  21.868  0.00  0.00    +0.000 C 
ATOM     28  C   UNL     1       1.454   8.062  20.576  0.00  0.00    +0.000 C 
ENDBRANCH  22  23
ENDBRANCH  21  22
ENDBRANCH  20  21
ENDBRANCH   5  20
TORSDOF 7
ENDMDL
MODEL 8
REMARK VINA RESULT:      -7.0      3.290      8.824
REMARK  Name = 
REMARK  8 active torsions:
REMARK  status: ('A' for Active; 'I' for Inactive)
REMARK    1  A    between atoms: C_1  and  O_2
REMARK    2  A    between atoms: O_2  and  C_3
REMARK    3  A    between atoms: C_6  and  C_7
REMARK    4  A    between atoms: C_9  and  C_10
REMARK    5  A    between atoms: C_18  and  O_19
REMARK    6  A    between atoms: O_19  and  C_20
REMARK    7  A    between atoms: C_20  and  C_21
REMARK    8  A    between atoms: C_21  and  N_22
REMARK                            x       y       z     vdW  Elec       q    Type
REMARK                         _______ _______ _______ _____ _____    ______ ____
ROOT
ATOM      1  C   UNL     1      -0.597  10.828  22.566  0.00  0.00    +0.000 A 
ATOM      2  C   UNL     1      -0.170   9.661  23.198  0.00  0.00    +0.000 A 
ATOM      3  C   UNL     1       0.512   8.679  22.474  0.00  0.00    +0.000 A 
ATOM      4  C   UNL     1       0.772   8.847  21.101  0.00  0.00    +0.000 A 
ATOM      5  C   UNL     1       0.323  10.018  20.464  0.00  0.00    +0.000 A 
ATOM      6  C   UNL     1      -0.354  10.991  21.206  0.00  0.00    +0.000 A 
ENDROOT
BRANCH   4   7
ATOM      7  C   UNL     1       1.558   7.854  20.386  0.00  0.00    +0.000 A 
ATOM      8  C   UNL     1       2.336   7.880  19.259  0.00  0.00    +0.000 A 
ATOM      9  C   UNL     1       2.727   6.535  19.053  0.00  0.00    +0.000 A 
ATOM     10  N   UNL     1       2.232   5.746  20.013  0.00  0.00    +0.000 NA
ATOM     11  O   UNL     1       1.534   6.577  20.862  0.00  0.00    +0.000 OA
BRANCH   9  12
ATOM     12  C   UNL     1       3.544   6.007  17.971  0.00  0.00    +0.000 A 
ATOM     13  C   UNL     1       4.307   6.873  17.177  0.00  0.00    +0.000 A 
ATOM     14  C   UNL     1       5.104   6.366  16.152  0.00  0.00    +0.000 A 
ATOM     15  C   UNL     1       5.136   4.995  15.910  0.00  0.00    +0.000 A 
ATOM     16  C   UNL     1       4.371   4.127  16.684  0.00  0.00    +0.000 A 
ATOM     17  C   UNL     1       3.574   4.633  17.714  0.00  0.00    +0.000 A 
ENDBRANCH   9  12
ENDBRANCH   4   7
BRANCH   1  19
ATOM     18  C   UNL     1      -1.136  13.109  22.938  0.00  0.00    +0.000 C 
ATOM     19  O   UNL     1      -1.221  11.750  23.366  0.00  0.00    +0.000 OA
ENDBRANCH   1  19
BRANCH   5  20
ATOM     20  O   UNL     1       0.621  10.152  19.129  0.00  0.00    +0.000 OA
BRANCH  20  21
ATOM     21  C   UNL     1      -0.487  10.297  18.252  0.00  0.00    +0.000 C 
BRANCH  21  22
ATOM     22  C   UNL     1      -0.927  11.761  18.153  0.00  0.00    +0.000 C 
BRANCH  22  23
ATOM     23  N   UNL     1      -2.351  11.886  17.773  0.00  0.00    +0.000 NA
ATOM     24  C   UNL     1      -2.762  10.870  16.791  0.00  0.00    +0.000 C 
ATOM     25  C   UNL     1      -4.216  11.058  16.367  0.00  0.00    +0.000 C 
ATOM     26  C   UNL     1      -5.145  11.034  17.570  0.00  0.00    +0.000 C 
ATOM     27  C   UNL     1      -4.674  12.029  18.623  0.00  0.00    +0.000 C 
ATOM     28  C   UNL     1      -3.198  11.822  18.975  0.00  0.00    +0.000 C 
ENDBRANCH  22  23
ENDBRANCH  21  22
ENDBRANCH  20  21
ENDBRANCH   5  20
TORSDOF 7
ENDMDL
MODEL 9
REMARK VINA RESULT:      -6.9      3.077      8.705
REMARK  Name = 
REMARK  8 active torsions:
REMARK  status: ('A' for Active; 'I' for Inactive)
REMARK    1  A    between atoms: C_1  and  O_2
REMARK    2  A    between atoms: O_2  and  C_3
REMARK    3  A    between atoms: C_6  and  C_7
REMARK    4  A    between atoms: C_9  and  C_10
REMARK    5  A    between atoms: C_18  and  O_19
REMARK    6  A    between atoms: O_19  and  C_20
REMARK    7  A    between atoms: C_20  and  C_21
REMARK    8  A    between atoms: C_21  and  N_22
REMARK                            x       y       z     vdW  Elec       q    Type
REMARK                         _______ _______ _______ _____ _____    ______ ____
ROOT
ATOM      1  C   UNL     1      -0.433  10.759  22.526  0.00  0.00    +0.000 A 
ATOM      2  C   UNL     1      -0.118   9.539  23.123  0.00  0.00    +0.000 A 
ATOM      3  C   UNL     1       0.543   8.549  22.391  0.00  0.00    +0.000 A 
ATOM      4  C   UNL     1       0.896   8.762  21.046  0.00  0.00    +0.000 A 
ATOM      5  C   UNL     1       0.561   9.988  20.443  0.00  0.00    +0.000 A 
ATOM      6  C   UNL     1      -0.098  10.968  21.192  0.00  0.00    +0.000 A 
ENDROOT
BRANCH   4   7
ATOM      7  C   UNL     1       1.660   7.754  20.328  0.00  0.00    +0.000 A 
ATOM      8  C   UNL     1       2.454   7.770  19.212  0.00  0.00    +0.000 A 
ATOM      9  C   UNL     1       2.806   6.415  18.994  0.00  0.00    +0.000 A 
ATOM     10  N   UNL     1       2.274   5.631  19.939  0.00  0.00    +0.000 NA
ATOM     11  O   UNL     1       1.591   6.473  20.789  0.00  0.00    +0.000 OA
BRANCH   9  12
ATOM     12  C   UNL     1       3.620   5.875  17.916  0.00  0.00    +0.000 A 
ATOM     13  C   UNL     1       3.679   4.492  17.703  0.00  0.00    +0.000 A 
ATOM     14  C   UNL     1       4.443   3.976  16.658  0.00  0.00    +0.000 A 
ATOM     15  C   UNL     1       5.157   4.835  15.828  0.00  0.00    +0.000 A 
ATOM     16  C   UNL     1       5.116   6.211  16.040  0.00  0.00    +0.000 A 
ATOM     17  C   UNL     1       4.348   6.731  17.084  0.00  0.00    +0.000 A 
ENDBRANCH   9  12
ENDBRANCH   4   7
BRANCH   1  19
ATOM     18  C   UNL     1      -1.206  12.988  22.781  0.00  0.00    +0.000 C 
ATOM     19  O   UNL     1      -1.045  11.682  23.334  0.00  0.00    +0.000 OA
ENDBRANCH   1  19
BRANCH   5  20
ATOM     20  O   UNL     1       0.946  10.164  19.136  0.00  0.00    +0.000 OA
BRANCH  20  21
ATOM     21  C   UNL     1       0.085  10.954  18.329  0.00  0.00    +0.000 C 
BRANCH  21  22
ATOM     22  C   UNL     1      -1.054  10.112  17.745  0.00  0.00    +0.000 C 
BRANCH  22  23
ATOM     23  N   UNL     1      -2.368  10.494  18.305  0.00  0.00    +0.000 NA
ATOM     24  C   UNL     1      -2.419  11.912  18.699  0.00  0.00    +0.000 C 
ATOM     25  C   UNL     1      -3.762  12.268  19.332  0.00  0.00    +0.000 C 
ATOM     26  C   UNL     1      -4.914  11.938  18.397  0.00  0.00    +0.000 C 
ATOM     27  C   UNL     1      -4.816  10.493  17.925  0.00  0.00    +0.000 C 
ATOM     28  C   UNL     1      -3.435  10.182  17.342  0.00  0.00    +0.000 C 
ENDBRANCH  22  23
ENDBRANCH  21  22
ENDBRANCH  20  21
ENDBRANCH   5  20
TORSDOF 7
ENDMDL
