MODEL 1
REMARK VINA RESULT:      -7.9      0.000      0.000
REMARK  Name = 
REMARK  8 active torsions:
REMARK  status: ('A' for Active; 'I' for Inactive)
REMARK    1  A    between atoms: C_1  and  N_2
REMARK    2  A    between atoms: C_11  and  C_12
REMARK    3  A    between atoms: C_11  and  C_14
REMARK    4  A    between atoms: C_14  and  C_15
REMARK    5  A    between atoms: C_15  and  C_16
REMARK    6  A    between atoms: C_16  and  N_17
REMARK    7  A    between atoms: C_20  and  O_21
REMARK    8  A    between atoms: C_20  and  C_22
REMARK                            x       y       z     vdW  Elec       q    Type
REMARK                         _______ _______ _______ _____ _____    ______ ____
ROOT
ATOM      1  C   UNL     1       3.719   2.426  17.449  0.00  0.00    +0.000 C 
ATOM      2  N   UNL     1       4.441   3.690  17.550  0.00  0.00    +0.000 N 
ATOM      3  C   UNL     1       4.154   4.382  18.724  0.00  0.00    +0.000 C 
ATOM      4  O   UNL     1       4.012   3.838  19.819  0.00  0.00    +0.000 OA
ATOM      5  C   UNL     1       3.681   5.768  18.587  0.00  0.00    +0.000 A 
ATOM      6  C   UNL     1       2.399   6.028  19.102  0.00  0.00    +0.000 A 
ATOM      7  C   UNL     1       1.810   7.272  18.929  0.00  0.00    +0.000 A 
ATOM      8  C   UNL     1       2.490   8.247  18.215  0.00  0.00    +0.000 A 
ATOM      9  C   UNL     1       3.763   7.980  17.699  0.00  0.00    +0.000 A 
ATOM     10  C   UNL     1       4.417   6.749  17.923  0.00  0.00    +0.000 A 
ATOM     11  C   UNL     1       5.861   6.447  17.488  0.00  0.00    +0.000 C 
ATOM     12  C   UNL     1       5.843   5.420  16.323  0.00  0.00    +0.000 A 
ATOM     13  C   UNL     1       6.540   5.724  15.117  0.00  0.00    +0.000 A 
ATOM     14  C   UNL     1       6.745   4.782  14.107  0.00  0.00    +0.000 A 
ATOM     15  C   UNL     1       6.233   3.515  14.256  0.00  0.00    +0.000 A 
ATOM     16  C   UNL     1       5.467   3.214  15.381  0.00  0.00    +0.000 A 
ATOM     17  C   UNL     1       5.230   4.143  16.429  0.00  0.00    +0.000 A 
ENDROOT
BRANCH  11  18
ATOM     18  C   UNL     1       6.697   5.867  18.605  0.00  0.00    +0.000 C 
ATOM     19  N   UNL     1       7.311   5.374  19.454  0.00  0.00    +0.000 NA
ENDBRANCH  11  18
BRANCH  11  20
ATOM     20  C   UNL     1       6.611   7.779  17.102  0.00  0.00    +0.000 C 
BRANCH  20  21
ATOM     21  C   UNL     1       7.801   8.155  18.000  0.00  0.00    +0.000 C 
BRANCH  21  22
ATOM     22  C   UNL     1       8.463   9.427  17.474  0.00  0.00    +0.000 C 
BRANCH  22  23
ATOM     23  N   UNL     1       8.611  10.452  18.511  0.00  0.00    +0.000 NA
ATOM     24  C   UNL     1       9.193  11.659  17.904  0.00  0.00    +0.000 C 
ATOM     25  C   UNL     1       9.203  12.798  18.915  0.00  0.00    +0.000 C 
ATOM     26  C   UNL     1       9.974  12.414  20.193  0.00  0.00    +0.000 C 
ATOM     27  C   UNL     1       9.480  11.069  20.735  0.00  0.00    +0.000 C 
ATOM     28  C   UNL     1       9.452  10.007  19.636  0.00  0.00    +0.000 C 
BRANCH  26  29
ATOM     29  C   UNL     1       9.856  13.528  21.238  0.00  0.00    +0.000 A 
ATOM     30  C   UNL     1       9.042  13.354  22.376  0.00  0.00    +0.000 A 
ATOM     31  C   UNL     1       8.849  14.392  23.291  0.00  0.00    +0.000 A 
ATOM     32  C   UNL     1       9.476  15.616  23.089  0.00  0.00    +0.000 A 
ATOM     33 CL   UNL     1       9.206  16.911  24.187  0.00  0.00    +0.000 Cl
ATOM     34  C   UNL     1      10.319  15.800  21.999  0.00  0.00    +0.000 A 
ATOM     35  C   UNL     1      10.515  14.759  21.087  0.00  0.00    +0.000 A 
ENDBRANCH  26  29
BRANCH  26  36
ATOM     36  O   UNL     1      11.353  12.231  19.825  0.00  0.00    +0.000 OA
ATOM     37  H   UNL     1      11.852  12.978  20.195  0.00  0.00    +0.000 HD
ENDBRANCH  26  36
ENDBRANCH  22  23
ENDBRANCH  21  22
ENDBRANCH  20  21
ENDBRANCH  11  20
TORSDOF 7
ENDMDL
MODEL 2
REMARK VINA RESULT:      -7.5      6.254     10.959
REMARK  Name = 
REMARK  8 active torsions:
REMARK  status: ('A' for Active; 'I' for Inactive)
REMARK    1  A    between atoms: C_1  and  N_2
REMARK    2  A    between atoms: C_11  and  C_12
REMARK    3  A    between atoms: C_11  and  C_14
REMARK    4  A    between atoms: C_14  and  C_15
REMARK    5  A    between atoms: C_15  and  C_16
REMARK    6  A    between atoms: C_16  and  N_17
REMARK    7  A    between atoms: C_20  and  O_21
REMARK    8  A    between atoms: C_20  and  C_22
REMARK                            x       y       z     vdW  Elec       q    Type
REMARK                         _______ _______ _______ _____ _____    ______ ____
ROOT
ATOM      1  C   UNL     1      -1.380  15.963  19.530  0.00  0.00    +0.000 C 
ATOM      2  N   UNL     1      -0.935  14.672  20.040  0.00  0.00    +0.000 N 
ATOM      3  C   UNL     1      -0.278  13.910  19.076  0.00  0.00    +0.000 C 
ATOM      4  O   UNL     1       0.505  14.380  18.252  0.00  0.00    +0.000 OA
ATOM      5  C   UNL     1      -0.791  12.553  18.829  0.00  0.00    +0.000 A 
ATOM      6  C   UNL     1      -1.244  12.302  17.522  0.00  0.00    +0.000 A 
ATOM      7  C   UNL     1      -1.850  11.095  17.206  0.00  0.00    +0.000 A 
ATOM      8  C   UNL     1      -2.029  10.149  18.204  0.00  0.00    +0.000 A 
ATOM      9  C   UNL     1      -1.582  10.407  19.505  0.00  0.00    +0.000 A 
ATOM     10  C   UNL     1      -0.897  11.597  19.838  0.00  0.00    +0.000 A 
ATOM     11  C   UNL     1      -0.275  11.878  21.216  0.00  0.00    +0.000 C 
ATOM     12  C   UNL     1      -1.097  12.984  21.934  0.00  0.00    +0.000 A 
ATOM     13  C   UNL     1      -1.588  12.741  23.250  0.00  0.00    +0.000 A 
ATOM     14  C   UNL     1      -2.154  13.742  24.040  0.00  0.00    +0.000 A 
ATOM     15  C   UNL     1      -2.275  15.013  23.529  0.00  0.00    +0.000 A 
ATOM     16  C   UNL     1      -1.889  15.261  22.213  0.00  0.00    +0.000 A 
ATOM     17  C   UNL     1      -1.315  14.271  21.373  0.00  0.00    +0.000 A 
ENDROOT
BRANCH  11  18
ATOM     18  C   UNL     1       1.157  12.349  21.124  0.00  0.00    +0.000 C 
ATOM     19  N   UNL     1       2.238  12.749  21.018  0.00  0.00    +0.000 NA
ENDBRANCH  11  18
BRANCH  11  20
ATOM     20  C   UNL     1      -0.187  10.550  22.063  0.00  0.00    +0.000 C 
BRANCH  20  21
ATOM     21  C   UNL     1       1.108   9.740  21.893  0.00  0.00    +0.000 C 
BRANCH  21  22
ATOM     22  C   UNL     1       0.769   8.298  21.520  0.00  0.00    +0.000 C 
BRANCH  22  23
ATOM     23  N   UNL     1       1.747   7.713  20.598  0.00  0.00    +0.000 NA
ATOM     24  C   UNL     1       1.422   8.140  19.228  0.00  0.00    +0.000 C 
ATOM     25  C   UNL     1       2.515   7.688  18.269  0.00  0.00    +0.000 C 
ATOM     26  C   UNL     1       2.719   6.161  18.321  0.00  0.00    +0.000 C 
ATOM     27  C   UNL     1       2.892   5.692  19.769  0.00  0.00    +0.000 C 
ATOM     28  C   UNL     1       1.781   6.241  20.664  0.00  0.00    +0.000 C 
BRANCH  26  29
ATOM     29  C   UNL     1       3.907   5.755  17.445  0.00  0.00    +0.000 A 
ATOM     30  C   UNL     1       4.814   6.727  16.977  0.00  0.00    +0.000 A 
ATOM     31  C   UNL     1       5.849   6.388  16.101  0.00  0.00    +0.000 A 
ATOM     32  C   UNL     1       6.000   5.070  15.689  0.00  0.00    +0.000 A 
ATOM     33 CL   UNL     1       7.243   4.655  14.576  0.00  0.00    +0.000 Cl
ATOM     34  C   UNL     1       5.147   4.083  16.170  0.00  0.00    +0.000 A 
ATOM     35  C   UNL     1       4.115   4.422  17.049  0.00  0.00    +0.000 A 
ENDBRANCH  26  29
BRANCH  26  36
ATOM     36  O   UNL     1       1.513   5.549  17.828  0.00  0.00    +0.000 OA
ATOM     37  H   UNL     1       0.999   6.243  17.384  0.00  0.00    +0.000 HD
ENDBRANCH  26  36
ENDBRANCH  22  23
ENDBRANCH  21  22
ENDBRANCH  20  21
ENDBRANCH  11  20
TORSDOF 7
ENDMDL
MODEL 3
REMARK VINA RESULT:      -7.4      6.534     10.748
REMARK  Name = 
REMARK  8 active torsions:
REMARK  status: ('A' for Active; 'I' for Inactive)
REMARK    1  A    between atoms: C_1  and  N_2
REMARK    2  A    between atoms: C_11  and  C_12
REMARK    3  A    between atoms: C_11  and  C_14
REMARK    4  A    between atoms: C_14  and  C_15
REMARK    5  A    between atoms: C_15  and  C_16
REMARK    6  A    between atoms: C_16  and  N_17
REMARK    7  A    between atoms: C_20  and  O_21
REMARK    8  A    between atoms: C_20  and  C_22
REMARK                            x       y       z     vdW  Elec       q    Type
REMARK                         _______ _______ _______ _____ _____    ______ ____
ROOT
ATOM      1  C   UNL     1      -4.277  14.080  20.640  0.00  0.00    +0.000 C 
ATOM      2  N   UNL     1      -3.075  13.273  20.821  0.00  0.00    +0.000 N 
ATOM      3  C   UNL     1      -2.286  13.714  21.881  0.00  0.00    +0.000 C 
ATOM      4  O   UNL     1      -2.743  14.115  22.951  0.00  0.00    +0.000 OA
ATOM      5  C   UNL     1      -0.876  14.016  21.587  0.00  0.00    +0.000 A 
ATOM      6  C   UNL     1      -0.476  15.342  21.826  0.00  0.00    +0.000 A 
ATOM      7  C   UNL     1       0.799  15.765  21.480  0.00  0.00    +0.000 A 
ATOM      8  C   UNL     1       1.664  14.871  20.869  0.00  0.00    +0.000 A 
ATOM      9  C   UNL     1       1.257  13.554  20.628  0.00  0.00    +0.000 A 
ATOM     10  C   UNL     1      -0.007  13.076  21.035  0.00  0.00    +0.000 A 
ATOM     11  C   UNL     1      -0.458  11.611  20.910  0.00  0.00    +0.000 C 
ATOM     12  C   UNL     1      -1.554  11.503  19.814  0.00  0.00    +0.000 A 
ATOM     13  C   UNL     1      -1.390  10.561  18.757  0.00  0.00    +0.000 A 
ATOM     14  C   UNL     1      -2.409  10.257  17.854  0.00  0.00    +0.000 A 
ATOM     15  C   UNL     1      -3.616  10.906  17.959  0.00  0.00    +0.000 A 
ATOM     16  C   UNL     1      -3.777  11.900  18.923  0.00  0.00    +0.000 A 
ATOM     17  C   UNL     1      -2.765  12.244  19.857  0.00  0.00    +0.000 A 
ENDROOT
BRANCH  11  18
ATOM     18  C   UNL     1      -1.032  11.065  22.196  0.00  0.00    +0.000 C 
ATOM     19  N   UNL     1      -1.523  10.652  23.160  0.00  0.00    +0.000 NA
ENDBRANCH  11  18
BRANCH  11  20
ATOM     20  C   UNL     1       0.778  10.676  20.616  0.00  0.00    +0.000 C 
BRANCH  20  21
ATOM     21  C   UNL     1       1.247   9.807  21.794  0.00  0.00    +0.000 C 
BRANCH  21  22
ATOM     22  C   UNL     1       0.902   8.344  21.524  0.00  0.00    +0.000 C 
BRANCH  22  23
ATOM     23  N   UNL     1       1.829   7.713  20.581  0.00  0.00    +0.000 NA
ATOM     24  C   UNL     1       1.539   8.209  19.227  0.00  0.00    +0.000 C 
ATOM     25  C   UNL     1       2.592   7.704  18.250  0.00  0.00    +0.000 C 
ATOM     26  C   UNL     1       2.675   6.165  18.251  0.00  0.00    +0.000 C 
ATOM     27  C   UNL     1       2.811   5.637  19.683  0.00  0.00    +0.000 C 
ATOM     28  C   UNL     1       1.747   6.242  20.599  0.00  0.00    +0.000 C 
BRANCH  26  29
ATOM     29  C   UNL     1       3.827   5.695  17.359  0.00  0.00    +0.000 A 
ATOM     30  C   UNL     1       4.604   6.630  16.646  0.00  0.00    +0.000 A 
ATOM     31  C   UNL     1       5.598   6.215  15.756  0.00  0.00    +0.000 A 
ATOM     32  C   UNL     1       5.837   4.858  15.573  0.00  0.00    +0.000 A 
ATOM     33 CL   UNL     1       7.027   4.340  14.445  0.00  0.00    +0.000 Cl
ATOM     34  C   UNL     1       5.114   3.915  16.295  0.00  0.00    +0.000 A 
ATOM     35  C   UNL     1       4.124   4.332  17.189  0.00  0.00    +0.000 A 
ENDBRANCH  26  29
BRANCH  26  36
ATOM     36  O   UNL     1       1.424   5.667  17.743  0.00  0.00    +0.000 OA
ATOM     37  H   UNL     1       1.141   4.947  18.331  0.00  0.00    +0.000 HD
ENDBRANCH  26  36
ENDBRANCH  22  23
ENDBRANCH  21  22
ENDBRANCH  20  21
ENDBRANCH  11  20
TORSDOF 7
ENDMDL
MODEL 4
REMARK VINA RESULT:      -7.3      5.936     10.293
REMARK  Name = 
REMARK  8 active torsions:
REMARK  status: ('A' for Active; 'I' for Inactive)
REMARK    1  A    between atoms: C_1  and  N_2
REMARK    2  A    between atoms: C_11  and  C_12
REMARK    3  A    between atoms: C_11  and  C_14
REMARK    4  A    between atoms: C_14  and  C_15
REMARK    5  A    between atoms: C_15  and  C_16
REMARK    6  A    between atoms: C_16  and  N_17
REMARK    7  A    between atoms: C_20  and  O_21
REMARK    8  A    between atoms: C_20  and  C_22
REMARK                            x       y       z     vdW  Elec       q    Type
REMARK                         _______ _______ _______ _____ _____    ______ ____
ROOT
ATOM      1  C   UNL     1      -3.892  13.174  19.947  0.00  0.00    +0.000 C 
ATOM      2  N   UNL     1      -2.729  12.316  19.748  0.00  0.00    +0.000 N 
ATOM      3  C   UNL     1      -1.680  12.622  20.613  0.00  0.00    +0.000 C 
ATOM      4  O   UNL     1      -1.838  12.925  21.795  0.00  0.00    +0.000 OA
ATOM      5  C   UNL     1      -0.371  12.908  20.005  0.00  0.00    +0.000 A 
ATOM      6  C   UNL     1       0.149  14.190  20.256  0.00  0.00    +0.000 A 
ATOM      7  C   UNL     1       1.321  14.606  19.643  0.00  0.00    +0.000 A 
ATOM      8  C   UNL     1       1.959  13.751  18.757  0.00  0.00    +0.000 A 
ATOM      9  C   UNL     1       1.433  12.479  18.506  0.00  0.00    +0.000 A 
ATOM     10  C   UNL     1       0.282  12.002  19.171  0.00  0.00    +0.000 A 
ATOM     11  C   UNL     1      -0.266  10.572  19.029  0.00  0.00    +0.000 C 
ATOM     12  C   UNL     1      -1.602  10.610  18.237  0.00  0.00    +0.000 A 
ATOM     13  C   UNL     1      -1.754   9.776  17.091  0.00  0.00    +0.000 A 
ATOM     14  C   UNL     1      -2.979   9.598  16.447  0.00  0.00    +0.000 A 
ATOM     15  C   UNL     1      -4.085  10.270  16.908  0.00  0.00    +0.000 A 
ATOM     16  C   UNL     1      -3.949  11.165  17.969  0.00  0.00    +0.000 A 
ATOM     17  C   UNL     1      -2.722  11.381  18.648  0.00  0.00    +0.000 A 
ENDROOT
BRANCH  11  18
ATOM     18  C   UNL     1      -0.536   9.916  20.363  0.00  0.00    +0.000 C 
ATOM     19  N   UNL     1      -0.733   9.364  21.362  0.00  0.00    +0.000 NA
ENDBRANCH  11  18
BRANCH  11  20
ATOM     20  C   UNL     1       0.806   9.634  18.353  0.00  0.00    +0.000 C 
BRANCH  20  21
ATOM     21  C   UNL     1       1.852   9.029  19.303  0.00  0.00    +0.000 C 
BRANCH  21  22
ATOM     22  C   UNL     1       1.790   7.504  19.235  0.00  0.00    +0.000 C 
BRANCH  22  23
ATOM     23  N   UNL     1       2.629   6.956  18.166  0.00  0.00    +0.000 NA
ATOM     24  C   UNL     1       2.799   5.512  18.390  0.00  0.00    +0.000 C 
ATOM     25  C   UNL     1       3.523   4.883  17.207  0.00  0.00    +0.000 C 
ATOM     26  C   UNL     1       4.889   5.552  16.958  0.00  0.00    +0.000 C 
ATOM     27  C   UNL     1       4.736   7.075  16.890  0.00  0.00    +0.000 C 
ATOM     28  C   UNL     1       3.950   7.605  18.089  0.00  0.00    +0.000 C 
BRANCH  26  29
ATOM     29  C   UNL     1       5.533   4.987  15.688  0.00  0.00    +0.000 A 
ATOM     30  C   UNL     1       6.760   5.500  15.222  0.00  0.00    +0.000 A 
ATOM     31  C   UNL     1       7.315   5.062  14.017  0.00  0.00    +0.000 A 
ATOM     32  C   UNL     1       6.657   4.096  13.265  0.00  0.00    +0.000 A 
ATOM     33 CL   UNL     1       7.311   3.587  11.758  0.00  0.00    +0.000 Cl
ATOM     34  C   UNL     1       5.466   3.542  13.723  0.00  0.00    +0.000 A 
ATOM     35  C   UNL     1       4.915   3.977  14.931  0.00  0.00    +0.000 A 
ENDBRANCH  26  29
BRANCH  26  36
ATOM     36  O   UNL     1       5.721   5.270  18.098  0.00  0.00    +0.000 OA
ATOM     37  H   UNL     1       5.672   6.040  18.688  0.00  0.00    +0.000 HD
ENDBRANCH  26  36
ENDBRANCH  22  23
ENDBRANCH  21  22
ENDBRANCH  20  21
ENDBRANCH  11  20
TORSDOF 7
ENDMDL
MODEL 5
REMARK VINA RESULT:      -7.3      6.477     11.122
REMARK  Name = 
REMARK  8 active torsions:
REMARK  status: ('A' for Active; 'I' for Inactive)
REMARK    1  A    between atoms: C_1  and  N_2
REMARK    2  A    between atoms: C_11  and  C_12
REMARK    3  A    between atoms: C_11  and  C_14
REMARK    4  A    between atoms: C_14  and  C_15
REMARK    5  A    between atoms: C_15  and  C_16
REMARK    6  A    between atoms: C_16  and  N_17
REMARK    7  A    between atoms: C_20  and  O_21
REMARK    8  A    between atoms: C_20  and  C_22
REMARK                            x       y       z     vdW  Elec       q    Type
REMARK                         _______ _______ _______ _____ _____    ______ ____
ROOT
ATOM      1  C   UNL     1      -2.803  15.651  20.197  0.00  0.00    +0.000 C 
ATOM      2  N   UNL     1      -2.061  14.447  20.555  0.00  0.00    +0.000 N 
ATOM      3  C   UNL     1      -1.155  14.061  19.570  0.00  0.00    +0.000 C 
ATOM      4  O   UNL     1      -0.472  14.853  18.923  0.00  0.00    +0.000 OA
ATOM      5  C   UNL     1      -1.262  12.683  19.064  0.00  0.00    +0.000 A 
ATOM      6  C   UNL     1      -1.535  12.559  17.690  0.00  0.00    +0.000 A 
ATOM      7  C   UNL     1      -1.766  11.313  17.128  0.00  0.00    +0.000 A 
ATOM      8  C   UNL     1      -1.752  10.192  17.944  0.00  0.00    +0.000 A 
ATOM      9  C   UNL     1      -1.487  10.322  19.312  0.00  0.00    +0.000 A 
ATOM     10  C   UNL     1      -1.176  11.569  19.897  0.00  0.00    +0.000 A 
ATOM     11  C   UNL     1      -0.754  11.753  21.365  0.00  0.00    +0.000 C 
ATOM     12  C   UNL     1      -1.894  12.468  22.141  0.00  0.00    +0.000 A 
ATOM     13  C   UNL     1      -2.394  11.879  23.340  0.00  0.00    +0.000 A 
ATOM     14  C   UNL     1      -3.266  12.548  24.200  0.00  0.00    +0.000 A 
ATOM     15  C   UNL     1      -3.690  13.815  23.877  0.00  0.00    +0.000 A 
ATOM     16  C   UNL     1      -3.292  14.381  22.666  0.00  0.00    +0.000 A 
ATOM     17  C   UNL     1      -2.412  13.734  21.760  0.00  0.00    +0.000 A 
ENDROOT
BRANCH  11  18
ATOM     18  C   UNL     1       0.499  12.583  21.512  0.00  0.00    +0.000 C 
ATOM     19  N   UNL     1       1.428  13.261  21.646  0.00  0.00    +0.000 NA
ENDBRANCH  11  18
BRANCH  11  20
ATOM     20  C   UNL     1      -0.370  10.365  22.007  0.00  0.00    +0.000 C 
BRANCH  20  21
ATOM     21  C   UNL     1       1.001   9.802  21.599  0.00  0.00    +0.000 C 
BRANCH  21  22
ATOM     22  C   UNL     1       0.946   8.276  21.575  0.00  0.00    +0.000 C 
BRANCH  22  23
ATOM     23  N   UNL     1       1.869   7.697  20.595  0.00  0.00    +0.000 NA
ATOM     24  C   UNL     1       1.442   8.100  19.246  0.00  0.00    +0.000 C 
ATOM     25  C   UNL     1       2.473   7.657  18.218  0.00  0.00    +0.000 C 
ATOM     26  C   UNL     1       2.709   6.135  18.273  0.00  0.00    +0.000 C 
ATOM     27  C   UNL     1       2.992   5.687  19.711  0.00  0.00    +0.000 C 
ATOM     28  C   UNL     1       1.935   6.227  20.674  0.00  0.00    +0.000 C 
BRANCH  26  29
ATOM     29  C   UNL     1       3.842   5.739  17.320  0.00  0.00    +0.000 A 
ATOM     30  C   UNL     1       4.116   4.380  17.064  0.00  0.00    +0.000 A 
ATOM     31  C   UNL     1       5.202   3.999  16.272  0.00  0.00    +0.000 A 
ATOM     32  C   UNL     1       6.025   4.971  15.716  0.00  0.00    +0.000 A 
ATOM     33 CL   UNL     1       7.391   4.508  14.779  0.00  0.00    +0.000 Cl
ATOM     34  C   UNL     1       5.752   6.320  15.917  0.00  0.00    +0.000 A 
ATOM     35  C   UNL     1       4.662   6.700  16.705  0.00  0.00    +0.000 A 
ENDBRANCH  26  29
BRANCH  26  36
ATOM     36  O   UNL     1       1.485   5.494  17.872  0.00  0.00    +0.000 OA
ATOM     37  H   UNL     1       0.756   6.091  18.111  0.00  0.00    +0.000 HD
ENDBRANCH  26  36
ENDBRANCH  22  23
ENDBRANCH  21  22
ENDBRANCH  20  21
ENDBRANCH  11  20
TORSDOF 7
ENDMDL
MODEL 6
REMARK VINA RESULT:      -7.2      6.242     10.412
REMARK  Name = 
REMARK  8 active torsions:
REMARK  status: ('A' for Active; 'I' for Inactive)
REMARK    1  A    between atoms: C_1  and  N_2
REMARK    2  A    between atoms: C_11  and  C_12
REMARK    3  A    between atoms: C_11  and  C_14
REMARK    4  A    between atoms: C_14  and  C_15
REMARK    5  A    between atoms: C_15  and  C_16
REMARK    6  A    between atoms: C_16  and  N_17
REMARK    7  A    between atoms: C_20  and  O_21
REMARK    8  A    between atoms: C_20  and  C_22
REMARK                            x       y       z     vdW  Elec       q    Type
REMARK                         _______ _______ _______ _____ _____    ______ ____
ROOT
ATOM      1  C   UNL     1      -2.182  12.918  22.388  0.00  0.00    +0.000 C 
ATOM      2  N   UNL     1      -1.534  12.177  21.312  0.00  0.00    +0.000 N 
ATOM      3  C   UNL     1      -1.773  12.731  20.057  0.00  0.00    +0.000 C 
ATOM      4  O   UNL     1      -1.798  13.942  19.839  0.00  0.00    +0.000 OA
ATOM      5  C   UNL     1      -2.338  11.843  19.028  0.00  0.00    +0.000 A 
ATOM      6  C   UNL     1      -3.591  12.224  18.517  0.00  0.00    +0.000 A 
ATOM      7  C   UNL     1      -4.266  11.404  17.626  0.00  0.00    +0.000 A 
ATOM      8  C   UNL     1      -3.702  10.189  17.267  0.00  0.00    +0.000 A 
ATOM      9  C   UNL     1      -2.459   9.812  17.785  0.00  0.00    +0.000 A 
ATOM     10  C   UNL     1      -1.716  10.659  18.637  0.00  0.00    +0.000 A 
ATOM     11  C   UNL     1      -0.293  10.351  19.133  0.00  0.00    +0.000 C 
ATOM     12  C   UNL     1      -0.336  10.033  20.653  0.00  0.00    +0.000 A 
ATOM     13  C   UNL     1       0.248   8.823  21.127  0.00  0.00    +0.000 A 
ATOM     14  C   UNL     1       0.433   8.556  22.484  0.00  0.00    +0.000 A 
ATOM     15  C   UNL     1       0.012   9.478  23.413  0.00  0.00    +0.000 A 
ATOM     16  C   UNL     1      -0.648  10.629  22.985  0.00  0.00    +0.000 A 
ATOM     17  C   UNL     1      -0.861  10.936  21.616  0.00  0.00    +0.000 A 
ENDROOT
BRANCH  11  18
ATOM     18  C   UNL     1       0.659  11.507  18.928  0.00  0.00    +0.000 C 
ATOM     19  N   UNL     1       1.366  12.400  18.720  0.00  0.00    +0.000 NA
ENDBRANCH  11  18
BRANCH  11  20
ATOM     20  C   UNL     1       0.344   9.178  18.292  0.00  0.00    +0.000 C 
BRANCH  20  21
ATOM     21  C   UNL     1       1.873   9.223  18.143  0.00  0.00    +0.000 C 
BRANCH  21  22
ATOM     22  C   UNL     1       2.476   7.902  18.615  0.00  0.00    +0.000 C 
BRANCH  22  23
ATOM     23  N   UNL     1       3.219   7.215  17.555  0.00  0.00    +0.000 NA
ATOM     24  C   UNL     1       3.181   5.766  17.810  0.00  0.00    +0.000 C 
ATOM     25  C   UNL     1       3.798   5.014  16.639  0.00  0.00    +0.000 C 
ATOM     26  C   UNL     1       5.244   5.472  16.370  0.00  0.00    +0.000 C 
ATOM     27  C   UNL     1       5.313   7.000  16.269  0.00  0.00    +0.000 C 
ATOM     28  C   UNL     1       4.620   7.664  17.458  0.00  0.00    +0.000 C 
BRANCH  26  29
ATOM     29  C   UNL     1       5.791   4.793  15.111  0.00  0.00    +0.000 A 
ATOM     30  C   UNL     1       7.069   5.125  14.619  0.00  0.00    +0.000 A 
ATOM     31  C   UNL     1       7.545   4.585  13.422  0.00  0.00    +0.000 A 
ATOM     32  C   UNL     1       6.755   3.696  12.703  0.00  0.00    +0.000 A 
ATOM     33 CL   UNL     1       7.316   3.064  11.206  0.00  0.00    +0.000 Cl
ATOM     34  C   UNL     1       5.508   3.317  13.188  0.00  0.00    +0.000 A 
ATOM     35  C   UNL     1       5.035   3.854  14.388  0.00  0.00    +0.000 A 
ENDBRANCH  26  29
BRANCH  26  36
ATOM     36  O   UNL     1       6.034   5.097  17.513  0.00  0.00    +0.000 OA
ATOM     37  H   UNL     1       6.300   5.917  17.961  0.00  0.00    +0.000 HD
ENDBRANCH  26  36
ENDBRANCH  22  23
ENDBRANCH  21  22
ENDBRANCH  20  21
ENDBRANCH  11  20
TORSDOF 7
ENDMDL
MODEL 7
REMARK VINA RESULT:      -7.0      6.263      9.119
REMARK  Name = 
REMARK  8 active torsions:
REMARK  status: ('A' for Active; 'I' for Inactive)
REMARK    1  A    between atoms: C_1  and  N_2
REMARK    2  A    between atoms: C_11  and  C_12
REMARK    3  A    between atoms: C_11  and  C_14
REMARK    4  A    between atoms: C_14  and  C_15
REMARK    5  A    between atoms: C_15  and  C_16
REMARK    6  A    between atoms: C_16  and  N_17
REMARK    7  A    between atoms: C_20  and  O_21
REMARK    8  A    between atoms: C_20  and  C_22
REMARK                            x       y       z     vdW  Elec       q    Type
REMARK                         _______ _______ _______ _____ _____    ______ ____
ROOT
ATOM      1  C   UNL     1       4.151   1.194  18.311  0.00  0.00    +0.000 C 
ATOM      2  N   UNL     1       3.678   2.574  18.306  0.00  0.00    +0.000 N 
ATOM      3  C   UNL     1       3.905   3.217  17.091  0.00  0.00    +0.000 C 
ATOM      4  O   UNL     1       3.766   2.673  15.996  0.00  0.00    +0.000 OA
ATOM      5  C   UNL     1       4.650   4.485  17.132  0.00  0.00    +0.000 A 
ATOM      6  C   UNL     1       5.861   4.502  16.418  0.00  0.00    +0.000 A 
ATOM      7  C   UNL     1       6.698   5.607  16.478  0.00  0.00    +0.000 A 
ATOM      8  C   UNL     1       6.338   6.683  17.275  0.00  0.00    +0.000 A 
ATOM      9  C   UNL     1       5.135   6.657  17.989  0.00  0.00    +0.000 A 
ATOM     10  C   UNL     1       4.230   5.577  17.889  0.00  0.00    +0.000 A 
ATOM     11  C   UNL     1       2.841   5.551  18.548  0.00  0.00    +0.000 C 
ATOM     12  C   UNL     1       2.844   4.521  19.712  0.00  0.00    +0.000 A 
ATOM     13  C   UNL     1       2.416   4.934  21.007  0.00  0.00    +0.000 A 
ATOM     14  C   UNL     1       2.196   4.034  22.050  0.00  0.00    +0.000 A 
ATOM     15  C   UNL     1       2.425   2.695  21.842  0.00  0.00    +0.000 A 
ATOM     16  C   UNL     1       2.933   2.270  20.615  0.00  0.00    +0.000 A 
ATOM     17  C   UNL     1       3.177   3.152  19.530  0.00  0.00    +0.000 A 
ENDROOT
BRANCH  11  18
ATOM     18  C   UNL     1       1.744   5.160  17.586  0.00  0.00    +0.000 C 
ATOM     19  N   UNL     1       0.881   4.910  16.857  0.00  0.00    +0.000 NA
ENDBRANCH  11  18
BRANCH  11  20
ATOM     20  C   UNL     1       2.430   6.996  19.028  0.00  0.00    +0.000 C 
BRANCH  20  21
ATOM     21  C   UNL     1       1.798   7.897  17.955  0.00  0.00    +0.000 C 
BRANCH  21  22
ATOM     22  C   UNL     1       1.853   9.355  18.406  0.00  0.00    +0.000 C 
BRANCH  22  23
ATOM     23  N   UNL     1       0.528   9.893  18.727  0.00  0.00    +0.000 NA
ATOM     24  C   UNL     1      -0.334   9.768  17.542  0.00  0.00    +0.000 C 
ATOM     25  C   UNL     1      -1.763  10.162  17.893  0.00  0.00    +0.000 C 
ATOM     26  C   UNL     1      -1.833  11.593  18.459  0.00  0.00    +0.000 C 
ATOM     27  C   UNL     1      -0.813  11.774  19.588  0.00  0.00    +0.000 C 
ATOM     28  C   UNL     1       0.575  11.301  19.160  0.00  0.00    +0.000 C 
BRANCH  26  29
ATOM     29  C   UNL     1      -3.258  11.912  18.921  0.00  0.00    +0.000 A 
ATOM     30  C   UNL     1      -4.366  11.495  18.157  0.00  0.00    +0.000 A 
ATOM     31  C   UNL     1      -5.668  11.856  18.514  0.00  0.00    +0.000 A 
ATOM     32  C   UNL     1      -5.882  12.630  19.648  0.00  0.00    +0.000 A 
ATOM     33 CL   UNL     1      -7.477  13.116  20.067  0.00  0.00    +0.000 Cl
ATOM     34  C   UNL     1      -4.811  13.018  20.445  0.00  0.00    +0.000 A 
ATOM     35  C   UNL     1      -3.510  12.652  20.089  0.00  0.00    +0.000 A 
ENDBRANCH  26  29
BRANCH  26  36
ATOM     36  O   UNL     1      -1.447  12.493  17.404  0.00  0.00    +0.000 OA
ATOM     37  H   UNL     1      -1.111  11.950  16.671  0.00  0.00    +0.000 HD
ENDBRANCH  26  36
ENDBRANCH  22  23
ENDBRANCH  21  22
ENDBRANCH  20  21
ENDBRANCH  11  20
TORSDOF 7
ENDMDL
MODEL 8
REMARK VINA RESULT:      -7.0      6.210     10.202
REMARK  Name = 
REMARK  8 active torsions:
REMARK  status: ('A' for Active; 'I' for Inactive)
REMARK    1  A    between atoms: C_1  and  N_2
REMARK    2  A    between atoms: C_11  and  C_12
REMARK    3  A    between atoms: C_11  and  C_14
REMARK    4  A    between atoms: C_14  and  C_15
REMARK    5  A    between atoms: C_15  and  C_16
REMARK    6  A    between atoms: C_16  and  N_17
REMARK    7  A    between atoms: C_20  and  O_21
REMARK    8  A    between atoms: C_20  and  C_22
REMARK                            x       y       z     vdW  Elec       q    Type
REMARK                         _______ _______ _______ _____ _____    ______ ____
ROOT
ATOM      1  C   UNL     1      -2.178  12.574  21.834  0.00  0.00    +0.000 C 
ATOM      2  N   UNL     1      -1.261  11.958  20.882  0.00  0.00    +0.000 N 
ATOM      3  C   UNL     1      -1.362  12.507  19.605  0.00  0.00    +0.000 C 
ATOM      4  O   UNL     1      -1.519  13.708  19.390  0.00  0.00    +0.000 OA
ATOM      5  C   UNL     1      -1.617  11.577  18.493  0.00  0.00    +0.000 A 
ATOM      6  C   UNL     1      -2.807  11.796  17.778  0.00  0.00    +0.000 A 
ATOM      7  C   UNL     1      -3.202  10.915  16.783  0.00  0.00    +0.000 A 
ATOM      8  C   UNL     1      -2.422   9.798  16.522  0.00  0.00    +0.000 A 
ATOM      9  C   UNL     1      -1.242   9.582  17.242  0.00  0.00    +0.000 A 
ATOM     10  C   UNL     1      -0.778  10.500  18.209  0.00  0.00    +0.000 A 
ATOM     11  C   UNL     1       0.570  10.378  18.938  0.00  0.00    +0.000 C 
ATOM     12  C   UNL     1       0.318  10.017  20.428  0.00  0.00    +0.000 A 
ATOM     13  C   UNL     1       0.978   8.886  20.991  0.00  0.00    +0.000 A 
ATOM     14  C   UNL     1       0.968   8.611  22.359  0.00  0.00    +0.000 A 
ATOM     15  C   UNL     1       0.273   9.442  23.206  0.00  0.00    +0.000 A 
ATOM     16  C   UNL     1      -0.460  10.502  22.676  0.00  0.00    +0.000 A 
ATOM     17  C   UNL     1      -0.482  10.814  21.291  0.00  0.00    +0.000 A 
ENDROOT
BRANCH  11  18
ATOM     18  C   UNL     1       1.372  11.658  18.901  0.00  0.00    +0.000 C 
ATOM     19  N   UNL     1       2.005  12.627  18.924  0.00  0.00    +0.000 NA
ENDBRANCH  11  18
BRANCH  11  20
ATOM     20  C   UNL     1       1.496   9.326  18.215  0.00  0.00    +0.000 C 
BRANCH  20  21
ATOM     21  C   UNL     1       1.270   7.859  18.613  0.00  0.00    +0.000 C 
BRANCH  21  22
ATOM     22  C   UNL     1       2.607   7.205  18.954  0.00  0.00    +0.000 C 
BRANCH  22  23
ATOM     23  N   UNL     1       3.293   6.680  17.770  0.00  0.00    +0.000 NA
ATOM     24  C   UNL     1       3.476   5.229  17.932  0.00  0.00    +0.000 C 
ATOM     25  C   UNL     1       4.032   4.628  16.649  0.00  0.00    +0.000 C 
ATOM     26  C   UNL     1       5.361   5.293  16.240  0.00  0.00    +0.000 C 
ATOM     27  C   UNL     1       5.216   6.819  16.233  0.00  0.00    +0.000 C 
ATOM     28  C   UNL     1       4.599   7.321  17.538  0.00  0.00    +0.000 C 
BRANCH  26  29
ATOM     29  C   UNL     1       5.827   4.759  14.883  0.00  0.00    +0.000 A 
ATOM     30  C   UNL     1       4.987   3.924  14.119  0.00  0.00    +0.000 A 
ATOM     31  C   UNL     1       5.430   3.352  12.923  0.00  0.00    +0.000 A 
ATOM     32  C   UNL     1       6.716   3.616  12.467  0.00  0.00    +0.000 A 
ATOM     33 CL   UNL     1       7.283   2.879  11.021  0.00  0.00    +0.000 Cl
ATOM     34  C   UNL     1       7.551   4.471  13.179  0.00  0.00    +0.000 A 
ATOM     35  C   UNL     1       7.104   5.046  14.372  0.00  0.00    +0.000 A 
ENDBRANCH  26  29
BRANCH  26  36
ATOM     36  O   UNL     1       6.331   4.974  17.253  0.00  0.00    +0.000 OA
ATOM     37  H   UNL     1       5.959   5.253  18.106  0.00  0.00    +0.000 HD
ENDBRANCH  26  36
ENDBRANCH  22  23
ENDBRANCH  21  22
ENDBRANCH  20  21
ENDBRANCH  11  20
TORSDOF 7
ENDMDL
MODEL 9
REMARK VINA RESULT:      -7.0      9.039     12.585
REMARK  Name = 
REMARK  8 active torsions:
REMARK  status: ('A' for Active; 'I' for Inactive)
REMARK    1  A    between atoms: C_1  and  N_2
REMARK    2  A    between atoms: C_11  and  C_12
REMARK    3  A    between atoms: C_11  and  C_14
REMARK    4  A    between atoms: C_14  and  C_15
REMARK    5  A    between atoms: C_15  and  C_16
REMARK    6  A    between atoms: C_16  and  N_17
REMARK    7  A    between atoms: C_20  and  O_21
REMARK    8  A    between atoms: C_20  and  C_22
REMARK                            x       y       z     vdW  Elec       q    Type
REMARK                         _______ _______ _______ _____ _____    ______ ____
ROOT
ATOM      1  C   UNL     1      -7.917  11.899  23.243  0.00  0.00    +0.000 C 
ATOM      2  N   UNL     1      -6.659  12.393  22.693  0.00  0.00    +0.000 N 
ATOM      3  C   UNL     1      -5.937  13.160  23.605  0.00  0.00    +0.000 C 
ATOM      4  O   UNL     1      -5.847  12.890  24.802  0.00  0.00    +0.000 OA
ATOM      5  C   UNL     1      -5.543  14.512  23.181  0.00  0.00    +0.000 A 
ATOM      6  C   UNL     1      -6.049  15.566  23.961  0.00  0.00    +0.000 A 
ATOM      7  C   UNL     1      -5.833  16.885  23.588  0.00  0.00    +0.000 A 
ATOM      8  C   UNL     1      -5.134  17.149  22.420  0.00  0.00    +0.000 A 
ATOM      9  C   UNL     1      -4.639  16.096  21.644  0.00  0.00    +0.000 A 
ATOM     10  C   UNL     1      -4.781  14.747  22.037  0.00  0.00    +0.000 A 
ATOM     11  C   UNL     1      -4.149  13.559  21.292  0.00  0.00    +0.000 C 
ATOM     12  C   UNL     1      -5.268  12.738  20.593  0.00  0.00    +0.000 A 
ATOM     13  C   UNL     1      -5.159  12.459  19.200  0.00  0.00    +0.000 A 
ATOM     14  C   UNL     1      -6.005  11.566  18.541  0.00  0.00    +0.000 A 
ATOM     15  C   UNL     1      -7.007  10.944  19.248  0.00  0.00    +0.000 A 
ATOM     16  C   UNL     1      -7.198  11.266  20.591  0.00  0.00    +0.000 A 
ATOM     17  C   UNL     1      -6.365  12.173  21.297  0.00  0.00    +0.000 A 
ENDROOT
BRANCH  11  18
ATOM     18  C   UNL     1      -3.395  12.628  22.211  0.00  0.00    +0.000 C 
ATOM     19  N   UNL     1      -2.824  11.873  22.878  0.00  0.00    +0.000 NA
ENDBRANCH  11  18
BRANCH  11  20
ATOM     20  C   UNL     1      -3.053  14.064  20.276  0.00  0.00    +0.000 C 
BRANCH  20  21
ATOM     21  C   UNL     1      -1.601  13.984  20.773  0.00  0.00    +0.000 C 
BRANCH  21  22
ATOM     22  C   UNL     1      -0.671  13.678  19.601  0.00  0.00    +0.000 C 
BRANCH  22  23
ATOM     23  N   UNL     1      -0.182  12.297  19.619  0.00  0.00    +0.000 NA
ATOM     24  C   UNL     1       1.290  12.315  19.611  0.00  0.00    +0.000 C 
ATOM     25  C   UNL     1       1.829  10.903  19.799  0.00  0.00    +0.000 C 
ATOM     26  C   UNL     1       1.298   9.944  18.716  0.00  0.00    +0.000 C 
ATOM     27  C   UNL     1      -0.227  10.047  18.610  0.00  0.00    +0.000 C 
ATOM     28  C   UNL     1      -0.675  11.503  18.480  0.00  0.00    +0.000 C 
BRANCH  26  29
ATOM     29  C   UNL     1       1.753   8.511  19.008  0.00  0.00    +0.000 A 
ATOM     30  C   UNL     1       2.268   7.703  17.975  0.00  0.00    +0.000 A 
ATOM     31  C   UNL     1       2.601   6.364  18.202  0.00  0.00    +0.000 A 
ATOM     32  C   UNL     1       2.434   5.818  19.469  0.00  0.00    +0.000 A 
ATOM     33 CL   UNL     1       2.797   4.159  19.743  0.00  0.00    +0.000 Cl
ATOM     34  C   UNL     1       1.968   6.605  20.517  0.00  0.00    +0.000 A 
ATOM     35  C   UNL     1       1.641   7.944  20.289  0.00  0.00    +0.000 A 
ENDBRANCH  26  29
BRANCH  26  36
ATOM     36  O   UNL     1       1.832  10.382  17.454  0.00  0.00    +0.000 OA
ATOM     37  H   UNL     1       2.773  10.142  17.441  0.00  0.00    +0.000 HD
ENDBRANCH  26  36
ENDBRANCH  22  23
ENDBRANCH  21  22
ENDBRANCH  20  21
ENDBRANCH  11  20
TORSDOF 7
ENDMDL
