MODEL 1
REMARK VINA RESULT:      -8.2      0.000      0.000
REMARK  Name = 
REMARK  4 active torsions:
REMARK  status: ('A' for Active; 'I' for Inactive)
REMARK    1  A    between atoms: C_1  and  O_2
REMARK    2  A    between atoms: O_2  and  C_3
REMARK    3  A    between atoms: C_3  and  C_5
REMARK    4  A    between atoms: C_16  and  C_17
REMARK                            x       y       z     vdW  Elec       q    Type
REMARK                         _______ _______ _______ _____ _____    ______ ____
ROOT
ATOM      1  C   UNL     1       2.556   4.355  20.264  0.00  0.00    +0.000 A 
ATOM      2  C   UNL     1       1.861   5.553  20.387  0.00  0.00    +0.000 A 
ATOM      3  C   UNL     1       2.242   6.597  19.526  0.00  0.00    +0.000 A 
ATOM      4  C   UNL     1       3.281   6.361  18.623  0.00  0.00    +0.000 A 
ATOM      5  N   UNL     1       3.397   7.501  17.858  0.00  0.00    +0.000 N 
ATOM      6  C   UNL     1       2.559   8.491  18.300  0.00  0.00    +0.000 A 
ATOM      7  C   UNL     1       2.414   9.806  17.844  0.00  0.00    +0.000 A 
ATOM      8  C   UNL     1       1.453  10.601  18.470  0.00  0.00    +0.000 A 
ATOM      9  C   UNL     1       0.673  10.093  19.504  0.00  0.00    +0.000 A 
ATOM     10  C   UNL     1       0.833   8.772  19.947  0.00  0.00    +0.000 A 
ATOM     11  C   UNL     1       1.802   7.950  19.336  0.00  0.00    +0.000 A 
ATOM     12  C   UNL     1       3.980   5.149  18.562  0.00  0.00    +0.000 A 
ATOM     13  N   UNL     1       3.580   4.150  19.391  0.00  0.00    +0.000 NA
ATOM     14  H   UNL     1       4.024   7.605  17.075  0.00  0.00    +0.000 HD
ENDROOT
BRANCH  12  15
ATOM     15  C   UNL     1       5.088   4.873  17.637  0.00  0.00    +0.000 A 
ATOM     16  C   UNL     1       6.435   4.914  18.049  0.00  0.00    +0.000 A 
ATOM     17  C   UNL     1       7.484   4.741  17.143  0.00  0.00    +0.000 A 
ATOM     18  C   UNL     1       7.207   4.471  15.806  0.00  0.00    +0.000 A 
ATOM     19  C   UNL     1       5.883   4.361  15.391  0.00  0.00    +0.000 A 
ATOM     20 BR   UNL     1       5.506   3.939  13.586  0.00  0.00    +0.000 Br
ATOM     21  C   UNL     1       4.834   4.561  16.290  0.00  0.00    +0.000 A 
ENDBRANCH  12  15
BRANCH   1  22
ATOM     22  C   UNL     1       2.162   3.209  21.146  0.00  0.00    +0.000 C 
ATOM     23  O   UNL     1       2.201   3.243  22.367  0.00  0.00    +0.000 OA
BRANCH  22  25
ATOM     24  C   UNL     1       0.736   2.438  19.448  0.00  0.00    +0.000 C 
ATOM     25  O   UNL     1       1.763   2.148  20.395  0.00  0.00    +0.000 OA
ENDBRANCH  22  25
ENDBRANCH   1  22
TORSDOF 3
ENDMDL
MODEL 2
REMARK VINA RESULT:      -8.1      2.670      5.722
REMARK  Name = 
REMARK  4 active torsions:
REMARK  status: ('A' for Active; 'I' for Inactive)
REMARK    1  A    between atoms: C_1  and  O_2
REMARK    2  A    between atoms: O_2  and  C_3
REMARK    3  A    between atoms: C_3  and  C_5
REMARK    4  A    between atoms: C_16  and  C_17
REMARK                            x       y       z     vdW  Elec       q    Type
REMARK                         _______ _______ _______ _____ _____    ______ ____
ROOT
ATOM      1  C   UNL     1       2.671   4.018  20.080  0.00  0.00    +0.000 A 
ATOM      2  C   UNL     1       3.551   3.628  19.076  0.00  0.00    +0.000 A 
ATOM      3  C   UNL     1       3.946   4.618  18.160  0.00  0.00    +0.000 A 
ATOM      4  C   UNL     1       3.429   5.906  18.319  0.00  0.00    +0.000 A 
ATOM      5  N   UNL     1       4.028   6.686  17.355  0.00  0.00    +0.000 N 
ATOM      6  C   UNL     1       4.817   5.939  16.521  0.00  0.00    +0.000 A 
ATOM      7  C   UNL     1       5.543   6.331  15.390  0.00  0.00    +0.000 A 
ATOM      8  C   UNL     1       6.290   5.352  14.735  0.00  0.00    +0.000 A 
ATOM      9  C   UNL     1       6.308   4.040  15.200  0.00  0.00    +0.000 A 
ATOM     10  C   UNL     1       5.574   3.666  16.335  0.00  0.00    +0.000 A 
ATOM     11  C   UNL     1       4.805   4.635  17.010  0.00  0.00    +0.000 A 
ATOM     12  C   UNL     1       2.512   6.244  19.322  0.00  0.00    +0.000 A 
ATOM     13  N   UNL     1       2.162   5.274  20.206  0.00  0.00    +0.000 NA
ATOM     14  H   UNL     1       3.901   7.683  17.261  0.00  0.00    +0.000 HD
ENDROOT
BRANCH  12  15
ATOM     15  C   UNL     1       1.936   7.584  19.507  0.00  0.00    +0.000 A 
ATOM     16  C   UNL     1       1.927   8.543  18.476  0.00  0.00    +0.000 A 
ATOM     17  C   UNL     1       1.461   9.843  18.688  0.00  0.00    +0.000 A 
ATOM     18  C   UNL     1       0.943  10.198  19.929  0.00  0.00    +0.000 A 
ATOM     19  C   UNL     1       0.881   9.247  20.943  0.00  0.00    +0.000 A 
ATOM     20 BR   UNL     1       0.127   9.713  22.613  0.00  0.00    +0.000 Br
ATOM     21  C   UNL     1       1.372   7.955  20.740  0.00  0.00    +0.000 A 
ENDBRANCH  12  15
BRANCH   1  22
ATOM     22  C   UNL     1       2.248   2.997  21.091  0.00  0.00    +0.000 C 
ATOM     23  O   UNL     1       2.985   2.546  21.956  0.00  0.00    +0.000 OA
BRANCH  22  25
ATOM     24  C   UNL     1       0.592   2.370  19.550  0.00  0.00    +0.000 C 
ATOM     25  O   UNL     1       0.945   2.655  20.903  0.00  0.00    +0.000 OA
ENDBRANCH  22  25
ENDBRANCH   1  22
TORSDOF 3
ENDMDL
MODEL 3
REMARK VINA RESULT:      -8.0      3.999      5.789
REMARK  Name = 
REMARK  4 active torsions:
REMARK  status: ('A' for Active; 'I' for Inactive)
REMARK    1  A    between atoms: C_1  and  O_2
REMARK    2  A    between atoms: O_2  and  C_3
REMARK    3  A    between atoms: C_3  and  C_5
REMARK    4  A    between atoms: C_16  and  C_17
REMARK                            x       y       z     vdW  Elec       q    Type
REMARK                         _______ _______ _______ _____ _____    ______ ____
ROOT
ATOM      1  C   UNL     1       6.920   6.324  17.601  0.00  0.00    +0.000 A 
ATOM      2  C   UNL     1       5.945   5.832  18.462  0.00  0.00    +0.000 A 
ATOM      3  C   UNL     1       5.069   4.865  17.940  0.00  0.00    +0.000 A 
ATOM      4  C   UNL     1       5.236   4.474  16.610  0.00  0.00    +0.000 A 
ATOM      5  N   UNL     1       4.316   3.475  16.380  0.00  0.00    +0.000 N 
ATOM      6  C   UNL     1       3.498   3.286  17.463  0.00  0.00    +0.000 A 
ATOM      7  C   UNL     1       2.408   2.422  17.617  0.00  0.00    +0.000 A 
ATOM      8  C   UNL     1       1.761   2.417  18.854  0.00  0.00    +0.000 A 
ATOM      9  C   UNL     1       2.196   3.242  19.887  0.00  0.00    +0.000 A 
ATOM     10  C   UNL     1       3.291   4.101  19.714  0.00  0.00    +0.000 A 
ATOM     11  C   UNL     1       3.956   4.130  18.471  0.00  0.00    +0.000 A 
ATOM     12  C   UNL     1       6.208   5.027  15.767  0.00  0.00    +0.000 A 
ATOM     13  N   UNL     1       7.054   5.945  16.300  0.00  0.00    +0.000 NA
ATOM     14  H   UNL     1       4.240   2.950  15.522  0.00  0.00    +0.000 HD
ENDROOT
BRANCH  12  15
ATOM     15  C   UNL     1       6.400   4.651  14.358  0.00  0.00    +0.000 A 
ATOM     16  C   UNL     1       7.604   4.907  13.673  0.00  0.00    +0.000 A 
ATOM     17  C   UNL     1       7.744   4.630  12.310  0.00  0.00    +0.000 A 
ATOM     18  C   UNL     1       6.695   4.040  11.612  0.00  0.00    +0.000 A 
ATOM     19  C   UNL     1       5.520   3.719  12.285  0.00  0.00    +0.000 A 
ATOM     20 BR   UNL     1       4.114   2.867  11.350  0.00  0.00    +0.000 Br
ATOM     21  C   UNL     1       5.369   4.020  13.641  0.00  0.00    +0.000 A 
ENDBRANCH  12  15
BRANCH   1  22
ATOM     22  C   UNL     1       7.890   7.338  18.128  0.00  0.00    +0.000 C 
ATOM     23  O   UNL     1       8.600   7.159  19.107  0.00  0.00    +0.000 OA
BRANCH  22  25
ATOM     24  C   UNL     1       8.351   9.636  18.012  0.00  0.00    +0.000 C 
ATOM     25  O   UNL     1       7.859   8.464  17.366  0.00  0.00    +0.000 OA
ENDBRANCH  22  25
ENDBRANCH   1  22
TORSDOF 3
ENDMDL
MODEL 4
REMARK VINA RESULT:      -7.9      1.424      1.693
REMARK  Name = 
REMARK  4 active torsions:
REMARK  status: ('A' for Active; 'I' for Inactive)
REMARK    1  A    between atoms: C_1  and  O_2
REMARK    2  A    between atoms: O_2  and  C_3
REMARK    3  A    between atoms: C_3  and  C_5
REMARK    4  A    between atoms: C_16  and  C_17
REMARK                            x       y       z     vdW  Elec       q    Type
REMARK                         _______ _______ _______ _____ _____    ______ ____
ROOT
ATOM      1  C   UNL     1       3.825   3.792  19.782  0.00  0.00    +0.000 A 
ATOM      2  C   UNL     1       3.017   4.859  20.162  0.00  0.00    +0.000 A 
ATOM      3  C   UNL     1       2.994   5.972  19.305  0.00  0.00    +0.000 A 
ATOM      4  C   UNL     1       3.779   5.931  18.150  0.00  0.00    +0.000 A 
ATOM      5  N   UNL     1       3.516   7.094  17.461  0.00  0.00    +0.000 N 
ATOM      6  C   UNL     1       2.687   7.924  18.169  0.00  0.00    +0.000 A 
ATOM      7  C   UNL     1       2.231   9.209  17.857  0.00  0.00    +0.000 A 
ATOM      8  C   UNL     1       1.363   9.821  18.762  0.00  0.00    +0.000 A 
ATOM      9  C   UNL     1       0.971   9.166  19.926  0.00  0.00    +0.000 A 
ATOM     10  C   UNL     1       1.439   7.878  20.222  0.00  0.00    +0.000 A 
ATOM     11  C   UNL     1       2.322   7.241  19.328  0.00  0.00    +0.000 A 
ATOM     12  C   UNL     1       4.610   4.851  17.829  0.00  0.00    +0.000 A 
ATOM     13  N   UNL     1       4.599   3.779  18.663  0.00  0.00    +0.000 NA
ATOM     14  H   UNL     1       3.889   7.320  16.551  0.00  0.00    +0.000 HD
ENDROOT
BRANCH  12  15
ATOM     15  C   UNL     1       5.461   4.783  16.632  0.00  0.00    +0.000 A 
ATOM     16  C   UNL     1       6.788   5.256  16.629  0.00  0.00    +0.000 A 
ATOM     17  C   UNL     1       7.558   5.271  15.463  0.00  0.00    +0.000 A 
ATOM     18  C   UNL     1       7.032   4.763  14.279  0.00  0.00    +0.000 A 
ATOM     19  C   UNL     1       5.747   4.230  14.275  0.00  0.00    +0.000 A 
ATOM     20 BR   UNL     1       5.052   3.488  12.681  0.00  0.00    +0.000 Br
ATOM     21  C   UNL     1       4.966   4.239  15.434  0.00  0.00    +0.000 A 
ENDBRANCH  12  15
BRANCH   1  22
ATOM     22  C   UNL     1       3.855   2.576  20.656  0.00  0.00    +0.000 C 
ATOM     23  O   UNL     1       3.094   2.389  21.594  0.00  0.00    +0.000 OA
BRANCH  22  25
ATOM     24  C   UNL     1       5.453   0.984  21.306  0.00  0.00    +0.000 C 
ATOM     25  O   UNL     1       4.841   1.729  20.255  0.00  0.00    +0.000 OA
ENDBRANCH  22  25
ENDBRANCH   1  22
TORSDOF 3
ENDMDL
MODEL 5
REMARK VINA RESULT:      -7.8      2.684      5.825
REMARK  Name = 
REMARK  4 active torsions:
REMARK  status: ('A' for Active; 'I' for Inactive)
REMARK    1  A    between atoms: C_1  and  O_2
REMARK    2  A    between atoms: O_2  and  C_3
REMARK    3  A    between atoms: C_3  and  C_5
REMARK    4  A    between atoms: C_16  and  C_17
REMARK                            x       y       z     vdW  Elec       q    Type
REMARK                         _______ _______ _______ _____ _____    ______ ____
ROOT
ATOM      1  C   UNL     1       1.839   3.887  18.865  0.00  0.00    +0.000 A 
ATOM      2  C   UNL     1       2.880   3.473  18.040  0.00  0.00    +0.000 A 
ATOM      3  C   UNL     1       3.668   4.482  17.461  0.00  0.00    +0.000 A 
ATOM      4  C   UNL     1       3.351   5.812  17.747  0.00  0.00    +0.000 A 
ATOM      5  N   UNL     1       4.311   6.581  17.127  0.00  0.00    +0.000 N 
ATOM      6  C   UNL     1       5.160   5.815  16.371  0.00  0.00    +0.000 A 
ATOM      7  C   UNL     1       6.220   6.208  15.547  0.00  0.00    +0.000 A 
ATOM      8  C   UNL     1       6.942   5.201  14.905  0.00  0.00    +0.000 A 
ATOM      9  C   UNL     1       6.613   3.861  15.089  0.00  0.00    +0.000 A 
ATOM     10  C   UNL     1       5.546   3.488  15.920  0.00  0.00    +0.000 A 
ATOM     11  C   UNL     1       4.797   4.486  16.574  0.00  0.00    +0.000 A 
ATOM     12  C   UNL     1       2.267   6.184  18.551  0.00  0.00    +0.000 A 
ATOM     13  N   UNL     1       1.533   5.190  19.115  0.00  0.00    +0.000 NA
ATOM     14  H   UNL     1       4.383   7.584  17.207  0.00  0.00    +0.000 HD
ENDROOT
BRANCH  12  15
ATOM     15  C   UNL     1       1.896   7.573  18.858  0.00  0.00    +0.000 A 
ATOM     16  C   UNL     1       1.957   8.594  17.890  0.00  0.00    +0.000 A 
ATOM     17  C   UNL     1       1.690   9.927  18.214  0.00  0.00    +0.000 A 
ATOM     18  C   UNL     1       1.304  10.262  19.508  0.00  0.00    +0.000 A 
ATOM     19  C   UNL     1       1.174   9.258  20.464  0.00  0.00    +0.000 A 
ATOM     20 BR   UNL     1       0.596   9.703  22.208  0.00  0.00    +0.000 Br
ATOM     21  C   UNL     1       1.467   7.929  20.148  0.00  0.00    +0.000 A 
ENDBRANCH  12  15
BRANCH   1  22
ATOM     22  C   UNL     1       0.992   2.841  19.522  0.00  0.00    +0.000 C 
ATOM     23  O   UNL     1       0.395   1.964  18.914  0.00  0.00    +0.000 OA
BRANCH  22  25
ATOM     24  C   UNL     1       2.202   2.651  21.525  0.00  0.00    +0.000 C 
ATOM     25  O   UNL     1       0.987   3.014  20.871  0.00  0.00    +0.000 OA
ENDBRANCH  22  25
ENDBRANCH   1  22
TORSDOF 3
ENDMDL
MODEL 6
REMARK VINA RESULT:      -7.7      3.640      6.926
REMARK  Name = 
REMARK  4 active torsions:
REMARK  status: ('A' for Active; 'I' for Inactive)
REMARK    1  A    between atoms: C_1  and  O_2
REMARK    2  A    between atoms: O_2  and  C_3
REMARK    3  A    between atoms: C_3  and  C_5
REMARK    4  A    between atoms: C_16  and  C_17
REMARK                            x       y       z     vdW  Elec       q    Type
REMARK                         _______ _______ _______ _____ _____    ______ ____
ROOT
ATOM      1  C   UNL     1       4.547   6.465  17.279  0.00  0.00    +0.000 A 
ATOM      2  C   UNL     1       4.602   5.234  17.924  0.00  0.00    +0.000 A 
ATOM      3  C   UNL     1       3.668   5.015  18.950  0.00  0.00    +0.000 A 
ATOM      4  C   UNL     1       2.765   6.038  19.250  0.00  0.00    +0.000 A 
ATOM      5  N   UNL     1       1.925   5.542  20.222  0.00  0.00    +0.000 N 
ATOM      6  C   UNL     1       2.313   4.295  20.635  0.00  0.00    +0.000 A 
ATOM      7  C   UNL     1       1.773   3.478  21.635  0.00  0.00    +0.000 A 
ATOM      8  C   UNL     1       2.361   2.227  21.830  0.00  0.00    +0.000 A 
ATOM      9  C   UNL     1       3.439   1.818  21.050  0.00  0.00    +0.000 A 
ATOM     10  C   UNL     1       3.966   2.651  20.053  0.00  0.00    +0.000 A 
ATOM     11  C   UNL     1       3.396   3.923  19.841  0.00  0.00    +0.000 A 
ATOM     12  C   UNL     1       2.774   7.279  18.601  0.00  0.00    +0.000 A 
ATOM     13  N   UNL     1       3.673   7.458  17.599  0.00  0.00    +0.000 NA
ATOM     14  H   UNL     1       1.126   6.033  20.596  0.00  0.00    +0.000 HD
ENDROOT
BRANCH  12  15
ATOM     15  C   UNL     1       1.851   8.383  18.903  0.00  0.00    +0.000 A 
ATOM     16  C   UNL     1       1.398   9.272  17.909  0.00  0.00    +0.000 A 
ATOM     17  C   UNL     1       0.595  10.372  18.221  0.00  0.00    +0.000 A 
ATOM     18  C   UNL     1       0.182  10.578  19.534  0.00  0.00    +0.000 A 
ATOM     19  C   UNL     1       0.564   9.674  20.521  0.00  0.00    +0.000 A 
ATOM     20 BR   UNL     1      -0.041   9.921  22.295  0.00  0.00    +0.000 Br
ATOM     21  C   UNL     1       1.389   8.589  20.214  0.00  0.00    +0.000 A 
ENDBRANCH  12  15
BRANCH   1  22
ATOM     22  C   UNL     1       5.509   6.727  16.161  0.00  0.00    +0.000 C 
ATOM     23  O   UNL     1       5.171   7.047  15.030  0.00  0.00    +0.000 OA
BRANCH  22  25
ATOM     24  C   UNL     1       7.313   7.638  17.355  0.00  0.00    +0.000 C 
ATOM     25  O   UNL     1       6.789   6.556  16.587  0.00  0.00    +0.000 OA
ENDBRANCH  22  25
ENDBRANCH   1  22
TORSDOF 3
ENDMDL
MODEL 7
REMARK VINA RESULT:      -7.6      1.238      1.437
REMARK  Name = 
REMARK  4 active torsions:
REMARK  status: ('A' for Active; 'I' for Inactive)
REMARK    1  A    between atoms: C_1  and  O_2
REMARK    2  A    between atoms: O_2  and  C_3
REMARK    3  A    between atoms: C_3  and  C_5
REMARK    4  A    between atoms: C_16  and  C_17
REMARK                            x       y       z     vdW  Elec       q    Type
REMARK                         _______ _______ _______ _____ _____    ______ ____
ROOT
ATOM      1  C   UNL     1       3.845   3.774  19.504  0.00  0.00    +0.000 A 
ATOM      2  C   UNL     1       3.063   4.843  19.927  0.00  0.00    +0.000 A 
ATOM      3  C   UNL     1       3.065   5.990  19.114  0.00  0.00    +0.000 A 
ATOM      4  C   UNL     1       3.848   5.976  17.957  0.00  0.00    +0.000 A 
ATOM      5  N   UNL     1       3.611   7.171  17.314  0.00  0.00    +0.000 N 
ATOM      6  C   UNL     1       2.802   7.991  18.057  0.00  0.00    +0.000 A 
ATOM      7  C   UNL     1       2.376   9.297  17.796  0.00  0.00    +0.000 A 
ATOM      8  C   UNL     1       1.523   9.894  18.726  0.00  0.00    +0.000 A 
ATOM      9  C   UNL     1       1.117   9.203  19.863  0.00  0.00    +0.000 A 
ATOM     10  C   UNL     1       1.555   7.893  20.108  0.00  0.00    +0.000 A 
ATOM     11  C   UNL     1       2.423   7.271  19.188  0.00  0.00    +0.000 A 
ATOM     12  C   UNL     1       4.653   4.890  17.592  0.00  0.00    +0.000 A 
ATOM     13  N   UNL     1       4.618   3.787  18.384  0.00  0.00    +0.000 NA
ATOM     14  H   UNL     1       3.988   7.423  16.413  0.00  0.00    +0.000 HD
ENDROOT
BRANCH  12  15
ATOM     15  C   UNL     1       5.501   4.849  16.392  0.00  0.00    +0.000 A 
ATOM     16  C   UNL     1       6.795   5.407  16.371  0.00  0.00    +0.000 A 
ATOM     17  C   UNL     1       7.557   5.445  15.200  0.00  0.00    +0.000 A 
ATOM     18  C   UNL     1       7.060   4.877  14.031  0.00  0.00    +0.000 A 
ATOM     19  C   UNL     1       5.811   4.262  14.047  0.00  0.00    +0.000 A 
ATOM     20 BR   UNL     1       5.158   3.441  12.474  0.00  0.00    +0.000 Br
ATOM     21  C   UNL     1       5.037   4.248  15.210  0.00  0.00    +0.000 A 
ENDBRANCH  12  15
BRANCH   1  22
ATOM     22  C   UNL     1       3.849   2.524  20.330  0.00  0.00    +0.000 C 
ATOM     23  O   UNL     1       4.850   2.050  20.848  0.00  0.00    +0.000 OA
BRANCH  22  25
ATOM     24  C   UNL     1       1.824   2.113  19.216  0.00  0.00    +0.000 C 
ATOM     25  O   UNL     1       2.594   2.007  20.412  0.00  0.00    +0.000 OA
ENDBRANCH  22  25
ENDBRANCH   1  22
TORSDOF 3
ENDMDL
MODEL 8
REMARK VINA RESULT:      -7.6      4.167      6.922
REMARK  Name = 
REMARK  4 active torsions:
REMARK  status: ('A' for Active; 'I' for Inactive)
REMARK    1  A    between atoms: C_1  and  O_2
REMARK    2  A    between atoms: O_2  and  C_3
REMARK    3  A    between atoms: C_3  and  C_5
REMARK    4  A    between atoms: C_16  and  C_17
REMARK                            x       y       z     vdW  Elec       q    Type
REMARK                         _______ _______ _______ _____ _____    ______ ____
ROOT
ATOM      1  C   UNL     1       6.939   5.372  18.232  0.00  0.00    +0.000 A 
ATOM      2  C   UNL     1       7.405   5.293  16.925  0.00  0.00    +0.000 A 
ATOM      3  C   UNL     1       6.523   4.762  15.969  0.00  0.00    +0.000 A 
ATOM      4  C   UNL     1       5.258   4.352  16.396  0.00  0.00    +0.000 A 
ATOM      5  N   UNL     1       4.578   3.952  15.266  0.00  0.00    +0.000 N 
ATOM      6  C   UNL     1       5.382   3.984  14.157  0.00  0.00    +0.000 A 
ATOM      7  C   UNL     1       5.101   3.602  12.840  0.00  0.00    +0.000 A 
ATOM      8  C   UNL     1       6.112   3.767  11.893  0.00  0.00    +0.000 A 
ATOM      9  C   UNL     1       7.348   4.295  12.256  0.00  0.00    +0.000 A 
ATOM     10  C   UNL     1       7.611   4.671  13.581  0.00  0.00    +0.000 A 
ATOM     11  C   UNL     1       6.608   4.508  14.558  0.00  0.00    +0.000 A 
ATOM     12  C   UNL     1       4.845   4.412  17.732  0.00  0.00    +0.000 A 
ATOM     13  N   UNL     1       5.709   4.947  18.633  0.00  0.00    +0.000 NA
ATOM     14  H   UNL     1       3.612   3.662  15.249  0.00  0.00    +0.000 HD
ENDROOT
BRANCH  12  15
ATOM     15  C   UNL     1       3.529   3.973  18.218  0.00  0.00    +0.000 A 
ATOM     16  C   UNL     1       2.391   3.963  17.388  0.00  0.00    +0.000 A 
ATOM     17  C   UNL     1       1.126   3.632  17.882  0.00  0.00    +0.000 A 
ATOM     18  C   UNL     1       0.981   3.252  19.213  0.00  0.00    +0.000 A 
ATOM     19  C   UNL     1       2.103   3.192  20.034  0.00  0.00    +0.000 A 
ATOM     20 BR   UNL     1       1.915   2.624  21.827  0.00  0.00    +0.000 Br
ATOM     21  C   UNL     1       3.363   3.549  19.547  0.00  0.00    +0.000 A 
ENDBRANCH  12  15
BRANCH   1  22
ATOM     22  C   UNL     1       7.840   5.957  19.277  0.00  0.00    +0.000 C 
ATOM     23  O   UNL     1       7.929   5.530  20.419  0.00  0.00    +0.000 OA
BRANCH  22  25
ATOM     24  C   UNL     1       7.732   7.960  18.056  0.00  0.00    +0.000 C 
ATOM     25  O   UNL     1       8.528   7.015  18.770  0.00  0.00    +0.000 OA
ENDBRANCH  22  25
ENDBRANCH   1  22
TORSDOF 3
ENDMDL
MODEL 9
REMARK VINA RESULT:      -7.5      3.608      6.843
REMARK  Name = 
REMARK  4 active torsions:
REMARK  status: ('A' for Active; 'I' for Inactive)
REMARK    1  A    between atoms: C_1  and  O_2
REMARK    2  A    between atoms: O_2  and  C_3
REMARK    3  A    between atoms: C_3  and  C_5
REMARK    4  A    between atoms: C_16  and  C_17
REMARK                            x       y       z     vdW  Elec       q    Type
REMARK                         _______ _______ _______ _____ _____    ______ ____
ROOT
ATOM      1  C   UNL     1       4.647   6.541  17.488  0.00  0.00    +0.000 A 
ATOM      2  C   UNL     1       4.663   5.305  18.125  0.00  0.00    +0.000 A 
ATOM      3  C   UNL     1       3.646   5.063  19.063  0.00  0.00    +0.000 A 
ATOM      4  C   UNL     1       2.705   6.071  19.290  0.00  0.00    +0.000 A 
ATOM      5  N   UNL     1       1.790   5.553  20.180  0.00  0.00    +0.000 N 
ATOM      6  C   UNL     1       2.159   4.308  20.615  0.00  0.00    +0.000 A 
ATOM      7  C   UNL     1       1.546   3.474  21.557  0.00  0.00    +0.000 A 
ATOM      8  C   UNL     1       2.132   2.230  21.793  0.00  0.00    +0.000 A 
ATOM      9  C   UNL     1       3.281   1.844  21.109  0.00  0.00    +0.000 A 
ATOM     10  C   UNL     1       3.882   2.694  20.169  0.00  0.00    +0.000 A 
ATOM     11  C   UNL     1       3.313   3.959  19.918  0.00  0.00    +0.000 A 
ATOM     12  C   UNL     1       2.752   7.317  18.654  0.00  0.00    +0.000 A 
ATOM     13  N   UNL     1       3.733   7.519  17.738  0.00  0.00    +0.000 NA
ATOM     14  H   UNL     1       0.954   6.029  20.485  0.00  0.00    +0.000 HD
ENDROOT
BRANCH  12  15
ATOM     15  C   UNL     1       1.789   8.405  18.882  0.00  0.00    +0.000 A 
ATOM     16  C   UNL     1       1.286   9.192  17.828  0.00  0.00    +0.000 A 
ATOM     17  C   UNL     1       0.444  10.281  18.064  0.00  0.00    +0.000 A 
ATOM     18  C   UNL     1       0.042  10.577  19.363  0.00  0.00    +0.000 A 
ATOM     19  C   UNL     1       0.474   9.771  20.413  0.00  0.00    +0.000 A 
ATOM     20 BR   UNL     1      -0.116  10.138  22.172  0.00  0.00    +0.000 Br
ATOM     21  C   UNL     1       1.338   8.699  20.180  0.00  0.00    +0.000 A 
ENDBRANCH  12  15
BRANCH   1  22
ATOM     22  C   UNL     1       5.700   6.828  16.461  0.00  0.00    +0.000 C 
ATOM     23  O   UNL     1       6.761   7.384  16.708  0.00  0.00    +0.000 OA
BRANCH  22  25
ATOM     24  C   UNL     1       5.950   5.192  14.796  0.00  0.00    +0.000 C 
ATOM     25  O   UNL     1       5.303   6.384  15.238  0.00  0.00    +0.000 OA
ENDBRANCH  22  25
ENDBRANCH   1  22
TORSDOF 3
ENDMDL
