MODEL 1
REMARK VINA RESULT:      -6.6      0.000      0.000
REMARK  Name = 
REMARK  8 active torsions:
REMARK  status: ('A' for Active; 'I' for Inactive)
REMARK    1  A    between atoms: C_1  and  C_2
REMARK    2  A    between atoms: C_2  and  C_3
REMARK    3  A    between atoms: C_2  and  C_4
REMARK    4  A    between atoms: C_7  and  C_8
REMARK    5  A    between atoms: C_9  and  C_10
REMARK    6  A    between atoms: C_12  and  N_13
REMARK    7  A    between atoms: C_14  and  C_15
REMARK    8  A    between atoms: C_20  and  C_21
REMARK                            x       y       z     vdW  Elec       q    Type
REMARK                         _______ _______ _______ _____ _____    ______ ____
ROOT
ATOM      1  C   UNL     1      -3.689  12.537  19.955  0.00  0.00    +0.000 A 
ATOM      2  C   UNL     1      -4.780  12.769  19.058  0.00  0.00    +0.000 A 
ATOM      3  C   UNL     1      -4.952  12.033  17.854  0.00  0.00    +0.000 A 
ATOM      4  C   UNL     1      -3.860  11.291  17.382  0.00  0.00    +0.000 A 
ATOM      5  C   UNL     1      -2.732  11.131  18.181  0.00  0.00    +0.000 A 
ATOM      6  C   UNL     1      -2.692  11.657  19.483  0.00  0.00    +0.000 A 
ATOM      7  S   UNL     1      -1.244  11.008  20.316  0.00  0.00    +0.000 S 
ATOM      8  C   UNL     1      -0.386  10.690  18.742  0.00  0.00    +0.000 C 
ATOM      9  C   UNL     1      -1.508  10.345  17.758  0.00  0.00    +0.000 C 
ENDROOT
BRANCH   1  13
ATOM     10  C   UNL     1      -3.328  14.508  23.824  0.00  0.00    +0.000 A 
ATOM     11  C   UNL     1      -2.807  15.085  22.667  0.00  0.00    +0.000 A 
ATOM     12  C   UNL     1      -3.005  14.485  21.422  0.00  0.00    +0.000 A 
ATOM     13  C   UNL     1      -3.619  13.227  21.282  0.00  0.00    +0.000 A 
ATOM     14  C   UNL     1      -4.113  12.650  22.464  0.00  0.00    +0.000 A 
ATOM     15  C   UNL     1      -4.003  13.292  23.706  0.00  0.00    +0.000 A 
BRANCH  10  17
ATOM     16  C   UNL     1      -1.768  15.358  25.536  0.00  0.00    +0.000 C 
ATOM     17  C   UNL     1      -3.239  15.288  25.119  0.00  0.00    +0.000 C 
ATOM     18  C   UNL     1      -3.863  16.682  25.066  0.00  0.00    +0.000 C 
ENDBRANCH  10  17
ENDBRANCH   1  13
BRANCH   8  19
ATOM     19  C   UNL     1       0.720   9.666  18.839  0.00  0.00    +0.000 A 
ATOM     20  C   UNL     1       1.532   9.341  17.741  0.00  0.00    +0.000 A 
ATOM     21  C   UNL     1       2.477   8.317  17.830  0.00  0.00    +0.000 A 
ATOM     22  C   UNL     1       2.629   7.608  19.017  0.00  0.00    +0.000 A 
ATOM     23  C   UNL     1       1.872   7.953  20.133  0.00  0.00    +0.000 A 
ATOM     24  C   UNL     1       0.930   8.981  20.047  0.00  0.00    +0.000 A 
ENDBRANCH   8  19
BRANCH   3  25
ATOM     25  N   UNL     1      -6.093  12.225  17.042  0.00  0.00    +0.000 N 
ATOM     26  H   UNL     1      -6.095  11.717  16.158  0.00  0.00    +0.000 HD
ATOM     27  H   UNL     1      -6.365  13.197  16.891  0.00  0.00    +0.000 HD
ENDBRANCH   3  25
BRANCH   2  28
ATOM     28  C   UNL     1      -5.758  13.799  19.313  0.00  0.00    +0.000 C 
ATOM     29  N   UNL     1      -6.549  14.638  19.446  0.00  0.00    +0.000 NA
ENDBRANCH   2  28
BRANCH   4  30
ATOM     30  C   UNL     1      -3.902  10.676  16.085  0.00  0.00    +0.000 C 
ATOM     31  N   UNL     1      -3.918  10.189  15.038  0.00  0.00    +0.000 NA
ENDBRANCH   4  30
TORSDOF 6
ENDMDL
MODEL 2
REMARK VINA RESULT:      -6.2      3.129      4.647
REMARK  Name = 
REMARK  8 active torsions:
REMARK  status: ('A' for Active; 'I' for Inactive)
REMARK    1  A    between atoms: C_1  and  C_2
REMARK    2  A    between atoms: C_2  and  C_3
REMARK    3  A    between atoms: C_2  and  C_4
REMARK    4  A    between atoms: C_7  and  C_8
REMARK    5  A    between atoms: C_9  and  C_10
REMARK    6  A    between atoms: C_12  and  N_13
REMARK    7  A    between atoms: C_14  and  C_15
REMARK    8  A    between atoms: C_20  and  C_21
REMARK                            x       y       z     vdW  Elec       q    Type
REMARK                         _______ _______ _______ _____ _____    ______ ____
ROOT
ATOM      1  C   UNL     1      -2.004  13.418  20.179  0.00  0.00    +0.000 A 
ATOM      2  C   UNL     1      -1.635  14.801  20.188  0.00  0.00    +0.000 A 
ATOM      3  C   UNL     1      -0.368  15.258  19.731  0.00  0.00    +0.000 A 
ATOM      4  C   UNL     1       0.649  14.307  19.570  0.00  0.00    +0.000 A 
ATOM      5  C   UNL     1       0.353  12.950  19.661  0.00  0.00    +0.000 A 
ATOM      6  C   UNL     1      -0.969  12.515  19.858  0.00  0.00    +0.000 A 
ATOM      7  S   UNL     1      -1.026  10.740  19.618  0.00  0.00    +0.000 S 
ATOM      8  C   UNL     1       0.745  10.554  20.001  0.00  0.00    +0.000 C 
ATOM      9  C   UNL     1       1.383  11.853  19.498  0.00  0.00    +0.000 C 
ENDROOT
BRANCH   1  13
ATOM     10  C   UNL     1      -6.106  12.308  21.143  0.00  0.00    +0.000 A 
ATOM     11  C   UNL     1      -5.664  12.367  19.823  0.00  0.00    +0.000 A 
ATOM     12  C   UNL     1      -4.326  12.640  19.532  0.00  0.00    +0.000 A 
ATOM     13  C   UNL     1      -3.395  12.987  20.529  0.00  0.00    +0.000 A 
ATOM     14  C   UNL     1      -3.869  12.949  21.850  0.00  0.00    +0.000 A 
ATOM     15  C   UNL     1      -5.186  12.582  22.157  0.00  0.00    +0.000 A 
BRANCH  10  17
ATOM     16  C   UNL     1      -7.705  10.477  20.728  0.00  0.00    +0.000 C 
ATOM     17  C   UNL     1      -7.520  11.835  21.407  0.00  0.00    +0.000 C 
ATOM     18  C   UNL     1      -7.904  11.769  22.885  0.00  0.00    +0.000 C 
ENDBRANCH  10  17
ENDBRANCH   1  13
BRANCH   8  19
ATOM     19  C   UNL     1       1.362   9.285  19.462  0.00  0.00    +0.000 A 
ATOM     20  C   UNL     1       1.559   8.153  20.269  0.00  0.00    +0.000 A 
ATOM     21  C   UNL     1       2.226   7.030  19.773  0.00  0.00    +0.000 A 
ATOM     22  C   UNL     1       2.699   7.020  18.464  0.00  0.00    +0.000 A 
ATOM     23  C   UNL     1       2.464   8.112  17.633  0.00  0.00    +0.000 A 
ATOM     24  C   UNL     1       1.792   9.233  18.126  0.00  0.00    +0.000 A 
ENDBRANCH   8  19
BRANCH   3  25
ATOM     25  N   UNL     1      -0.076  16.640  19.667  0.00  0.00    +0.000 N 
ATOM     26  H   UNL     1       0.468  16.937  18.857  0.00  0.00    +0.000 HD
ATOM     27  H   UNL     1       0.310  17.047  20.519  0.00  0.00    +0.000 HD
ENDBRANCH   3  25
BRANCH   2  28
ATOM     28  C   UNL     1      -2.524  15.814  20.701  0.00  0.00    +0.000 C 
ATOM     29  N   UNL     1      -3.210  16.676  21.066  0.00  0.00    +0.000 NA
ENDBRANCH   2  28
BRANCH   4  30
ATOM     30  C   UNL     1       1.996  14.720  19.291  0.00  0.00    +0.000 C 
ATOM     31  N   UNL     1       3.078  15.042  19.051  0.00  0.00    +0.000 NA
ENDBRANCH   4  30
TORSDOF 6
ENDMDL
MODEL 3
REMARK VINA RESULT:      -6.1      3.152      4.303
REMARK  Name = 
REMARK  8 active torsions:
REMARK  status: ('A' for Active; 'I' for Inactive)
REMARK    1  A    between atoms: C_1  and  C_2
REMARK    2  A    between atoms: C_2  and  C_3
REMARK    3  A    between atoms: C_2  and  C_4
REMARK    4  A    between atoms: C_7  and  C_8
REMARK    5  A    between atoms: C_9  and  C_10
REMARK    6  A    between atoms: C_12  and  N_13
REMARK    7  A    between atoms: C_14  and  C_15
REMARK    8  A    between atoms: C_20  and  C_21
REMARK                            x       y       z     vdW  Elec       q    Type
REMARK                         _______ _______ _______ _____ _____    ______ ____
ROOT
ATOM      1  C   UNL     1      -1.694  13.662  20.388  0.00  0.00    +0.000 A 
ATOM      2  C   UNL     1      -1.329  15.022  20.129  0.00  0.00    +0.000 A 
ATOM      3  C   UNL     1      -0.196  15.375  19.346  0.00  0.00    +0.000 A 
ATOM      4  C   UNL     1       0.758  14.379  19.094  0.00  0.00    +0.000 A 
ATOM      5  C   UNL     1       0.487  13.056  19.429  0.00  0.00    +0.000 A 
ATOM      6  C   UNL     1      -0.759  12.692  19.970  0.00  0.00    +0.000 A 
ATOM      7  S   UNL     1      -0.871  10.904  19.990  0.00  0.00    +0.000 S 
ATOM      8  C   UNL     1       0.941  10.713  19.993  0.00  0.00    +0.000 C 
ATOM      9  C   UNL     1       1.452  11.914  19.191  0.00  0.00    +0.000 C 
ENDROOT
BRANCH   1  13
ATOM     10  C   UNL     1      -5.467  12.833  22.403  0.00  0.00    +0.000 A 
ATOM     11  C   UNL     1      -5.395  12.933  21.015  0.00  0.00    +0.000 A 
ATOM     12  C   UNL     1      -4.167  13.114  20.377  0.00  0.00    +0.000 A 
ATOM     13  C   UNL     1      -2.973  13.325  21.091  0.00  0.00    +0.000 A 
ATOM     14  C   UNL     1      -3.072  13.247  22.490  0.00  0.00    +0.000 A 
ATOM     15  C   UNL     1      -4.286  12.970  23.134  0.00  0.00    +0.000 A 
BRANCH  10  17
ATOM     16  C   UNL     1      -7.190  13.567  24.009  0.00  0.00    +0.000 C 
ATOM     17  C   UNL     1      -6.795  12.460  23.029  0.00  0.00    +0.000 C 
ATOM     18  C   UNL     1      -7.916  12.186  22.027  0.00  0.00    +0.000 C 
ENDBRANCH  10  17
ENDBRANCH   1  13
BRANCH   8  19
ATOM     19  C   UNL     1       1.419   9.366  19.506  0.00  0.00    +0.000 A 
ATOM     20  C   UNL     1       1.571   8.272  20.375  0.00  0.00    +0.000 A 
ATOM     21  C   UNL     1       2.114   7.069  19.919  0.00  0.00    +0.000 A 
ATOM     22  C   UNL     1       2.505   6.938  18.590  0.00  0.00    +0.000 A 
ATOM     23  C   UNL     1       2.310   7.993  17.702  0.00  0.00    +0.000 A 
ATOM     24  C   UNL     1       1.762   9.195  18.155  0.00  0.00    +0.000 A 
ENDBRANCH   8  19
BRANCH   3  25
ATOM     25  N   UNL     1       0.077  16.726  19.034  0.00  0.00    +0.000 N 
ATOM     26  H   UNL     1       0.252  17.336  19.833  0.00  0.00    +0.000 HD
ATOM     27  H   UNL     1      -0.579  17.169  18.391  0.00  0.00    +0.000 HD
ENDBRANCH   3  25
BRANCH   2  28
ATOM     28  C   UNL     1      -2.080  16.121  20.685  0.00  0.00    +0.000 C 
ATOM     29  N   UNL     1      -2.621  17.037  21.149  0.00  0.00    +0.000 NA
ENDBRANCH   2  28
BRANCH   4  30
ATOM     30  C   UNL     1       2.009  14.708  18.471  0.00  0.00    +0.000 C 
ATOM     31  N   UNL     1       3.015  14.990  17.980  0.00  0.00    +0.000 NA
ENDBRANCH   4  30
TORSDOF 6
ENDMDL
MODEL 4
REMARK VINA RESULT:      -5.9      3.318      4.384
REMARK  Name = 
REMARK  8 active torsions:
REMARK  status: ('A' for Active; 'I' for Inactive)
REMARK    1  A    between atoms: C_1  and  C_2
REMARK    2  A    between atoms: C_2  and  C_3
REMARK    3  A    between atoms: C_2  and  C_4
REMARK    4  A    between atoms: C_7  and  C_8
REMARK    5  A    between atoms: C_9  and  C_10
REMARK    6  A    between atoms: C_12  and  N_13
REMARK    7  A    between atoms: C_14  and  C_15
REMARK    8  A    between atoms: C_20  and  C_21
REMARK                            x       y       z     vdW  Elec       q    Type
REMARK                         _______ _______ _______ _____ _____    ______ ____
ROOT
ATOM      1  C   UNL     1      -2.049  14.230  20.707  0.00  0.00    +0.000 A 
ATOM      2  C   UNL     1      -1.720  15.604  20.476  0.00  0.00    +0.000 A 
ATOM      3  C   UNL     1      -0.612  16.002  19.679  0.00  0.00    +0.000 A 
ATOM      4  C   UNL     1       0.358  15.035  19.381  0.00  0.00    +0.000 A 
ATOM      5  C   UNL     1       0.124  13.698  19.689  0.00  0.00    +0.000 A 
ATOM      6  C   UNL     1      -1.101  13.292  20.245  0.00  0.00    +0.000 A 
ATOM      7  S   UNL     1      -1.172  11.502  20.222  0.00  0.00    +0.000 S 
ATOM      8  C   UNL     1       0.643  11.353  20.183  0.00  0.00    +0.000 C 
ATOM      9  C   UNL     1       1.111  12.586  19.402  0.00  0.00    +0.000 C 
ENDROOT
BRANCH   1  13
ATOM     10  C   UNL     1      -5.654  12.958  22.797  0.00  0.00    +0.000 A 
ATOM     11  C   UNL     1      -4.414  12.968  23.434  0.00  0.00    +0.000 A 
ATOM     12  C   UNL     1      -3.283  13.458  22.780  0.00  0.00    +0.000 A 
ATOM     13  C   UNL     1      -3.305  13.846  21.427  0.00  0.00    +0.000 A 
ATOM     14  C   UNL     1      -4.559  13.802  20.797  0.00  0.00    +0.000 A 
ATOM     15  C   UNL     1      -5.718  13.402  21.475  0.00  0.00    +0.000 A 
BRANCH  10  17
ATOM     16  C   UNL     1      -7.491  13.867  24.170  0.00  0.00    +0.000 C 
ATOM     17  C   UNL     1      -6.876  12.583  23.610  0.00  0.00    +0.000 C 
ATOM     18  C   UNL     1      -7.917  11.759  22.852  0.00  0.00    +0.000 C 
ENDBRANCH  10  17
ENDBRANCH   1  13
BRANCH   8  19
ATOM     19  C   UNL     1       1.142  10.030  19.653  0.00  0.00    +0.000 A 
ATOM     20  C   UNL     1       1.268   8.899  20.475  0.00  0.00    +0.000 A 
ATOM     21  C   UNL     1       1.830   7.719  19.984  0.00  0.00    +0.000 A 
ATOM     22  C   UNL     1       2.266   7.649  18.664  0.00  0.00    +0.000 A 
ATOM     23  C   UNL     1       2.097   8.742  17.819  0.00  0.00    +0.000 A 
ATOM     24  C   UNL     1       1.531   9.922  18.308  0.00  0.00    +0.000 A 
ENDBRANCH   8  19
BRANCH   3  25
ATOM     25  N   UNL     1      -0.377  17.367  19.396  0.00  0.00    +0.000 N 
ATOM     26  H   UNL     1      -1.211  17.948  19.303  0.00  0.00    +0.000 HD
ATOM     27  H   UNL     1       0.267  17.551  18.626  0.00  0.00    +0.000 HD
ENDBRANCH   3  25
BRANCH   2  28
ATOM     28  C   UNL     1      -2.484  16.671  21.074  0.00  0.00    +0.000 C 
ATOM     29  N   UNL     1      -3.037  17.568  21.560  0.00  0.00    +0.000 NA
ENDBRANCH   2  28
BRANCH   4  30
ATOM     30  C   UNL     1       1.588  15.410  18.742  0.00  0.00    +0.000 C 
ATOM     31  N   UNL     1       2.572  15.729  18.228  0.00  0.00    +0.000 NA
ENDBRANCH   4  30
TORSDOF 6
ENDMDL
MODEL 5
REMARK VINA RESULT:      -5.9      0.989      1.114
REMARK  Name = 
REMARK  8 active torsions:
REMARK  status: ('A' for Active; 'I' for Inactive)
REMARK    1  A    between atoms: C_1  and  C_2
REMARK    2  A    between atoms: C_2  and  C_3
REMARK    3  A    between atoms: C_2  and  C_4
REMARK    4  A    between atoms: C_7  and  C_8
REMARK    5  A    between atoms: C_9  and  C_10
REMARK    6  A    between atoms: C_12  and  N_13
REMARK    7  A    between atoms: C_14  and  C_15
REMARK    8  A    between atoms: C_20  and  C_21
REMARK                            x       y       z     vdW  Elec       q    Type
REMARK                         _______ _______ _______ _____ _____    ______ ____
ROOT
ATOM      1  C   UNL     1      -2.714  12.166  20.016  0.00  0.00    +0.000 A 
ATOM      2  C   UNL     1      -3.865  12.426  19.205  0.00  0.00    +0.000 A 
ATOM      3  C   UNL     1      -4.178  11.656  18.051  0.00  0.00    +0.000 A 
ATOM      4  C   UNL     1      -3.171  10.838  17.520  0.00  0.00    +0.000 A 
ATOM      5  C   UNL     1      -1.988  10.645  18.227  0.00  0.00    +0.000 A 
ATOM      6  C   UNL     1      -1.809  11.216  19.499  0.00  0.00    +0.000 A 
ATOM      7  S   UNL     1      -0.330  10.519  20.233  0.00  0.00    +0.000 S 
ATOM      8  C   UNL     1       0.372  10.096  18.607  0.00  0.00    +0.000 C 
ATOM      9  C   UNL     1      -0.848   9.778  17.735  0.00  0.00    +0.000 C 
ENDROOT
BRANCH   1  13
ATOM     10  C   UNL     1      -1.929  14.229  23.773  0.00  0.00    +0.000 A 
ATOM     11  C   UNL     1      -1.292  14.608  22.593  0.00  0.00    +0.000 A 
ATOM     12  C   UNL     1      -1.616  13.996  21.381  0.00  0.00    +0.000 A 
ATOM     13  C   UNL     1      -2.495  12.899  21.303  0.00  0.00    +0.000 A 
ATOM     14  C   UNL     1      -3.105  12.516  22.509  0.00  0.00    +0.000 A 
ATOM     15  C   UNL     1      -2.857  13.187  23.714  0.00  0.00    +0.000 A 
BRANCH  10  17
ATOM     16  C   UNL     1      -0.600  16.088  24.701  0.00  0.00    +0.000 C 
ATOM     17  C   UNL     1      -1.670  15.044  25.023  0.00  0.00    +0.000 C 
ATOM     18  C   UNL     1      -2.913  15.697  25.626  0.00  0.00    +0.000 C 
ENDBRANCH  10  17
ENDBRANCH   1  13
BRANCH   8  19
ATOM     19  C   UNL     1       1.427   9.017  18.653  0.00  0.00    +0.000 A 
ATOM     20  C   UNL     1       2.309   8.793  17.583  0.00  0.00    +0.000 A 
ATOM     21  C   UNL     1       3.205   7.722  17.609  0.00  0.00    +0.000 A 
ATOM     22  C   UNL     1       3.238   6.865  18.705  0.00  0.00    +0.000 A 
ATOM     23  C   UNL     1       2.410   7.105  19.798  0.00  0.00    +0.000 A 
ATOM     24  C   UNL     1       1.516   8.179  19.776  0.00  0.00    +0.000 A 
ENDBRANCH   8  19
BRANCH   3  25
ATOM     25  N   UNL     1      -5.374  11.882  17.331  0.00  0.00    +0.000 N 
ATOM     26  H   UNL     1      -6.169  11.306  17.609  0.00  0.00    +0.000 HD
ATOM     27  H   UNL     1      -5.280  11.886  16.316  0.00  0.00    +0.000 HD
ENDBRANCH   3  25
BRANCH   2  28
ATOM     28  C   UNL     1      -4.762  13.516  19.499  0.00  0.00    +0.000 C 
ATOM     29  N   UNL     1      -5.539  14.349  19.723  0.00  0.00    +0.000 NA
ENDBRANCH   2  28
BRANCH   4  30
ATOM     30  C   UNL     1      -3.356  10.180  16.258  0.00  0.00    +0.000 C 
ATOM     31  N   UNL     1      -3.518   9.639  15.250  0.00  0.00    +0.000 NA
ENDBRANCH   4  30
TORSDOF 6
ENDMDL
MODEL 6
REMARK VINA RESULT:      -5.9      0.266      1.284
REMARK  Name = 
REMARK  8 active torsions:
REMARK  status: ('A' for Active; 'I' for Inactive)
REMARK    1  A    between atoms: C_1  and  C_2
REMARK    2  A    between atoms: C_2  and  C_3
REMARK    3  A    between atoms: C_2  and  C_4
REMARK    4  A    between atoms: C_7  and  C_8
REMARK    5  A    between atoms: C_9  and  C_10
REMARK    6  A    between atoms: C_12  and  N_13
REMARK    7  A    between atoms: C_14  and  C_15
REMARK    8  A    between atoms: C_20  and  C_21
REMARK                            x       y       z     vdW  Elec       q    Type
REMARK                         _______ _______ _______ _____ _____    ______ ____
ROOT
ATOM      1  C   UNL     1      -3.787  12.593  19.809  0.00  0.00    +0.000 A 
ATOM      2  C   UNL     1      -4.857  12.840  18.892  0.00  0.00    +0.000 A 
ATOM      3  C   UNL     1      -5.034  12.085  17.700  0.00  0.00    +0.000 A 
ATOM      4  C   UNL     1      -3.957  11.303  17.258  0.00  0.00    +0.000 A 
ATOM      5  C   UNL     1      -2.846  11.125  18.077  0.00  0.00    +0.000 A 
ATOM      6  C   UNL     1      -2.810  11.675  19.369  0.00  0.00    +0.000 A 
ATOM      7  S   UNL     1      -1.394  11.000  20.236  0.00  0.00    +0.000 S 
ATOM      8  C   UNL     1      -0.522  10.626  18.681  0.00  0.00    +0.000 C 
ATOM      9  C   UNL     1      -1.641  10.295  17.687  0.00  0.00    +0.000 C 
ENDROOT
BRANCH   1  13
ATOM     10  C   UNL     1      -3.731  14.721  23.611  0.00  0.00    +0.000 A 
ATOM     11  C   UNL     1      -4.472  13.553  23.447  0.00  0.00    +0.000 A 
ATOM     12  C   UNL     1      -4.413  12.835  22.251  0.00  0.00    +0.000 A 
ATOM     13  C   UNL     1      -3.715  13.306  21.124  0.00  0.00    +0.000 A 
ATOM     14  C   UNL     1      -2.997  14.500  21.302  0.00  0.00    +0.000 A 
ATOM     15  C   UNL     1      -2.973  15.177  22.529  0.00  0.00    +0.000 A 
BRANCH  10  17
ATOM     16  C   UNL     1      -2.262  15.264  25.517  0.00  0.00    +0.000 C 
ATOM     17  C   UNL     1      -3.692  15.361  24.983  0.00  0.00    +0.000 C 
ATOM     18  C   UNL     1      -4.200  16.802  25.028  0.00  0.00    +0.000 C 
ENDBRANCH  10  17
ENDBRANCH   1  13
BRANCH   8  19
ATOM     19  C   UNL     1       0.551   9.572  18.814  0.00  0.00    +0.000 A 
ATOM     20  C   UNL     1       0.812   8.926  20.033  0.00  0.00    +0.000 A 
ATOM     21  C   UNL     1       1.878   8.033  20.154  0.00  0.00    +0.000 A 
ATOM     22  C   UNL     1       2.693   7.766  19.058  0.00  0.00    +0.000 A 
ATOM     23  C   UNL     1       2.415   8.354  17.827  0.00  0.00    +0.000 A 
ATOM     24  C   UNL     1       1.346   9.244  17.704  0.00  0.00    +0.000 A 
ENDBRANCH   8  19
BRANCH   3  25
ATOM     25  N   UNL     1      -6.157  12.295  16.868  0.00  0.00    +0.000 N 
ATOM     26  H   UNL     1      -5.983  12.218  15.866  0.00  0.00    +0.000 HD
ATOM     27  H   UNL     1      -6.700  13.136  17.067  0.00  0.00    +0.000 HD
ENDBRANCH   3  25
BRANCH   2  28
ATOM     28  C   UNL     1      -5.807  13.903  19.112  0.00  0.00    +0.000 C 
ATOM     29  N   UNL     1      -6.573  14.739  19.360  0.00  0.00    +0.000 NA
ENDBRANCH   2  28
BRANCH   4  30
ATOM     30  C   UNL     1      -3.999  10.664  15.973  0.00  0.00    +0.000 C 
ATOM     31  N   UNL     1      -4.015  10.156  14.936  0.00  0.00    +0.000 NA
ENDBRANCH   4  30
TORSDOF 6
ENDMDL
MODEL 7
REMARK VINA RESULT:      -5.9      3.128      4.568
REMARK  Name = 
REMARK  8 active torsions:
REMARK  status: ('A' for Active; 'I' for Inactive)
REMARK    1  A    between atoms: C_1  and  C_2
REMARK    2  A    between atoms: C_2  and  C_3
REMARK    3  A    between atoms: C_2  and  C_4
REMARK    4  A    between atoms: C_7  and  C_8
REMARK    5  A    between atoms: C_9  and  C_10
REMARK    6  A    between atoms: C_12  and  N_13
REMARK    7  A    between atoms: C_14  and  C_15
REMARK    8  A    between atoms: C_20  and  C_21
REMARK                            x       y       z     vdW  Elec       q    Type
REMARK                         _______ _______ _______ _____ _____    ______ ____
ROOT
ATOM      1  C   UNL     1      -1.543  13.236  19.901  0.00  0.00    +0.000 A 
ATOM      2  C   UNL     1      -1.116  14.592  19.737  0.00  0.00    +0.000 A 
ATOM      3  C   UNL     1       0.143  14.936  19.173  0.00  0.00    +0.000 A 
ATOM      4  C   UNL     1       1.110  13.927  19.072  0.00  0.00    +0.000 A 
ATOM      5  C   UNL     1       0.763  12.604  19.328  0.00  0.00    +0.000 A 
ATOM      6  C   UNL     1      -0.564  12.255  19.634  0.00  0.00    +0.000 A 
ATOM      7  S   UNL     1      -0.706  10.469  19.598  0.00  0.00    +0.000 S 
ATOM      8  C   UNL     1       1.074  10.243  19.916  0.00  0.00    +0.000 C 
ATOM      9  C   UNL     1       1.737  11.448  19.241  0.00  0.00    +0.000 C 
ENDROOT
BRANCH   1  13
ATOM     10  C   UNL     1      -5.630  12.435  21.180  0.00  0.00    +0.000 A 
ATOM     11  C   UNL     1      -5.267  12.369  19.836  0.00  0.00    +0.000 A 
ATOM     12  C   UNL     1      -3.937  12.544  19.449  0.00  0.00    +0.000 A 
ATOM     13  C   UNL     1      -2.930  12.912  20.361  0.00  0.00    +0.000 A 
ATOM     14  C   UNL     1      -3.323  12.999  21.706  0.00  0.00    +0.000 A 
ATOM     15  C   UNL     1      -4.637  12.731  22.116  0.00  0.00    +0.000 A 
BRANCH  10  17
ATOM     16  C   UNL     1      -7.917  13.318  21.457  0.00  0.00    +0.000 C 
ATOM     17  C   UNL     1      -7.048  12.063  21.560  0.00  0.00    +0.000 C 
ATOM     18  C   UNL     1      -7.644  10.913  20.748  0.00  0.00    +0.000 C 
ENDBRANCH  10  17
ENDBRANCH   1  13
BRANCH   8  19
ATOM     19  C   UNL     1       1.609   8.896  19.495  0.00  0.00    +0.000 A 
ATOM     20  C   UNL     1       2.013   8.635  18.175  0.00  0.00    +0.000 A 
ATOM     21  C   UNL     1       2.405   7.352  17.789  0.00  0.00    +0.000 A 
ATOM     22  C   UNL     1       2.405   6.313  18.715  0.00  0.00    +0.000 A 
ATOM     23  C   UNL     1       2.062   6.565  20.041  0.00  0.00    +0.000 A 
ATOM     24  C   UNL     1       1.674   7.850  20.429  0.00  0.00    +0.000 A 
ENDBRANCH   8  19
BRANCH   3  25
ATOM     25  N   UNL     1       0.488  16.288  18.940  0.00  0.00    +0.000 N 
ATOM     26  H   UNL     1       0.406  16.602  17.973  0.00  0.00    +0.000 HD
ATOM     27  H   UNL     1       1.381  16.586  19.333  0.00  0.00    +0.000 HD
ENDBRANCH   3  25
BRANCH   2  28
ATOM     28  C   UNL     1      -1.935  15.696  20.174  0.00  0.00    +0.000 C 
ATOM     29  N   UNL     1      -2.577  16.619  20.463  0.00  0.00    +0.000 NA
ENDBRANCH   2  28
BRANCH   4  30
ATOM     30  C   UNL     1       2.457  14.243  18.686  0.00  0.00    +0.000 C 
ATOM     31  N   UNL     1       3.535  14.516  18.378  0.00  0.00    +0.000 NA
ENDBRANCH   4  30
TORSDOF 6
ENDMDL
MODEL 8
REMARK VINA RESULT:      -5.8      3.195      4.695
REMARK  Name = 
REMARK  8 active torsions:
REMARK  status: ('A' for Active; 'I' for Inactive)
REMARK    1  A    between atoms: C_1  and  C_2
REMARK    2  A    between atoms: C_2  and  C_3
REMARK    3  A    between atoms: C_2  and  C_4
REMARK    4  A    between atoms: C_7  and  C_8
REMARK    5  A    between atoms: C_9  and  C_10
REMARK    6  A    between atoms: C_12  and  N_13
REMARK    7  A    between atoms: C_14  and  C_15
REMARK    8  A    between atoms: C_20  and  C_21
REMARK                            x       y       z     vdW  Elec       q    Type
REMARK                         _______ _______ _______ _____ _____    ______ ____
ROOT
ATOM      1  C   UNL     1      -1.918  13.465  20.184  0.00  0.00    +0.000 A 
ATOM      2  C   UNL     1      -1.516  14.838  20.240  0.00  0.00    +0.000 A 
ATOM      3  C   UNL     1      -0.207  15.267  19.892  0.00  0.00    +0.000 A 
ATOM      4  C   UNL     1       0.797  14.292  19.801  0.00  0.00    +0.000 A 
ATOM      5  C   UNL     1       0.461  12.943  19.851  0.00  0.00    +0.000 A 
ATOM      6  C   UNL     1      -0.883  12.539  19.936  0.00  0.00    +0.000 A 
ATOM      7  S   UNL     1      -0.963  10.769  19.670  0.00  0.00    +0.000 S 
ATOM      8  C   UNL     1       0.766  10.534  20.191  0.00  0.00    +0.000 C 
ATOM      9  C   UNL     1       1.474  11.822  19.757  0.00  0.00    +0.000 C 
ENDROOT
BRANCH   1  13
ATOM     10  C   UNL     1      -6.011  12.167  20.924  0.00  0.00    +0.000 A 
ATOM     11  C   UNL     1      -5.188  12.593  21.965  0.00  0.00    +0.000 A 
ATOM     12  C   UNL     1      -3.908  13.087  21.704  0.00  0.00    +0.000 A 
ATOM     13  C   UNL     1      -3.343  13.066  20.416  0.00  0.00    +0.000 A 
ATOM     14  C   UNL     1      -4.180  12.608  19.385  0.00  0.00    +0.000 A 
ATOM     15  C   UNL     1      -5.499  12.200  19.626  0.00  0.00    +0.000 A 
BRANCH  10  17
ATOM     16  C   UNL     1      -7.720  10.400  20.714  0.00  0.00    +0.000 C 
ATOM     17  C   UNL     1      -7.447  11.809  21.245  0.00  0.00    +0.000 C 
ATOM     18  C   UNL     1      -7.816  11.921  22.723  0.00  0.00    +0.000 C 
ENDBRANCH  10  17
ENDBRANCH   1  13
BRANCH   8  19
ATOM     19  C   UNL     1       1.393   9.256  19.688  0.00  0.00    +0.000 A 
ATOM     20  C   UNL     1       1.827   9.112  18.360  0.00  0.00    +0.000 A 
ATOM     21  C   UNL     1       2.306   7.886  17.894  0.00  0.00    +0.000 A 
ATOM     22  C   UNL     1       2.366   6.789  18.748  0.00  0.00    +0.000 A 
ATOM     23  C   UNL     1       1.993   6.928  20.082  0.00  0.00    +0.000 A 
ATOM     24  C   UNL     1       1.518   8.155  20.551  0.00  0.00    +0.000 A 
ENDBRANCH   8  19
BRANCH   3  25
ATOM     25  N   UNL     1       0.124  16.642  19.869  0.00  0.00    +0.000 N 
ATOM     26  H   UNL     1       0.339  17.027  18.949  0.00  0.00    +0.000 HD
ATOM     27  H   UNL     1       0.827  16.936  20.546  0.00  0.00    +0.000 HD
ENDBRANCH   3  25
BRANCH   2  28
ATOM     28  C   UNL     1      -2.419  15.868  20.692  0.00  0.00    +0.000 C 
ATOM     29  N   UNL     1      -3.170  16.703  20.987  0.00  0.00    +0.000 NA
ENDBRANCH   2  28
BRANCH   4  30
ATOM     30  C   UNL     1       2.172  14.674  19.637  0.00  0.00    +0.000 C 
ATOM     31  N   UNL     1       3.272  14.998  19.507  0.00  0.00    +0.000 NA
ENDBRANCH   4  30
TORSDOF 6
ENDMDL
MODEL 9
REMARK VINA RESULT:      -5.7      3.245      4.271
REMARK  Name = 
REMARK  8 active torsions:
REMARK  status: ('A' for Active; 'I' for Inactive)
REMARK    1  A    between atoms: C_1  and  C_2
REMARK    2  A    between atoms: C_2  and  C_3
REMARK    3  A    between atoms: C_2  and  C_4
REMARK    4  A    between atoms: C_7  and  C_8
REMARK    5  A    between atoms: C_9  and  C_10
REMARK    6  A    between atoms: C_12  and  N_13
REMARK    7  A    between atoms: C_14  and  C_15
REMARK    8  A    between atoms: C_20  and  C_21
REMARK                            x       y       z     vdW  Elec       q    Type
REMARK                         _______ _______ _______ _____ _____    ______ ____
ROOT
ATOM      1  C   UNL     1      -1.980  14.052  20.746  0.00  0.00    +0.000 A 
ATOM      2  C   UNL     1      -1.703  15.440  20.530  0.00  0.00    +0.000 A 
ATOM      3  C   UNL     1      -0.619  15.888  19.727  0.00  0.00    +0.000 A 
ATOM      4  C   UNL     1       0.381  14.960  19.405  0.00  0.00    +0.000 A 
ATOM      5  C   UNL     1       0.198  13.612  19.696  0.00  0.00    +0.000 A 
ATOM      6  C   UNL     1      -1.005  13.155  20.260  0.00  0.00    +0.000 A 
ATOM      7  S   UNL     1      -1.013  11.364  20.212  0.00  0.00    +0.000 S 
ATOM      8  C   UNL     1       0.805  11.280  20.151  0.00  0.00    +0.000 C 
ATOM      9  C   UNL     1       1.219  12.539  19.382  0.00  0.00    +0.000 C 
ENDROOT
BRANCH   1  13
ATOM     10  C   UNL     1      -5.631  12.925  22.841  0.00  0.00    +0.000 A 
ATOM     11  C   UNL     1      -5.606  13.063  21.454  0.00  0.00    +0.000 A 
ATOM     12  C   UNL     1      -4.411  13.340  20.788  0.00  0.00    +0.000 A 
ATOM     13  C   UNL     1      -3.213  13.614  21.475  0.00  0.00    +0.000 A 
ATOM     14  C   UNL     1      -3.267  13.497  22.873  0.00  0.00    +0.000 A 
ATOM     15  C   UNL     1      -4.440  13.125  23.543  0.00  0.00    +0.000 A 
BRANCH  10  17
ATOM     16  C   UNL     1      -7.537  13.631  24.239  0.00  0.00    +0.000 C 
ATOM     17  C   UNL     1      -6.912  12.451  23.493  0.00  0.00    +0.000 C 
ATOM     18  C   UNL     1      -7.917  11.813  22.533  0.00  0.00    +0.000 C 
ENDBRANCH  10  17
ENDBRANCH   1  13
BRANCH   8  19
ATOM     19  C   UNL     1       1.343   9.983  19.596  0.00  0.00    +0.000 A 
ATOM     20  C   UNL     1       1.742   9.855  18.256  0.00  0.00    +0.000 A 
ATOM     21  C   UNL     1       2.137   8.617  17.743  0.00  0.00    +0.000 A 
ATOM     22  C   UNL     1       2.147   7.493  18.563  0.00  0.00    +0.000 A 
ATOM     23  C   UNL     1       1.809   7.612  19.908  0.00  0.00    +0.000 A 
ATOM     24  C   UNL     1       1.418   8.850  20.423  0.00  0.00    +0.000 A 
ENDBRANCH   8  19
BRANCH   3  25
ATOM     25  N   UNL     1      -0.435  17.264  19.460  0.00  0.00    +0.000 N 
ATOM     26  H   UNL     1      -0.924  17.903  20.087  0.00  0.00    +0.000 HD
ATOM     27  H   UNL     1      -0.577  17.546  18.490  0.00  0.00    +0.000 HD
ENDBRANCH   3  25
BRANCH   2  28
ATOM     28  C   UNL     1      -2.497  16.471  21.152  0.00  0.00    +0.000 C 
ATOM     29  N   UNL     1      -3.142  17.332  21.587  0.00  0.00    +0.000 NA
ENDBRANCH   2  28
BRANCH   4  30
ATOM     30  C   UNL     1       1.590  15.386  18.757  0.00  0.00    +0.000 C 
ATOM     31  N   UNL     1       2.569  15.733  18.253  0.00  0.00    +0.000 NA
ENDBRANCH   4  30
TORSDOF 6
ENDMDL
