MODEL 1
REMARK VINA RESULT:      -8.8      0.000      0.000
REMARK  Name = 
REMARK  9 active torsions:
REMARK  status: ('A' for Active; 'I' for Inactive)
REMARK    1  A    between atoms: C_1  and  O_2
REMARK    2  A    between atoms: O_2  and  C_3
REMARK    3  A    between atoms: C_7  and  C_8
REMARK    4  A    between atoms: N_10  and  C_11
REMARK    5  A    between atoms: C_11  and  C_12
REMARK    6  A    between atoms: C_12  and  C_14
REMARK    7  A    between atoms: C_16  and  C_17
REMARK    8  A    between atoms: C_19  and  C_20
REMARK    9  A    between atoms: C_27  and  C_28
REMARK                            x       y       z     vdW  Elec       q    Type
REMARK                         _______ _______ _______ _____ _____    ______ ____
ROOT
ATOM      1  C   UNL     1       2.701   4.336  18.856  0.00  0.00    +0.000 C 
ATOM      2  C   UNL     1       2.206   3.573  17.603  0.00  0.00    +0.000 C 
ATOM      3  C   UNL     1       2.270   2.061  17.783  0.00  0.00    +0.000 C 
ATOM      4  O   UNL     1       1.548   1.659  18.943  0.00  0.00    +0.000 OA
ATOM      5  C   UNL     1       2.100   2.205  20.134  0.00  0.00    +0.000 C 
ATOM      6  C   UNL     1       2.036   3.725  20.117  0.00  0.00    +0.000 C 
ENDROOT
BRANCH   1   9
ATOM      7  C   UNL     1       2.118   6.657  19.728  0.00  0.00    +0.000 C 
ATOM      8  O   UNL     1       2.147   6.318  20.902  0.00  0.00    +0.000 OA
ATOM      9  N   UNL     1       2.409   5.793  18.681  0.00  0.00    +0.000 N 
ATOM     10  H   UNL     1       2.154   6.100  17.749  0.00  0.00    +0.000 HD
BRANCH   7  15
ATOM     11  C   UNL     1       0.909  10.294  19.848  0.00  0.00    +0.000 A 
ATOM     12  C   UNL     1       1.403  10.758  18.626  0.00  0.00    +0.000 A 
ATOM     13  C   UNL     1       2.095   9.897  17.778  0.00  0.00    +0.000 A 
ATOM     14  C   UNL     1       2.288   8.565  18.144  0.00  0.00    +0.000 A 
ATOM     15  C   UNL     1       1.803   8.077  19.371  0.00  0.00    +0.000 A 
ATOM     16  C   UNL     1       1.129   8.956  20.254  0.00  0.00    +0.000 A 
ATOM     17  C   UNL     1       0.595   8.549  21.607  0.00  0.00    +0.000 C 
BRANCH  11  19
ATOM     18  C   UNL     1       0.712  12.436  20.865  0.00  0.00    +0.000 C 
ATOM     19  O   UNL     1       0.244  11.097  20.742  0.00  0.00    +0.000 OA
ENDBRANCH  11  19
ENDBRANCH   7  15
ENDBRANCH   1   9
BRANCH   1  20
ATOM     20  C   UNL     1       4.268   4.197  18.960  0.00  0.00    +0.000 C 
ATOM     21  O   UNL     1       4.800   3.653  19.932  0.00  0.00    +0.000 OA
BRANCH  20  22
ATOM     22  C   UNL     1       5.182   4.729  17.891  0.00  0.00    +0.000 A 
ATOM     23  C   UNL     1       5.295   4.135  16.632  0.00  0.00    +0.000 A 
ATOM     24  C   UNL     1       6.153   4.650  15.657  0.00  0.00    +0.000 A 
ATOM     25  C   UNL     1       6.241   3.987  14.314  0.00  0.00    +0.000 C 
ATOM     26  C   UNL     1       6.916   5.785  15.947  0.00  0.00    +0.000 A 
ATOM     27  C   UNL     1       6.823   6.406  17.200  0.00  0.00    +0.000 A 
ATOM     28  C   UNL     1       7.634   7.633  17.503  0.00  0.00    +0.000 C 
ATOM     29  C   UNL     1       5.957   5.869  18.167  0.00  0.00    +0.000 A 
ENDBRANCH  20  22
ENDBRANCH   1  20
TORSDOF 5
ENDMDL
MODEL 2
REMARK VINA RESULT:      -8.7      0.042      1.629
REMARK  Name = 
REMARK  9 active torsions:
REMARK  status: ('A' for Active; 'I' for Inactive)
REMARK    1  A    between atoms: C_1  and  O_2
REMARK    2  A    between atoms: O_2  and  C_3
REMARK    3  A    between atoms: C_7  and  C_8
REMARK    4  A    between atoms: N_10  and  C_11
REMARK    5  A    between atoms: C_11  and  C_12
REMARK    6  A    between atoms: C_12  and  C_14
REMARK    7  A    between atoms: C_16  and  C_17
REMARK    8  A    between atoms: C_19  and  C_20
REMARK    9  A    between atoms: C_27  and  C_28
REMARK                            x       y       z     vdW  Elec       q    Type
REMARK                         _______ _______ _______ _____ _____    ______ ____
ROOT
ATOM      1  C   UNL     1       2.687   4.326  18.836  0.00  0.00    +0.000 C 
ATOM      2  C   UNL     1       2.213   3.563  17.575  0.00  0.00    +0.000 C 
ATOM      3  C   UNL     1       2.281   2.050  17.754  0.00  0.00    +0.000 C 
ATOM      4  O   UNL     1       1.545   1.643  18.903  0.00  0.00    +0.000 OA
ATOM      5  C   UNL     1       2.078   2.190  20.102  0.00  0.00    +0.000 C 
ATOM      6  C   UNL     1       2.007   3.710  20.087  0.00  0.00    +0.000 C 
ENDROOT
BRANCH   1   9
ATOM      7  C   UNL     1       2.162   6.660  19.710  0.00  0.00    +0.000 C 
ATOM      8  O   UNL     1       2.255   6.335  20.886  0.00  0.00    +0.000 OA
ATOM      9  N   UNL     1       2.390   5.781  18.660  0.00  0.00    +0.000 N 
ATOM     10  H   UNL     1       2.085   6.079  17.739  0.00  0.00    +0.000 HD
BRANCH   7  15
ATOM     11  C   UNL     1       0.913  10.284  19.830  0.00  0.00    +0.000 A 
ATOM     12  C   UNL     1       1.405  10.753  18.610  0.00  0.00    +0.000 A 
ATOM     13  C   UNL     1       2.108   9.901  17.763  0.00  0.00    +0.000 A 
ATOM     14  C   UNL     1       2.314   8.571  18.129  0.00  0.00    +0.000 A 
ATOM     15  C   UNL     1       1.832   8.076  19.354  0.00  0.00    +0.000 A 
ATOM     16  C   UNL     1       1.147   8.947  20.236  0.00  0.00    +0.000 A 
ATOM     17  C   UNL     1       0.613   8.533  21.587  0.00  0.00    +0.000 C 
BRANCH  11  19
ATOM     18  C   UNL     1       0.676  12.429  20.832  0.00  0.00    +0.000 C 
ATOM     19  O   UNL     1       0.238  11.079  20.724  0.00  0.00    +0.000 OA
ENDBRANCH  11  19
ENDBRANCH   7  15
ENDBRANCH   1   9
BRANCH   1  20
ATOM     20  C   UNL     1       4.252   4.194  18.963  0.00  0.00    +0.000 C 
ATOM     21  O   UNL     1       4.772   3.612  19.918  0.00  0.00    +0.000 OA
BRANCH  20  22
ATOM     22  C   UNL     1       5.182   4.778  17.933  0.00  0.00    +0.000 A 
ATOM     23  C   UNL     1       5.955   5.915  18.175  0.00  0.00    +0.000 A 
ATOM     24  C   UNL     1       6.810   6.437  17.200  0.00  0.00    +0.000 A 
ATOM     25  C   UNL     1       7.630   7.656  17.501  0.00  0.00    +0.000 C 
ATOM     26  C   UNL     1       6.893   5.805  15.955  0.00  0.00    +0.000 A 
ATOM     27  C   UNL     1       6.132   4.661  15.683  0.00  0.00    +0.000 A 
ATOM     28  C   UNL     1       6.234   3.979  14.349  0.00  0.00    +0.000 C 
ATOM     29  C   UNL     1       5.275   4.157  16.676  0.00  0.00    +0.000 A 
ENDBRANCH  20  22
ENDBRANCH   1  20
TORSDOF 5
ENDMDL
MODEL 3
REMARK VINA RESULT:      -8.4      1.179      2.012
REMARK  Name = 
REMARK  9 active torsions:
REMARK  status: ('A' for Active; 'I' for Inactive)
REMARK    1  A    between atoms: C_1  and  O_2
REMARK    2  A    between atoms: O_2  and  C_3
REMARK    3  A    between atoms: C_7  and  C_8
REMARK    4  A    between atoms: N_10  and  C_11
REMARK    5  A    between atoms: C_11  and  C_12
REMARK    6  A    between atoms: C_12  and  C_14
REMARK    7  A    between atoms: C_16  and  C_17
REMARK    8  A    between atoms: C_19  and  C_20
REMARK    9  A    between atoms: C_27  and  C_28
REMARK                            x       y       z     vdW  Elec       q    Type
REMARK                         _______ _______ _______ _____ _____    ______ ____
ROOT
ATOM      1  C   UNL     1       2.476   4.482  18.914  0.00  0.00    +0.000 C 
ATOM      2  C   UNL     1       1.112   3.784  19.139  0.00  0.00    +0.000 C 
ATOM      3  C   UNL     1       1.269   2.321  19.538  0.00  0.00    +0.000 C 
ATOM      4  O   UNL     1       2.100   2.198  20.688  0.00  0.00    +0.000 OA
ATOM      5  C   UNL     1       3.420   2.667  20.447  0.00  0.00    +0.000 C 
ATOM      6  C   UNL     1       3.417   4.149  20.101  0.00  0.00    +0.000 C 
ENDROOT
BRANCH   1   9
ATOM      7  C   UNL     1       1.880   6.806  19.767  0.00  0.00    +0.000 C 
ATOM      8  O   UNL     1       1.786   6.449  20.933  0.00  0.00    +0.000 OA
ATOM      9  N   UNL     1       2.244   5.949  18.737  0.00  0.00    +0.000 N 
ATOM     10  H   UNL     1       2.089   6.278  17.791  0.00  0.00    +0.000 HD
BRANCH   7  15
ATOM     11  C   UNL     1       0.822  10.491  19.859  0.00  0.00    +0.000 A 
ATOM     12  C   UNL     1       1.390  10.940  18.663  0.00  0.00    +0.000 A 
ATOM     13  C   UNL     1       2.081  10.054  17.841  0.00  0.00    +0.000 A 
ATOM     14  C   UNL     1       2.200   8.714  18.206  0.00  0.00    +0.000 A 
ATOM     15  C   UNL     1       1.641   8.240  19.406  0.00  0.00    +0.000 A 
ATOM     16  C   UNL     1       0.967   9.143  20.266  0.00  0.00    +0.000 A 
ATOM     17  C   UNL     1       0.356   8.752  21.590  0.00  0.00    +0.000 C 
BRANCH  11  19
ATOM     18  C   UNL     1      -0.918  12.081  20.185  0.00  0.00    +0.000 C 
ATOM     19  O   UNL     1       0.154  11.318  20.729  0.00  0.00    +0.000 OA
ENDBRANCH  11  19
ENDBRANCH   7  15
ENDBRANCH   1   9
BRANCH   1  20
ATOM     20  C   UNL     1       3.109   3.958  17.569  0.00  0.00    +0.000 C 
ATOM     21  O   UNL     1       2.473   3.232  16.800  0.00  0.00    +0.000 OA
BRANCH  20  22
ATOM     22  C   UNL     1       4.517   4.307  17.168  0.00  0.00    +0.000 A 
ATOM     23  C   UNL     1       5.464   4.779  18.078  0.00  0.00    +0.000 A 
ATOM     24  C   UNL     1       6.765   5.097  17.678  0.00  0.00    +0.000 A 
ATOM     25  C   UNL     1       7.756   5.595  18.688  0.00  0.00    +0.000 C 
ATOM     26  C   UNL     1       7.125   4.938  16.337  0.00  0.00    +0.000 A 
ATOM     27  C   UNL     1       6.198   4.463  15.399  0.00  0.00    +0.000 A 
ATOM     28  C   UNL     1       6.594   4.282  13.962  0.00  0.00    +0.000 C 
ATOM     29  C   UNL     1       4.894   4.155  15.823  0.00  0.00    +0.000 A 
ENDBRANCH  20  22
ENDBRANCH   1  20
TORSDOF 5
ENDMDL
MODEL 4
REMARK VINA RESULT:      -8.3      0.973      1.263
REMARK  Name = 
REMARK  9 active torsions:
REMARK  status: ('A' for Active; 'I' for Inactive)
REMARK    1  A    between atoms: C_1  and  O_2
REMARK    2  A    between atoms: O_2  and  C_3
REMARK    3  A    between atoms: C_7  and  C_8
REMARK    4  A    between atoms: N_10  and  C_11
REMARK    5  A    between atoms: C_11  and  C_12
REMARK    6  A    between atoms: C_12  and  C_14
REMARK    7  A    between atoms: C_16  and  C_17
REMARK    8  A    between atoms: C_19  and  C_20
REMARK    9  A    between atoms: C_27  and  C_28
REMARK                            x       y       z     vdW  Elec       q    Type
REMARK                         _______ _______ _______ _____ _____    ______ ____
ROOT
ATOM      1  C   UNL     1       2.618   4.505  18.836  0.00  0.00    +0.000 C 
ATOM      2  C   UNL     1       1.294   3.785  19.192  0.00  0.00    +0.000 C 
ATOM      3  C   UNL     1       1.512   2.324  19.566  0.00  0.00    +0.000 C 
ATOM      4  O   UNL     1       2.457   2.208  20.626  0.00  0.00    +0.000 OA
ATOM      5  C   UNL     1       3.739   2.699  20.256  0.00  0.00    +0.000 C 
ATOM      6  C   UNL     1       3.679   4.181  19.920  0.00  0.00    +0.000 C 
ENDROOT
BRANCH   1   9
ATOM      7  C   UNL     1       1.949   6.791  19.736  0.00  0.00    +0.000 C 
ATOM      8  O   UNL     1       1.852   6.403  20.892  0.00  0.00    +0.000 OA
ATOM      9  N   UNL     1       2.348   5.969  18.691  0.00  0.00    +0.000 N 
ATOM     10  H   UNL     1       2.195   6.316  17.751  0.00  0.00    +0.000 HD
BRANCH   7  15
ATOM     11  C   UNL     1       0.851  10.460  19.929  0.00  0.00    +0.000 A 
ATOM     12  C   UNL     1       1.354  10.931  18.713  0.00  0.00    +0.000 A 
ATOM     13  C   UNL     1       2.016  10.065  17.847  0.00  0.00    +0.000 A 
ATOM     14  C   UNL     1       2.170   8.722  18.187  0.00  0.00    +0.000 A 
ATOM     15  C   UNL     1       1.675   8.226  19.407  0.00  0.00    +0.000 A 
ATOM     16  C   UNL     1       1.032   9.108  20.310  0.00  0.00    +0.000 A 
ATOM     17  C   UNL     1       0.491   8.692  21.657  0.00  0.00    +0.000 C 
BRANCH  11  19
ATOM     18  C   UNL     1       0.414  12.668  20.699  0.00  0.00    +0.000 C 
ATOM     19  O   UNL     1       0.215  11.266  20.842  0.00  0.00    +0.000 OA
ENDBRANCH  11  19
ENDBRANCH   7  15
ENDBRANCH   1   9
BRANCH   1  20
ATOM     20  C   UNL     1       3.121   3.995  17.431  0.00  0.00    +0.000 C 
ATOM     21  O   UNL     1       2.448   3.214  16.754  0.00  0.00    +0.000 OA
BRANCH  20  22
ATOM     22  C   UNL     1       4.443   4.429  16.859  0.00  0.00    +0.000 A 
ATOM     23  C   UNL     1       4.865   4.066  15.579  0.00  0.00    +0.000 A 
ATOM     24  C   UNL     1       6.100   4.483  15.072  0.00  0.00    +0.000 A 
ATOM     25  C   UNL     1       6.514   4.077  13.689  0.00  0.00    +0.000 C 
ATOM     26  C   UNL     1       6.929   5.281  15.865  0.00  0.00    +0.000 A 
ATOM     27  C   UNL     1       6.532   5.665  17.153  0.00  0.00    +0.000 A 
ATOM     28  C   UNL     1       7.422   6.533  17.996  0.00  0.00    +0.000 C 
ATOM     29  C   UNL     1       5.290   5.231  17.644  0.00  0.00    +0.000 A 
ENDBRANCH  20  22
ENDBRANCH   1  20
TORSDOF 5
ENDMDL
MODEL 5
REMARK VINA RESULT:      -8.3      0.916      1.644
REMARK  Name = 
REMARK  9 active torsions:
REMARK  status: ('A' for Active; 'I' for Inactive)
REMARK    1  A    between atoms: C_1  and  O_2
REMARK    2  A    between atoms: O_2  and  C_3
REMARK    3  A    between atoms: C_7  and  C_8
REMARK    4  A    between atoms: N_10  and  C_11
REMARK    5  A    between atoms: C_11  and  C_12
REMARK    6  A    between atoms: C_12  and  C_14
REMARK    7  A    between atoms: C_16  and  C_17
REMARK    8  A    between atoms: C_19  and  C_20
REMARK    9  A    between atoms: C_27  and  C_28
REMARK                            x       y       z     vdW  Elec       q    Type
REMARK                         _______ _______ _______ _____ _____    ______ ____
ROOT
ATOM      1  C   UNL     1       2.684   4.200  18.909  0.00  0.00    +0.000 C 
ATOM      2  C   UNL     1       2.210   3.646  17.543  0.00  0.00    +0.000 C 
ATOM      3  C   UNL     1       2.325   2.128  17.462  0.00  0.00    +0.000 C 
ATOM      4  O   UNL     1       1.622   1.509  18.535  0.00  0.00    +0.000 OA
ATOM      5  C   UNL     1       2.160   1.863  19.802  0.00  0.00    +0.000 C 
ATOM      6  C   UNL     1       2.045   3.360  20.046  0.00  0.00    +0.000 C 
ENDROOT
BRANCH   1   9
ATOM      7  C   UNL     1       2.110   6.335  20.172  0.00  0.00    +0.000 C 
ATOM      8  O   UNL     1       2.237   5.820  21.275  0.00  0.00    +0.000 OA
ATOM      9  N   UNL     1       2.342   5.654  18.985  0.00  0.00    +0.000 N 
ATOM     10  H   UNL     1       2.009   6.092  18.133  0.00  0.00    +0.000 HD
BRANCH   7  15
ATOM     11  C   UNL     1       1.626   9.923  18.908  0.00  0.00    +0.000 A 
ATOM     12  C   UNL     1       0.835  10.441  19.937  0.00  0.00    +0.000 A 
ATOM     13  C   UNL     1       0.488   9.643  21.023  0.00  0.00    +0.000 A 
ATOM     14  C   UNL     1       0.939   8.325  21.091  0.00  0.00    +0.000 A 
ATOM     15  C   UNL     1       1.733   7.780  20.066  0.00  0.00    +0.000 A 
ATOM     16  C   UNL     1       2.060   8.575  18.940  0.00  0.00    +0.000 A 
ATOM     17  C   UNL     1       2.878   8.086  17.769  0.00  0.00    +0.000 C 
BRANCH  11  19
ATOM     18  C   UNL     1       2.444  11.973  18.021  0.00  0.00    +0.000 C 
ATOM     19  O   UNL     1       1.980  10.647  17.795  0.00  0.00    +0.000 OA
ENDBRANCH  11  19
ENDBRANCH   7  15
ENDBRANCH   1   9
BRANCH   1  20
ATOM     20  C   UNL     1       4.255   4.098  18.990  0.00  0.00    +0.000 C 
ATOM     21  O   UNL     1       4.814   3.554  19.946  0.00  0.00    +0.000 OA
BRANCH  20  22
ATOM     22  C   UNL     1       5.142   4.666  17.916  0.00  0.00    +0.000 A 
ATOM     23  C   UNL     1       5.227   4.112  16.638  0.00  0.00    +0.000 A 
ATOM     24  C   UNL     1       6.059   4.661  15.658  0.00  0.00    +0.000 A 
ATOM     25  C   UNL     1       6.117   4.039  14.294  0.00  0.00    +0.000 C 
ATOM     26  C   UNL     1       6.823   5.790  15.966  0.00  0.00    +0.000 A 
ATOM     27  C   UNL     1       6.758   6.372  17.238  0.00  0.00    +0.000 A 
ATOM     28  C   UNL     1       7.571   7.593  17.560  0.00  0.00    +0.000 C 
ATOM     29  C   UNL     1       5.918   5.801  18.209  0.00  0.00    +0.000 A 
ENDBRANCH  20  22
ENDBRANCH   1  20
TORSDOF 5
ENDMDL
MODEL 6
REMARK VINA RESULT:      -8.3      0.929      2.320
REMARK  Name = 
REMARK  9 active torsions:
REMARK  status: ('A' for Active; 'I' for Inactive)
REMARK    1  A    between atoms: C_1  and  O_2
REMARK    2  A    between atoms: O_2  and  C_3
REMARK    3  A    between atoms: C_7  and  C_8
REMARK    4  A    between atoms: N_10  and  C_11
REMARK    5  A    between atoms: C_11  and  C_12
REMARK    6  A    between atoms: C_12  and  C_14
REMARK    7  A    between atoms: C_16  and  C_17
REMARK    8  A    between atoms: C_19  and  C_20
REMARK    9  A    between atoms: C_27  and  C_28
REMARK                            x       y       z     vdW  Elec       q    Type
REMARK                         _______ _______ _______ _____ _____    ______ ____
ROOT
ATOM      1  C   UNL     1       2.733   4.166  18.869  0.00  0.00    +0.000 C 
ATOM      2  C   UNL     1       2.276   3.620  17.494  0.00  0.00    +0.000 C 
ATOM      3  C   UNL     1       2.406   2.104  17.400  0.00  0.00    +0.000 C 
ATOM      4  O   UNL     1       1.700   1.469  18.461  0.00  0.00    +0.000 OA
ATOM      5  C   UNL     1       2.224   1.815  19.736  0.00  0.00    +0.000 C 
ATOM      6  C   UNL     1       2.093   3.309  19.992  0.00  0.00    +0.000 C 
ENDROOT
BRANCH   1   9
ATOM      7  C   UNL     1       2.133   6.284  20.148  0.00  0.00    +0.000 C 
ATOM      8  O   UNL     1       2.260   5.762  21.246  0.00  0.00    +0.000 OA
ATOM      9  N   UNL     1       2.376   5.616  18.956  0.00  0.00    +0.000 N 
ATOM     10  H   UNL     1       2.043   6.058  18.106  0.00  0.00    +0.000 HD
BRANCH   7  15
ATOM     11  C   UNL     1       1.607   9.874  18.907  0.00  0.00    +0.000 A 
ATOM     12  C   UNL     1       0.819  10.380  19.944  0.00  0.00    +0.000 A 
ATOM     13  C   UNL     1       0.487   9.573  21.028  0.00  0.00    +0.000 A 
ATOM     14  C   UNL     1       0.949   8.259  21.086  0.00  0.00    +0.000 A 
ATOM     15  C   UNL     1       1.741   7.726  20.052  0.00  0.00    +0.000 A 
ATOM     16  C   UNL     1       2.053   8.531  18.928  0.00  0.00    +0.000 A 
ATOM     17  C   UNL     1       2.867   8.055  17.749  0.00  0.00    +0.000 C 
BRANCH  11  19
ATOM     18  C   UNL     1       2.459  11.915  18.028  0.00  0.00    +0.000 C 
ATOM     19  O   UNL     1       1.946  10.607  17.795  0.00  0.00    +0.000 OA
ENDBRANCH  11  19
ENDBRANCH   7  15
ENDBRANCH   1   9
BRANCH   1  20
ATOM     20  C   UNL     1       4.304   4.078  18.963  0.00  0.00    +0.000 C 
ATOM     21  O   UNL     1       4.859   3.492  19.896  0.00  0.00    +0.000 OA
BRANCH  20  22
ATOM     22  C   UNL     1       5.195   4.712  17.930  0.00  0.00    +0.000 A 
ATOM     23  C   UNL     1       5.963   5.848  18.192  0.00  0.00    +0.000 A 
ATOM     24  C   UNL     1       6.783   6.417  17.213  0.00  0.00    +0.000 A 
ATOM     25  C   UNL     1       7.597   7.634  17.536  0.00  0.00    +0.000 C 
ATOM     26  C   UNL     1       6.835   5.834  15.943  0.00  0.00    +0.000 A 
ATOM     27  C   UNL     1       6.079   4.691  15.649  0.00  0.00    +0.000 A 
ATOM     28  C   UNL     1       6.148   4.062  14.288  0.00  0.00    +0.000 C 
ATOM     29  C   UNL     1       5.258   4.140  16.647  0.00  0.00    +0.000 A 
ENDBRANCH  20  22
ENDBRANCH   1  20
TORSDOF 5
ENDMDL
MODEL 7
REMARK VINA RESULT:      -8.2      1.263      2.602
REMARK  Name = 
REMARK  9 active torsions:
REMARK  status: ('A' for Active; 'I' for Inactive)
REMARK    1  A    between atoms: C_1  and  O_2
REMARK    2  A    between atoms: O_2  and  C_3
REMARK    3  A    between atoms: C_7  and  C_8
REMARK    4  A    between atoms: N_10  and  C_11
REMARK    5  A    between atoms: C_11  and  C_12
REMARK    6  A    between atoms: C_12  and  C_14
REMARK    7  A    between atoms: C_16  and  C_17
REMARK    8  A    between atoms: C_19  and  C_20
REMARK    9  A    between atoms: C_27  and  C_28
REMARK                            x       y       z     vdW  Elec       q    Type
REMARK                         _______ _______ _______ _____ _____    ______ ____
ROOT
ATOM      1  C   UNL     1       2.779   4.365  18.880  0.00  0.00    +0.000 C 
ATOM      2  C   UNL     1       1.543   3.503  19.238  0.00  0.00    +0.000 C 
ATOM      3  C   UNL     1       1.880   2.019  19.328  0.00  0.00    +0.000 C 
ATOM      4  O   UNL     1       2.942   1.796  20.250  0.00  0.00    +0.000 OA
ATOM      5  C   UNL     1       4.146   2.432  19.844  0.00  0.00    +0.000 C 
ATOM      6  C   UNL     1       3.970   3.942  19.779  0.00  0.00    +0.000 C 
ENDROOT
BRANCH   1   9
ATOM      7  C   UNL     1       1.972   6.386  20.202  0.00  0.00    +0.000 C 
ATOM      8  O   UNL     1       1.906   5.777  21.261  0.00  0.00    +0.000 OA
ATOM      9  N   UNL     1       2.417   5.809  19.021  0.00  0.00    +0.000 N 
ATOM     10  H   UNL     1       2.237   6.322  18.164  0.00  0.00    +0.000 HD
BRANCH   7  15
ATOM     11  C   UNL     1       1.475  10.016  19.070  0.00  0.00    +0.000 A 
ATOM     12  C   UNL     1       0.736  10.511  20.148  0.00  0.00    +0.000 A 
ATOM     13  C   UNL     1       0.427   9.683  21.224  0.00  0.00    +0.000 A 
ATOM     14  C   UNL     1       0.865   8.359  21.232  0.00  0.00    +0.000 A 
ATOM     15  C   UNL     1       1.607   7.838  20.156  0.00  0.00    +0.000 A 
ATOM     16  C   UNL     1       1.894   8.664  19.042  0.00  0.00    +0.000 A 
ATOM     17  C   UNL     1       2.655   8.202  17.822  0.00  0.00    +0.000 C 
BRANCH  11  19
ATOM     18  C   UNL     1       2.286  12.081  18.210  0.00  0.00    +0.000 C 
ATOM     19  O   UNL     1       1.789  10.770  17.965  0.00  0.00    +0.000 OA
ENDBRANCH  11  19
ENDBRANCH   7  15
ENDBRANCH   1   9
BRANCH   1  20
ATOM     20  C   UNL     1       3.148   4.135  17.365  0.00  0.00    +0.000 C 
ATOM     21  O   UNL     1       2.379   3.547  16.600  0.00  0.00    +0.000 OA
BRANCH  20  22
ATOM     22  C   UNL     1       4.453   4.611  16.787  0.00  0.00    +0.000 A 
ATOM     23  C   UNL     1       5.276   5.529  17.441  0.00  0.00    +0.000 A 
ATOM     24  C   UNL     1       6.484   5.954  16.881  0.00  0.00    +0.000 A 
ATOM     25  C   UNL     1       7.344   6.936  17.618  0.00  0.00    +0.000 C 
ATOM     26  C   UNL     1       6.877   5.448  15.638  0.00  0.00    +0.000 A 
ATOM     27  C   UNL     1       6.074   4.522  14.958  0.00  0.00    +0.000 A 
ATOM     28  C   UNL     1       6.506   3.972  13.629  0.00  0.00    +0.000 C 
ATOM     29  C   UNL     1       4.861   4.113  15.537  0.00  0.00    +0.000 A 
ENDBRANCH  20  22
ENDBRANCH   1  20
TORSDOF 5
ENDMDL
MODEL 8
REMARK VINA RESULT:      -8.0      1.263      2.056
REMARK  Name = 
REMARK  9 active torsions:
REMARK  status: ('A' for Active; 'I' for Inactive)
REMARK    1  A    between atoms: C_1  and  O_2
REMARK    2  A    between atoms: O_2  and  C_3
REMARK    3  A    between atoms: C_7  and  C_8
REMARK    4  A    between atoms: N_10  and  C_11
REMARK    5  A    between atoms: C_11  and  C_12
REMARK    6  A    between atoms: C_12  and  C_14
REMARK    7  A    between atoms: C_16  and  C_17
REMARK    8  A    between atoms: C_19  and  C_20
REMARK    9  A    between atoms: C_27  and  C_28
REMARK                            x       y       z     vdW  Elec       q    Type
REMARK                         _______ _______ _______ _____ _____    ______ ____
ROOT
ATOM      1  C   UNL     1       2.809   4.389  18.924  0.00  0.00    +0.000 C 
ATOM      2  C   UNL     1       1.579   3.541  19.332  0.00  0.00    +0.000 C 
ATOM      3  C   UNL     1       1.905   2.054  19.423  0.00  0.00    +0.000 C 
ATOM      4  O   UNL     1       2.997   1.829  20.310  0.00  0.00    +0.000 OA
ATOM      5  C   UNL     1       4.192   2.452  19.857  0.00  0.00    +0.000 C 
ATOM      6  C   UNL     1       4.027   3.962  19.785  0.00  0.00    +0.000 C 
ENDROOT
BRANCH   1   9
ATOM      7  C   UNL     1       1.919   6.397  20.212  0.00  0.00    +0.000 C 
ATOM      8  O   UNL     1       1.738   5.765  21.244  0.00  0.00    +0.000 OA
ATOM      9  N   UNL     1       2.464   5.837  19.065  0.00  0.00    +0.000 N 
ATOM     10  H   UNL     1       2.378   6.374  18.208  0.00  0.00    +0.000 HD
BRANCH   7  15
ATOM     11  C   UNL     1       1.531  10.044  19.091  0.00  0.00    +0.000 A 
ATOM     12  C   UNL     1       0.783  10.550  20.157  0.00  0.00    +0.000 A 
ATOM     13  C   UNL     1       0.434   9.724  21.222  0.00  0.00    +0.000 A 
ATOM     14  C   UNL     1       0.839   8.391  21.231  0.00  0.00    +0.000 A 
ATOM     15  C   UNL     1       1.590   7.857  20.167  0.00  0.00    +0.000 A 
ATOM     16  C   UNL     1       1.918   8.682  19.063  0.00  0.00    +0.000 A 
ATOM     17  C   UNL     1       2.691   8.209  17.856  0.00  0.00    +0.000 C 
BRANCH  11  19
ATOM     18  C   UNL     1       2.196  12.163  18.239  0.00  0.00    +0.000 C 
ATOM     19  O   UNL     1       1.884  10.796  17.997  0.00  0.00    +0.000 OA
ENDBRANCH  11  19
ENDBRANCH   7  15
ENDBRANCH   1   9
BRANCH   1  20
ATOM     20  C   UNL     1       3.123   4.143  17.399  0.00  0.00    +0.000 C 
ATOM     21  O   UNL     1       2.307   3.589  16.657  0.00  0.00    +0.000 OA
BRANCH  20  22
ATOM     22  C   UNL     1       4.430   4.562  16.783  0.00  0.00    +0.000 A 
ATOM     23  C   UNL     1       4.860   4.097  15.539  0.00  0.00    +0.000 A 
ATOM     24  C   UNL     1       6.080   4.503  14.990  0.00  0.00    +0.000 A 
ATOM     25  C   UNL     1       6.503   3.985  13.648  0.00  0.00    +0.000 C 
ATOM     26  C   UNL     1       6.886   5.395  15.702  0.00  0.00    +0.000 A 
ATOM     27  C   UNL     1       6.481   5.883  16.952  0.00  0.00    +0.000 A 
ATOM     28  C   UNL     1       7.345   6.852  17.707  0.00  0.00    +0.000 C 
ATOM     29  C   UNL     1       5.254   5.458  17.487  0.00  0.00    +0.000 A 
ENDBRANCH  20  22
ENDBRANCH   1  20
TORSDOF 5
ENDMDL
MODEL 9
REMARK VINA RESULT:      -7.8      1.540      2.651
REMARK  Name = 
REMARK  9 active torsions:
REMARK  status: ('A' for Active; 'I' for Inactive)
REMARK    1  A    between atoms: C_1  and  O_2
REMARK    2  A    between atoms: O_2  and  C_3
REMARK    3  A    between atoms: C_7  and  C_8
REMARK    4  A    between atoms: N_10  and  C_11
REMARK    5  A    between atoms: C_11  and  C_12
REMARK    6  A    between atoms: C_12  and  C_14
REMARK    7  A    between atoms: C_16  and  C_17
REMARK    8  A    between atoms: C_19  and  C_20
REMARK    9  A    between atoms: C_27  and  C_28
REMARK                            x       y       z     vdW  Elec       q    Type
REMARK                         _______ _______ _______ _____ _____    ______ ____
ROOT
ATOM      1  C   UNL     1       3.368   4.985  18.498  0.00  0.00    +0.000 C 
ATOM      2  C   UNL     1       2.208   4.307  17.728  0.00  0.00    +0.000 C 
ATOM      3  C   UNL     1       2.494   2.841  17.424  0.00  0.00    +0.000 C 
ATOM      4  O   UNL     1       2.799   2.127  18.618  0.00  0.00    +0.000 OA
ATOM      5  C   UNL     1       3.974   2.618  19.250  0.00  0.00    +0.000 C 
ATOM      6  C   UNL     1       3.800   4.069  19.673  0.00  0.00    +0.000 C 
ENDROOT
BRANCH   1   9
ATOM      7  C   UNL     1       1.992   6.567  19.942  0.00  0.00    +0.000 C 
ATOM      8  O   UNL     1       1.498   5.669  20.609  0.00  0.00    +0.000 OA
ATOM      9  N   UNL     1       2.925   6.344  18.940  0.00  0.00    +0.000 N 
ATOM     10  H   UNL     1       3.114   7.115  18.309  0.00  0.00    +0.000 HD
BRANCH   7  15
ATOM     11  C   UNL     1       1.099  10.278  19.567  0.00  0.00    +0.000 A 
ATOM     12  C   UNL     1       0.797  10.593  20.895  0.00  0.00    +0.000 A 
ATOM     13  C   UNL     1       0.904   9.622  21.886  0.00  0.00    +0.000 A 
ATOM     14  C   UNL     1       1.322   8.334  21.558  0.00  0.00    +0.000 A 
ATOM     15  C   UNL     1       1.627   7.991  20.228  0.00  0.00    +0.000 A 
ATOM     16  C   UNL     1       1.486   8.964  19.207  0.00  0.00    +0.000 A 
ATOM     17  C   UNL     1       1.756   8.700  17.745  0.00  0.00    +0.000 C 
BRANCH  11  19
ATOM     18  C   UNL     1       0.455  12.458  18.865  0.00  0.00    +0.000 C 
ATOM     19  O   UNL     1       0.987  11.179  18.536  0.00  0.00    +0.000 OA
ENDBRANCH  11  19
ENDBRANCH   7  15
ENDBRANCH   1   9
BRANCH   1  20
ATOM     20  C   UNL     1       4.583   5.200  17.517  0.00  0.00    +0.000 C 
ATOM     21  O   UNL     1       4.530   4.836  16.340  0.00  0.00    +0.000 OA
BRANCH  20  22
ATOM     22  C   UNL     1       5.863   5.849  17.972  0.00  0.00    +0.000 A 
ATOM     23  C   UNL     1       6.308   7.072  17.468  0.00  0.00    +0.000 A 
ATOM     24  C   UNL     1       7.501   7.651  17.909  0.00  0.00    +0.000 A 
ATOM     25  C   UNL     1       7.943   8.970  17.348  0.00  0.00    +0.000 C 
ATOM     26  C   UNL     1       8.265   6.991  18.877  0.00  0.00    +0.000 A 
ATOM     27  C   UNL     1       7.843   5.764  19.405  0.00  0.00    +0.000 A 
ATOM     28  C   UNL     1       8.660   5.065  20.453  0.00  0.00    +0.000 C 
ATOM     29  C   UNL     1       6.643   5.197  18.944  0.00  0.00    +0.000 A 
ENDBRANCH  20  22
ENDBRANCH   1  20
TORSDOF 5
ENDMDL
