MODEL 1
REMARK VINA RESULT:      -6.0      0.000      0.000
REMARK  Name = 
REMARK  12 active torsions:
REMARK  status: ('A' for Active; 'I' for Inactive)
REMARK    1  A    between atoms: C_4  and  C_5
REMARK    2  A    between atoms: C_5  and  O_6
REMARK    3  A    between atoms: C_5  and  C_7
REMARK    4  A    between atoms: C_7  and  O_8
REMARK    5  A    between atoms: C_9  and  O_10
REMARK    6  A    between atoms: C_14  and  O_15
REMARK    7  A    between atoms: C_19  and  O_20
REMARK    8  A    between atoms: C_22  and  C_23
REMARK    9  A    between atoms: C_25  and  O_26
REMARK   10  A    between atoms: C_27  and  O_28
REMARK   11  A    between atoms: C_29  and  O_30
REMARK   12  A    between atoms: C_32  and  O_33
REMARK                            x       y       z     vdW  Elec       q    Type
REMARK                         _______ _______ _______ _____ _____    ______ ____
ROOT
ATOM      1  O   UNL     1       1.067  16.775  17.821  0.00  0.00    +0.000 OA
ATOM      2  C   UNL     1       2.053  16.565  18.512  0.00  0.00    +0.000 C 
ATOM      3  O   UNL     1       3.221  17.300  18.408  0.00  0.00    +0.000 OA
ATOM      4  C   UNL     1       4.074  16.855  19.466  0.00  0.00    +0.000 C 
ATOM      5  C   UNL     1       3.707  15.394  19.651  0.00  0.00    +0.000 C 
ATOM      6  O   UNL     1       4.031  14.541  18.509  0.00  0.00    +0.000 OA
ATOM      7  C   UNL     1       2.956  13.669  18.480  0.00  0.00    +0.000 A 
ATOM      8  C   UNL     1       2.954  12.446  17.847  0.00  0.00    +0.000 A 
ATOM      9  C   UNL     1       1.879  11.600  18.122  0.00  0.00    +0.000 A 
ATOM     10  C   UNL     1       0.877  11.952  19.053  0.00  0.00    +0.000 A 
ATOM     11  C   UNL     1       0.867  13.237  19.609  0.00  0.00    +0.000 A 
ATOM     12  C   UNL     1       1.880  14.115  19.247  0.00  0.00    +0.000 A 
ATOM     13  C   UNL     1       2.177  15.515  19.641  0.00  0.00    +0.000 C 
ATOM     14  O   UNL     1       0.007  13.643  20.591  0.00  0.00    +0.000 OA
ATOM     15  C   UNL     1      -1.060  12.739  20.958  0.00  0.00    +0.000 C 
ATOM     16  C   UNL     1      -0.655  11.249  20.885  0.00  0.00    +0.000 C 
ATOM     17  C   UNL     1      -0.150  10.936  19.480  0.00  0.00    +0.000 C 
ENDROOT
BRANCH  15  18
ATOM     18  C   UNL     1      -1.652  13.121  22.320  0.00  0.00    +0.000 A 
ATOM     19  C   UNL     1      -1.169  14.209  23.077  0.00  0.00    +0.000 A 
ATOM     20  C   UNL     1      -1.792  14.566  24.275  0.00  0.00    +0.000 A 
ATOM     21  C   UNL     1      -2.885  13.847  24.742  0.00  0.00    +0.000 A 
ATOM     22  C   UNL     1      -3.354  12.762  24.026  0.00  0.00    +0.000 A 
ATOM     23  C   UNL     1      -2.756  12.397  22.826  0.00  0.00    +0.000 A 
BRANCH  20  24
ATOM     24  O   UNL     1      -1.372  15.631  25.023  0.00  0.00    +0.000 OA
ATOM     25  H   UNL     1      -0.669  15.323  25.622  0.00  0.00    +0.000 HD
ENDBRANCH  20  24
BRANCH  21  26
ATOM     26  O   UNL     1      -3.511  14.203  25.905  0.00  0.00    +0.000 OA
ATOM     27  H   UNL     1      -2.805  14.154  26.581  0.00  0.00    +0.000 HD
ENDBRANCH  21  26
BRANCH  22  28
ATOM     28  O   UNL     1      -4.434  12.055  24.479  0.00  0.00    +0.000 OA
ATOM     29  H   UNL     1      -4.853  12.647  25.136  0.00  0.00    +0.000 HD
ENDBRANCH  22  28
ENDBRANCH  15  18
BRANCH   5  30
ATOM     30  O   UNL     1       4.242  14.843  20.854  0.00  0.00    +0.000 OA
ATOM     31  H   UNL     1       3.720  14.034  21.032  0.00  0.00    +0.000 HD
ENDBRANCH   5  30
BRANCH   9  32
ATOM     32  O   UNL     1       1.810  10.369  17.532  0.00  0.00    +0.000 OA
ATOM     33  H   UNL     1       2.468   9.779  17.938  0.00  0.00    +0.000 HD
ENDBRANCH   9  32
BRANCH  13  34
ATOM     34  O   UNL     1       1.573  15.975  20.834  0.00  0.00    +0.000 OA
ATOM     35  H   UNL     1       2.023  15.482  21.546  0.00  0.00    +0.000 HD
ENDBRANCH  13  34
BRANCH  16  36
ATOM     36  O   UNL     1       0.343  10.893  21.855  0.00  0.00    +0.000 OA
ATOM     37  H   UNL     1      -0.049  10.991  22.741  0.00  0.00    +0.000 HD
ENDBRANCH  16  36
BRANCH   4  38
ATOM     38  C   UNL     1       5.567  17.118  19.257  0.00  0.00    +0.000 C 
BRANCH  38  39
ATOM     39  O   UNL     1       6.247  15.847  19.352  0.00  0.00    +0.000 OA
ATOM     40  H   UNL     1       6.790  15.773  18.537  0.00  0.00    +0.000 HD
ENDBRANCH  38  39
BRANCH  38  41
ATOM     41  C   UNL     1       6.152  18.043  20.335  0.00  0.00    +0.000 C 
BRANCH  41  42
ATOM     42  O   UNL     1       7.363  18.627  19.847  0.00  0.00    +0.000 OA
ATOM     43  H   UNL     1       7.353  18.549  18.874  0.00  0.00    +0.000 HD
ENDBRANCH  41  42
ENDBRANCH  38  41
ENDBRANCH   4  38
TORSDOF 12
ENDMDL
MODEL 2
REMARK VINA RESULT:      -5.9      4.232      6.267
REMARK  Name = 
REMARK  12 active torsions:
REMARK  status: ('A' for Active; 'I' for Inactive)
REMARK    1  A    between atoms: C_4  and  C_5
REMARK    2  A    between atoms: C_5  and  O_6
REMARK    3  A    between atoms: C_5  and  C_7
REMARK    4  A    between atoms: C_7  and  O_8
REMARK    5  A    between atoms: C_9  and  O_10
REMARK    6  A    between atoms: C_14  and  O_15
REMARK    7  A    between atoms: C_19  and  O_20
REMARK    8  A    between atoms: C_22  and  C_23
REMARK    9  A    between atoms: C_25  and  O_26
REMARK   10  A    between atoms: C_27  and  O_28
REMARK   11  A    between atoms: C_29  and  O_30
REMARK   12  A    between atoms: C_32  and  O_33
REMARK                            x       y       z     vdW  Elec       q    Type
REMARK                         _______ _______ _______ _____ _____    ______ ____
ROOT
ATOM      1  O   UNL     1       0.102  13.496  18.546  0.00  0.00    +0.000 OA
ATOM      2  C   UNL     1       0.106  12.358  18.991  0.00  0.00    +0.000 C 
ATOM      3  O   UNL     1       1.266  11.629  19.196  0.00  0.00    +0.000 OA
ATOM      4  C   UNL     1       0.874  10.422  19.852  0.00  0.00    +0.000 C 
ATOM      5  C   UNL     1      -0.520  10.142  19.319  0.00  0.00    +0.000 C 
ATOM      6  O   UNL     1      -0.568   9.839  17.889  0.00  0.00    +0.000 OA
ATOM      7  C   UNL     1      -1.738  10.469  17.496  0.00  0.00    +0.000 A 
ATOM      8  C   UNL     1      -2.438  10.177  16.347  0.00  0.00    +0.000 A 
ATOM      9  C   UNL     1      -3.713  10.734  16.231  0.00  0.00    +0.000 A 
ATOM     10  C   UNL     1      -4.282  11.504  17.269  0.00  0.00    +0.000 A 
ATOM     11  C   UNL     1      -3.507  11.850  18.382  0.00  0.00    +0.000 A 
ATOM     12  C   UNL     1      -2.200  11.384  18.441  0.00  0.00    +0.000 A 
ATOM     13  C   UNL     1      -1.126  11.546  19.454  0.00  0.00    +0.000 C 
ATOM     14  O   UNL     1      -3.990  12.502  19.483  0.00  0.00    +0.000 OA
ATOM     15  C   UNL     1      -5.344  13.005  19.418  0.00  0.00    +0.000 C 
ATOM     16  C   UNL     1      -6.297  12.101  18.603  0.00  0.00    +0.000 C 
ATOM     17  C   UNL     1      -5.730  11.913  17.200  0.00  0.00    +0.000 C 
ENDROOT
BRANCH  15  18
ATOM     18  C   UNL     1      -5.879  13.308  20.823  0.00  0.00    +0.000 A 
ATOM     19  C   UNL     1      -5.548  12.520  21.945  0.00  0.00    +0.000 A 
ATOM     20  C   UNL     1      -5.998  12.882  23.217  0.00  0.00    +0.000 A 
ATOM     21  C   UNL     1      -6.786  14.013  23.391  0.00  0.00    +0.000 A 
ATOM     22  C   UNL     1      -7.141  14.781  22.298  0.00  0.00    +0.000 A 
ATOM     23  C   UNL     1      -6.696  14.444  21.025  0.00  0.00    +0.000 A 
BRANCH  20  24
ATOM     24  O   UNL     1      -5.675  12.161  24.334  0.00  0.00    +0.000 OA
ATOM     25  H   UNL     1      -5.705  12.761  25.101  0.00  0.00    +0.000 HD
ENDBRANCH  20  24
BRANCH  21  26
ATOM     26  O   UNL     1      -7.213  14.384  24.637  0.00  0.00    +0.000 OA
ATOM     27  H   UNL     1      -6.386  14.553  25.131  0.00  0.00    +0.000 HD
ENDBRANCH  21  26
BRANCH  22  28
ATOM     28  O   UNL     1      -7.912  15.898  22.465  0.00  0.00    +0.000 OA
ATOM     29  H   UNL     1      -8.775  15.554  22.772  0.00  0.00    +0.000 HD
ENDBRANCH  22  28
ENDBRANCH  15  18
BRANCH   5  30
ATOM     30  O   UNL     1      -1.202   9.136  20.067  0.00  0.00    +0.000 OA
ATOM     31  H   UNL     1      -2.099   9.491  20.233  0.00  0.00    +0.000 HD
ENDBRANCH   5  30
BRANCH   9  32
ATOM     32  O   UNL     1      -4.467  10.487  15.119  0.00  0.00    +0.000 OA
ATOM     33  H   UNL     1      -5.407  10.459  15.367  0.00  0.00    +0.000 HD
ENDBRANCH   9  32
BRANCH  13  34
ATOM     34  O   UNL     1      -1.536  11.934  20.749  0.00  0.00    +0.000 OA
ATOM     35  H   UNL     1      -1.863  12.849  20.642  0.00  0.00    +0.000 HD
ENDBRANCH  13  34
BRANCH  16  36
ATOM     36  O   UNL     1      -6.516  10.822  19.219  0.00  0.00    +0.000 OA
ATOM     37  H   UNL     1      -7.074  10.291  18.622  0.00  0.00    +0.000 HD
ENDBRANCH  16  36
BRANCH   4  38
ATOM     38  C   UNL     1       1.855   9.255  19.718  0.00  0.00    +0.000 C 
BRANCH  38  39
ATOM     39  O   UNL     1       1.681   8.693  18.399  0.00  0.00    +0.000 OA
ATOM     40  H   UNL     1       1.957   7.753  18.470  0.00  0.00    +0.000 HD
ENDBRANCH  38  39
BRANCH  38  41
ATOM     41  C   UNL     1       1.581   8.142  20.740  0.00  0.00    +0.000 C 
BRANCH  41  42
ATOM     42  O   UNL     1       1.185   8.731  21.982  0.00  0.00    +0.000 OA
ATOM     43  H   UNL     1       1.106   8.009  22.634  0.00  0.00    +0.000 HD
ENDBRANCH  41  42
ENDBRANCH  38  41
ENDBRANCH   4  38
TORSDOF 12
ENDMDL
MODEL 3
REMARK VINA RESULT:      -5.8      2.179      3.952
REMARK  Name = 
REMARK  12 active torsions:
REMARK  status: ('A' for Active; 'I' for Inactive)
REMARK    1  A    between atoms: C_4  and  C_5
REMARK    2  A    between atoms: C_5  and  O_6
REMARK    3  A    between atoms: C_5  and  C_7
REMARK    4  A    between atoms: C_7  and  O_8
REMARK    5  A    between atoms: C_9  and  O_10
REMARK    6  A    between atoms: C_14  and  O_15
REMARK    7  A    between atoms: C_19  and  O_20
REMARK    8  A    between atoms: C_22  and  C_23
REMARK    9  A    between atoms: C_25  and  O_26
REMARK   10  A    between atoms: C_27  and  O_28
REMARK   11  A    between atoms: C_29  and  O_30
REMARK   12  A    between atoms: C_32  and  O_33
REMARK                            x       y       z     vdW  Elec       q    Type
REMARK                         _______ _______ _______ _____ _____    ______ ____
ROOT
ATOM      1  O   UNL     1       4.832  16.931  21.409  0.00  0.00    +0.000 OA
ATOM      2  C   UNL     1       5.041  16.200  20.453  0.00  0.00    +0.000 C 
ATOM      3  O   UNL     1       6.282  16.073  19.852  0.00  0.00    +0.000 OA
ATOM      4  C   UNL     1       6.156  15.033  18.880  0.00  0.00    +0.000 C 
ATOM      5  C   UNL     1       4.715  15.130  18.414  0.00  0.00    +0.000 C 
ATOM      6  O   UNL     1       4.392  16.366  17.703  0.00  0.00    +0.000 OA
ATOM      7  C   UNL     1       3.111  16.637  18.153  0.00  0.00    +0.000 A 
ATOM      8  C   UNL     1       2.214  17.464  17.516  0.00  0.00    +0.000 A 
ATOM      9  C   UNL     1       0.896  17.432  17.975  0.00  0.00    +0.000 A 
ATOM     10  C   UNL     1       0.489  16.549  18.999  0.00  0.00    +0.000 A 
ATOM     11  C   UNL     1       1.447  15.788  19.680  0.00  0.00    +0.000 A 
ATOM     12  C   UNL     1       2.774  15.905  19.292  0.00  0.00    +0.000 A 
ATOM     13  C   UNL     1       4.019  15.256  19.776  0.00  0.00    +0.000 C 
ATOM     14  O   UNL     1       1.148  14.833  20.612  0.00  0.00    +0.000 OA
ATOM     15  C   UNL     1      -0.230  14.720  21.033  0.00  0.00    +0.000 C 
ATOM     16  C   UNL     1      -1.244  15.005  19.901  0.00  0.00    +0.000 C 
ATOM     17  C   UNL     1      -0.973  16.392  19.326  0.00  0.00    +0.000 C 
ENDROOT
BRANCH  15  18
ATOM     18  C   UNL     1      -0.480  13.372  21.720  0.00  0.00    +0.000 A 
ATOM     19  C   UNL     1      -1.636  13.117  22.488  0.00  0.00    +0.000 A 
ATOM     20  C   UNL     1      -1.855  11.848  23.031  0.00  0.00    +0.000 A 
ATOM     21  C   UNL     1      -0.934  10.828  22.832  0.00  0.00    +0.000 A 
ATOM     22  C   UNL     1       0.217  11.069  22.105  0.00  0.00    +0.000 A 
ATOM     23  C   UNL     1       0.449  12.321  21.547  0.00  0.00    +0.000 A 
BRANCH  20  24
ATOM     24  O   UNL     1      -2.977  11.553  23.756  0.00  0.00    +0.000 OA
ATOM     25  H   UNL     1      -3.456  12.383  23.926  0.00  0.00    +0.000 HD
ENDBRANCH  20  24
BRANCH  21  26
ATOM     26  O   UNL     1      -1.153   9.578  23.344  0.00  0.00    +0.000 OA
ATOM     27  H   UNL     1      -0.624   8.990  22.769  0.00  0.00    +0.000 HD
ENDBRANCH  21  26
BRANCH  22  28
ATOM     28  O   UNL     1       1.123  10.066  21.901  0.00  0.00    +0.000 OA
ATOM     29  H   UNL     1       1.971  10.437  22.222  0.00  0.00    +0.000 HD
ENDBRANCH  22  28
ENDBRANCH  15  18
BRANCH   5  30
ATOM     30  O   UNL     1       4.307  13.994  17.653  0.00  0.00    +0.000 OA
ATOM     31  H   UNL     1       4.701  14.113  16.764  0.00  0.00    +0.000 HD
ENDBRANCH   5  30
BRANCH   9  32
ATOM     32  O   UNL     1      -0.051  18.224  17.389  0.00  0.00    +0.000 OA
ATOM     33  H   UNL     1      -0.920  18.029  17.778  0.00  0.00    +0.000 HD
ENDBRANCH   9  32
BRANCH  13  34
ATOM     34  O   UNL     1       3.858  14.063  20.516  0.00  0.00    +0.000 OA
ATOM     35  H   UNL     1       3.096  13.614  20.102  0.00  0.00    +0.000 HD
ENDBRANCH  13  34
BRANCH  16  36
ATOM     36  O   UNL     1      -1.203  14.024  18.854  0.00  0.00    +0.000 OA
ATOM     37  H   UNL     1      -1.301  14.486  18.003  0.00  0.00    +0.000 HD
ENDBRANCH  16  36
BRANCH   4  38
ATOM     38  C   UNL     1       7.194  15.060  17.755  0.00  0.00    +0.000 C 
BRANCH  38  39
ATOM     39  O   UNL     1       7.344  13.707  17.274  0.00  0.00    +0.000 OA
ATOM     40  H   UNL     1       8.090  13.322  17.785  0.00  0.00    +0.000 HD
ENDBRANCH  38  39
BRANCH  38  41
ATOM     41  C   UNL     1       8.570  15.538  18.244  0.00  0.00    +0.000 C 
BRANCH  41  42
ATOM     42  O   UNL     1       8.569  16.965  18.329  0.00  0.00    +0.000 OA
ATOM     43  H   UNL     1       9.494  17.263  18.237  0.00  0.00    +0.000 HD
ENDBRANCH  41  42
ENDBRANCH  38  41
ENDBRANCH   4  38
TORSDOF 12
ENDMDL
MODEL 4
REMARK VINA RESULT:      -5.8      4.154      6.126
REMARK  Name = 
REMARK  12 active torsions:
REMARK  status: ('A' for Active; 'I' for Inactive)
REMARK    1  A    between atoms: C_4  and  C_5
REMARK    2  A    between atoms: C_5  and  O_6
REMARK    3  A    between atoms: C_5  and  C_7
REMARK    4  A    between atoms: C_7  and  O_8
REMARK    5  A    between atoms: C_9  and  O_10
REMARK    6  A    between atoms: C_14  and  O_15
REMARK    7  A    between atoms: C_19  and  O_20
REMARK    8  A    between atoms: C_22  and  C_23
REMARK    9  A    between atoms: C_25  and  O_26
REMARK   10  A    between atoms: C_27  and  O_28
REMARK   11  A    between atoms: C_29  and  O_30
REMARK   12  A    between atoms: C_32  and  O_33
REMARK                            x       y       z     vdW  Elec       q    Type
REMARK                         _______ _______ _______ _____ _____    ______ ____
ROOT
ATOM      1  O   UNL     1       0.173  13.575  18.478  0.00  0.00    +0.000 OA
ATOM      2  C   UNL     1       0.188  12.445  18.943  0.00  0.00    +0.000 C 
ATOM      3  O   UNL     1       1.351  11.718  19.130  0.00  0.00    +0.000 OA
ATOM      4  C   UNL     1       0.976  10.524  19.819  0.00  0.00    +0.000 C 
ATOM      5  C   UNL     1      -0.432  10.238  19.330  0.00  0.00    +0.000 C 
ATOM      6  O   UNL     1      -0.521   9.908  17.909  0.00  0.00    +0.000 OA
ATOM      7  C   UNL     1      -1.700  10.533  17.536  0.00  0.00    +0.000 A 
ATOM      8  C   UNL     1      -2.433  10.221  16.413  0.00  0.00    +0.000 A 
ATOM      9  C   UNL     1      -3.709  10.779  16.322  0.00  0.00    +0.000 A 
ATOM     10  C   UNL     1      -4.248  11.569  17.360  0.00  0.00    +0.000 A 
ATOM     11  C   UNL     1      -3.441  11.935  18.445  0.00  0.00    +0.000 A 
ATOM     12  C   UNL     1      -2.135  11.467  18.477  0.00  0.00    +0.000 A 
ATOM     13  C   UNL     1      -1.033  11.645  19.455  0.00  0.00    +0.000 C 
ATOM     14  O   UNL     1      -3.893  12.608  19.546  0.00  0.00    +0.000 OA
ATOM     15  C   UNL     1      -5.247  13.113  19.509  0.00  0.00    +0.000 C 
ATOM     16  C   UNL     1      -6.224  12.196  18.739  0.00  0.00    +0.000 C 
ATOM     17  C   UNL     1      -5.697  11.980  17.324  0.00  0.00    +0.000 C 
ENDROOT
BRANCH  15  18
ATOM     18  C   UNL     1      -5.742  13.444  20.923  0.00  0.00    +0.000 A 
ATOM     19  C   UNL     1      -6.584  14.544  21.191  0.00  0.00    +0.000 A 
ATOM     20  C   UNL     1      -7.070  14.760  22.483  0.00  0.00    +0.000 A 
ATOM     21  C   UNL     1      -6.722  13.904  23.519  0.00  0.00    +0.000 A 
ATOM     22  C   UNL     1      -5.876  12.837  23.279  0.00  0.00    +0.000 A 
ATOM     23  C   UNL     1      -5.389  12.598  21.999  0.00  0.00    +0.000 A 
BRANCH  20  24
ATOM     24  O   UNL     1      -7.912  15.797  22.778  0.00  0.00    +0.000 OA
ATOM     25  H   UNL     1      -8.154  15.732  23.719  0.00  0.00    +0.000 HD
ENDBRANCH  20  24
BRANCH  21  26
ATOM     26  O   UNL     1      -7.211  14.098  24.782  0.00  0.00    +0.000 OA
ATOM     27  H   UNL     1      -6.492  13.782  25.367  0.00  0.00    +0.000 HD
ENDBRANCH  21  26
BRANCH  22  28
ATOM     28  O   UNL     1      -5.535  11.988  24.295  0.00  0.00    +0.000 OA
ATOM     29  H   UNL     1      -5.714  12.500  25.109  0.00  0.00    +0.000 HD
ENDBRANCH  22  28
ENDBRANCH  15  18
BRANCH   5  30
ATOM     30  O   UNL     1      -1.095   9.248  20.116  0.00  0.00    +0.000 OA
ATOM     31  H   UNL     1      -0.483   9.035  20.849  0.00  0.00    +0.000 HD
ENDBRANCH   5  30
BRANCH   9  32
ATOM     32  O   UNL     1      -4.495  10.513  15.236  0.00  0.00    +0.000 OA
ATOM     33  H   UNL     1      -5.420  10.421  15.522  0.00  0.00    +0.000 HD
ENDBRANCH   9  32
BRANCH  13  34
ATOM     34  O   UNL     1      -1.406  12.059  20.754  0.00  0.00    +0.000 OA
ATOM     35  H   UNL     1      -2.021  11.368  21.067  0.00  0.00    +0.000 HD
ENDBRANCH  13  34
BRANCH  16  36
ATOM     36  O   UNL     1      -6.428  10.930  19.384  0.00  0.00    +0.000 OA
ATOM     37  H   UNL     1      -7.036  10.405  18.833  0.00  0.00    +0.000 HD
ENDBRANCH  16  36
BRANCH   4  38
ATOM     38  C   UNL     1       1.951   9.353  19.680  0.00  0.00    +0.000 C 
BRANCH  38  39
ATOM     39  O   UNL     1       1.910   8.918  18.303  0.00  0.00    +0.000 OA
ATOM     40  H   UNL     1       2.409   8.072  18.275  0.00  0.00    +0.000 HD
ENDBRANCH  38  39
BRANCH  38  41
ATOM     41  C   UNL     1       1.556   8.158  20.559  0.00  0.00    +0.000 C 
BRANCH  41  42
ATOM     42  O   UNL     1       1.573   8.558  21.932  0.00  0.00    +0.000 OA
ATOM     43  H   UNL     1       1.586   7.745  22.473  0.00  0.00    +0.000 HD
ENDBRANCH  41  42
ENDBRANCH  38  41
ENDBRANCH   4  38
TORSDOF 12
ENDMDL
MODEL 5
REMARK VINA RESULT:      -5.8      3.551      8.090
REMARK  Name = 
REMARK  12 active torsions:
REMARK  status: ('A' for Active; 'I' for Inactive)
REMARK    1  A    between atoms: C_4  and  C_5
REMARK    2  A    between atoms: C_5  and  O_6
REMARK    3  A    between atoms: C_5  and  C_7
REMARK    4  A    between atoms: C_7  and  O_8
REMARK    5  A    between atoms: C_9  and  O_10
REMARK    6  A    between atoms: C_14  and  O_15
REMARK    7  A    between atoms: C_19  and  O_20
REMARK    8  A    between atoms: C_22  and  C_23
REMARK    9  A    between atoms: C_25  and  O_26
REMARK   10  A    between atoms: C_27  and  O_28
REMARK   11  A    between atoms: C_29  and  O_30
REMARK   12  A    between atoms: C_32  and  O_33
REMARK                            x       y       z     vdW  Elec       q    Type
REMARK                         _______ _______ _______ _____ _____    ______ ____
ROOT
ATOM      1  O   UNL     1      -4.616  12.274  23.361  0.00  0.00    +0.000 OA
ATOM      2  C   UNL     1      -4.846  13.338  22.807  0.00  0.00    +0.000 C 
ATOM      3  O   UNL     1      -5.777  14.251  23.275  0.00  0.00    +0.000 OA
ATOM      4  C   UNL     1      -5.652  15.413  22.453  0.00  0.00    +0.000 C 
ATOM      5  C   UNL     1      -5.229  14.870  21.100  0.00  0.00    +0.000 C 
ATOM      6  O   UNL     1      -6.236  14.038  20.443  0.00  0.00    +0.000 OA
ATOM      7  C   UNL     1      -5.462  13.054  19.850  0.00  0.00    +0.000 A 
ATOM      8  C   UNL     1      -5.873  12.253  18.809  0.00  0.00    +0.000 A 
ATOM      9  C   UNL     1      -4.889  11.488  18.180  0.00  0.00    +0.000 A 
ATOM     10  C   UNL     1      -3.529  11.581  18.550  0.00  0.00    +0.000 A 
ATOM     11  C   UNL     1      -3.164  12.340  19.668  0.00  0.00    +0.000 A 
ATOM     12  C   UNL     1      -4.163  13.013  20.358  0.00  0.00    +0.000 A 
ATOM     13  C   UNL     1      -4.134  13.895  21.552  0.00  0.00    +0.000 C 
ATOM     14  O   UNL     1      -1.872  12.577  20.048  0.00  0.00    +0.000 OA
ATOM     15  C   UNL     1      -0.829  11.865  19.343  0.00  0.00    +0.000 C 
ATOM     16  C   UNL     1      -1.142  11.640  17.846  0.00  0.00    +0.000 C 
ATOM     17  C   UNL     1      -2.471  10.904  17.718  0.00  0.00    +0.000 C 
ENDROOT
BRANCH  15  18
ATOM     18  C   UNL     1       0.533  12.534  19.566  0.00  0.00    +0.000 A 
ATOM     19  C   UNL     1       1.522  12.588  18.562  0.00  0.00    +0.000 A 
ATOM     20  C   UNL     1       2.717  13.276  18.788  0.00  0.00    +0.000 A 
ATOM     21  C   UNL     1       2.951  13.903  20.005  0.00  0.00    +0.000 A 
ATOM     22  C   UNL     1       2.002  13.836  21.009  0.00  0.00    +0.000 A 
ATOM     23  C   UNL     1       0.802  13.166  20.801  0.00  0.00    +0.000 A 
BRANCH  20  24
ATOM     24  O   UNL     1       3.689  13.377  17.830  0.00  0.00    +0.000 OA
ATOM     25  H   UNL     1       4.181  14.203  17.984  0.00  0.00    +0.000 HD
ENDBRANCH  20  24
BRANCH  21  26
ATOM     26  O   UNL     1       4.110  14.595  20.225  0.00  0.00    +0.000 OA
ATOM     27  H   UNL     1       4.373  14.336  21.131  0.00  0.00    +0.000 HD
ENDBRANCH  21  26
BRANCH  22  28
ATOM     28  O   UNL     1       2.225  14.457  22.206  0.00  0.00    +0.000 OA
ATOM     29  H   UNL     1       1.715  15.291  22.146  0.00  0.00    +0.000 HD
ENDBRANCH  22  28
ENDBRANCH  15  18
BRANCH   5  30
ATOM     30  O   UNL     1      -4.773  15.893  20.216  0.00  0.00    +0.000 OA
ATOM     31  H   UNL     1      -4.437  16.611  20.791  0.00  0.00    +0.000 HD
ENDBRANCH   5  30
BRANCH   9  32
ATOM     32  O   UNL     1      -5.222  10.670  17.137  0.00  0.00    +0.000 OA
ATOM     33  H   UNL     1      -6.100  10.286  17.297  0.00  0.00    +0.000 HD
ENDBRANCH   9  32
BRANCH  13  34
ATOM     34  O   UNL     1      -2.882  14.461  21.884  0.00  0.00    +0.000 OA
ATOM     35  H   UNL     1      -2.908  14.567  22.855  0.00  0.00    +0.000 HD
ENDBRANCH  13  34
BRANCH  16  36
ATOM     36  O   UNL     1      -1.184  12.863  17.095  0.00  0.00    +0.000 OA
ATOM     37  H   UNL     1      -1.435  13.582  17.702  0.00  0.00    +0.000 HD
ENDBRANCH  16  36
BRANCH   4  38
ATOM     38  C   UNL     1      -6.880  16.326  22.420  0.00  0.00    +0.000 C 
BRANCH  38  39
ATOM     39  O   UNL     1      -7.323  16.405  21.048  0.00  0.00    +0.000 OA
ATOM     40  H   UNL     1      -6.518  16.276  20.499  0.00  0.00    +0.000 HD
ENDBRANCH  38  39
BRANCH  38  41
ATOM     41  C   UNL     1      -6.558  17.752  22.889  0.00  0.00    +0.000 C 
BRANCH  41  42
ATOM     42  O   UNL     1      -5.261  18.123  22.415  0.00  0.00    +0.000 OA
ATOM     43  H   UNL     1      -5.388  18.675  21.620  0.00  0.00    +0.000 HD
ENDBRANCH  41  42
ENDBRANCH  38  41
ENDBRANCH   4  38
TORSDOF 12
ENDMDL
MODEL 6
REMARK VINA RESULT:      -5.8      3.048      8.031
REMARK  Name = 
REMARK  12 active torsions:
REMARK  status: ('A' for Active; 'I' for Inactive)
REMARK    1  A    between atoms: C_4  and  C_5
REMARK    2  A    between atoms: C_5  and  O_6
REMARK    3  A    between atoms: C_5  and  C_7
REMARK    4  A    between atoms: C_7  and  O_8
REMARK    5  A    between atoms: C_9  and  O_10
REMARK    6  A    between atoms: C_14  and  O_15
REMARK    7  A    between atoms: C_19  and  O_20
REMARK    8  A    between atoms: C_22  and  C_23
REMARK    9  A    between atoms: C_25  and  O_26
REMARK   10  A    between atoms: C_27  and  O_28
REMARK   11  A    between atoms: C_29  and  O_30
REMARK   12  A    between atoms: C_32  and  O_33
REMARK                            x       y       z     vdW  Elec       q    Type
REMARK                         _______ _______ _______ _____ _____    ______ ____
ROOT
ATOM      1  O   UNL     1      -3.806  11.904  23.822  0.00  0.00    +0.000 OA
ATOM      2  C   UNL     1      -4.166  12.987  23.386  0.00  0.00    +0.000 C 
ATOM      3  O   UNL     1      -5.140  13.763  23.993  0.00  0.00    +0.000 OA
ATOM      4  C   UNL     1      -5.175  15.000  23.279  0.00  0.00    +0.000 C 
ATOM      5  C   UNL     1      -4.798  14.622  21.858  0.00  0.00    +0.000 C 
ATOM      6  O   UNL     1      -5.770  13.760  21.186  0.00  0.00    +0.000 OA
ATOM      7  C   UNL     1      -4.953  12.910  20.457  0.00  0.00    +0.000 A 
ATOM      8  C   UNL     1      -5.362  12.170  19.371  0.00  0.00    +0.000 A 
ATOM      9  C   UNL     1      -4.359  11.560  18.615  0.00  0.00    +0.000 A 
ATOM     10  C   UNL     1      -2.991  11.748  18.910  0.00  0.00    +0.000 A 
ATOM     11  C   UNL     1      -2.619  12.436  20.072  0.00  0.00    +0.000 A 
ATOM     12  C   UNL     1      -3.625  12.947  20.881  0.00  0.00    +0.000 A 
ATOM     13  C   UNL     1      -3.592  13.718  22.149  0.00  0.00    +0.000 C 
ATOM     14  O   UNL     1      -1.330  12.759  20.394  0.00  0.00    +0.000 OA
ATOM     15  C   UNL     1      -0.279  12.214  19.565  0.00  0.00    +0.000 C 
ATOM     16  C   UNL     1      -0.671  12.095  18.074  0.00  0.00    +0.000 C 
ATOM     17  C   UNL     1      -1.936  11.250  17.956  0.00  0.00    +0.000 C 
ENDROOT
BRANCH  15  18
ATOM     18  C   UNL     1       1.030  12.986  19.768  0.00  0.00    +0.000 A 
ATOM     19  C   UNL     1       1.403  13.527  21.017  0.00  0.00    +0.000 A 
ATOM     20  C   UNL     1       2.641  14.156  21.171  0.00  0.00    +0.000 A 
ATOM     21  C   UNL     1       3.513  14.267  20.096  0.00  0.00    +0.000 A 
ATOM     22  C   UNL     1       3.151  13.767  18.858  0.00  0.00    +0.000 A 
ATOM     23  C   UNL     1       1.929  13.128  18.687  0.00  0.00    +0.000 A 
BRANCH  20  24
ATOM     24  O   UNL     1       3.052  14.667  22.371  0.00  0.00    +0.000 OA
ATOM     25  H   UNL     1       2.412  15.348  22.645  0.00  0.00    +0.000 HD
ENDBRANCH  20  24
BRANCH  21  26
ATOM     26  O   UNL     1       4.735  14.864  20.245  0.00  0.00    +0.000 OA
ATOM     27  H   UNL     1       5.365  14.116  20.261  0.00  0.00    +0.000 HD
ENDBRANCH  21  26
BRANCH  22  28
ATOM     28  O   UNL     1       4.009  13.869  17.799  0.00  0.00    +0.000 OA
ATOM     29  H   UNL     1       4.147  14.832  17.690  0.00  0.00    +0.000 HD
ENDBRANCH  22  28
ENDBRANCH  15  18
BRANCH   5  30
ATOM     30  O   UNL     1      -4.495  15.758  21.049  0.00  0.00    +0.000 OA
ATOM     31  H   UNL     1      -4.600  16.536  21.634  0.00  0.00    +0.000 HD
ENDBRANCH   5  30
BRANCH   9  32
ATOM     32  O   UNL     1      -4.688  10.810  17.521  0.00  0.00    +0.000 OA
ATOM     33  H   UNL     1      -5.062   9.962  17.813  0.00  0.00    +0.000 HD
ENDBRANCH   9  32
BRANCH  13  34
ATOM     34  O   UNL     1      -2.376  14.368  22.459  0.00  0.00    +0.000 OA
ATOM     35  H   UNL     1      -1.695  13.673  22.374  0.00  0.00    +0.000 HD
ENDBRANCH  13  34
BRANCH  16  36
ATOM     36  O   UNL     1      -0.873  13.370  17.446  0.00  0.00    +0.000 OA
ATOM     37  H   UNL     1      -1.685  13.318  16.912  0.00  0.00    +0.000 HD
ENDBRANCH  16  36
BRANCH   4  38
ATOM     38  C   UNL     1      -6.478  15.792  23.405  0.00  0.00    +0.000 C 
BRANCH  38  39
ATOM     39  O   UNL     1      -7.068  15.867  22.089  0.00  0.00    +0.000 OA
ATOM     40  H   UNL     1      -6.893  16.779  21.769  0.00  0.00    +0.000 HD
ENDBRANCH  38  39
BRANCH  38  41
ATOM     41  C   UNL     1      -6.241  17.229  23.894  0.00  0.00    +0.000 C 
BRANCH  41  42
ATOM     42  O   UNL     1      -5.503  17.947  22.902  0.00  0.00    +0.000 OA
ATOM     43  H   UNL     1      -6.129  18.542  22.446  0.00  0.00    +0.000 HD
ENDBRANCH  41  42
ENDBRANCH  38  41
ENDBRANCH   4  38
TORSDOF 12
ENDMDL
MODEL 7
REMARK VINA RESULT:      -5.8      2.198      3.882
REMARK  Name = 
REMARK  12 active torsions:
REMARK  status: ('A' for Active; 'I' for Inactive)
REMARK    1  A    between atoms: C_4  and  C_5
REMARK    2  A    between atoms: C_5  and  O_6
REMARK    3  A    between atoms: C_5  and  C_7
REMARK    4  A    between atoms: C_7  and  O_8
REMARK    5  A    between atoms: C_9  and  O_10
REMARK    6  A    between atoms: C_14  and  O_15
REMARK    7  A    between atoms: C_19  and  O_20
REMARK    8  A    between atoms: C_22  and  C_23
REMARK    9  A    between atoms: C_25  and  O_26
REMARK   10  A    between atoms: C_27  and  O_28
REMARK   11  A    between atoms: C_29  and  O_30
REMARK   12  A    between atoms: C_32  and  O_33
REMARK                            x       y       z     vdW  Elec       q    Type
REMARK                         _______ _______ _______ _____ _____    ______ ____
ROOT
ATOM      1  O   UNL     1       4.711  16.949  21.484  0.00  0.00    +0.000 OA
ATOM      2  C   UNL     1       4.981  16.268  20.506  0.00  0.00    +0.000 C 
ATOM      3  O   UNL     1       6.242  16.224  19.937  0.00  0.00    +0.000 OA
ATOM      4  C   UNL     1       6.194  15.219  18.922  0.00  0.00    +0.000 C 
ATOM      5  C   UNL     1       4.762  15.265  18.419  0.00  0.00    +0.000 C 
ATOM      6  O   UNL     1       4.400  16.512  17.747  0.00  0.00    +0.000 OA
ATOM      7  C   UNL     1       3.095  16.704  18.170  0.00  0.00    +0.000 A 
ATOM      8  C   UNL     1       2.177  17.513  17.539  0.00  0.00    +0.000 A 
ATOM      9  C   UNL     1       0.850  17.400  17.959  0.00  0.00    +0.000 A 
ATOM     10  C   UNL     1       0.459  16.459  18.935  0.00  0.00    +0.000 A 
ATOM     11  C   UNL     1       1.433  15.717  19.614  0.00  0.00    +0.000 A 
ATOM     12  C   UNL     1       2.764  15.913  19.269  0.00  0.00    +0.000 A 
ATOM     13  C   UNL     1       4.024  15.304  19.764  0.00  0.00    +0.000 C 
ATOM     14  O   UNL     1       1.156  14.713  20.500  0.00  0.00    +0.000 OA
ATOM     15  C   UNL     1      -0.227  14.518  20.875  0.00  0.00    +0.000 C 
ATOM     16  C   UNL     1      -1.221  14.800  19.727  0.00  0.00    +0.000 C 
ATOM     17  C   UNL     1      -1.003  16.220  19.213  0.00  0.00    +0.000 C 
ENDROOT
BRANCH  15  18
ATOM     18  C   UNL     1      -0.430  13.133  21.502  0.00  0.00    +0.000 A 
ATOM     19  C   UNL     1       0.515  12.094  21.364  0.00  0.00    +0.000 A 
ATOM     20  C   UNL     1       0.321  10.875  22.018  0.00  0.00    +0.000 A 
ATOM     21  C   UNL     1      -0.807  10.666  22.801  0.00  0.00    +0.000 A 
ATOM     22  C   UNL     1      -1.756  11.665  22.925  0.00  0.00    +0.000 A 
ATOM     23  C   UNL     1      -1.577  12.889  22.291  0.00  0.00    +0.000 A 
BRANCH  20  24
ATOM     24  O   UNL     1       1.227   9.853  21.934  0.00  0.00    +0.000 OA
ATOM     25  H   UNL     1       1.007   9.196  22.618  0.00  0.00    +0.000 HD
ENDBRANCH  20  24
BRANCH  21  26
ATOM     26  O   UNL     1      -0.993   9.482  23.460  0.00  0.00    +0.000 OA
ATOM     27  H   UNL     1      -0.240   8.928  23.171  0.00  0.00    +0.000 HD
ENDBRANCH  21  26
BRANCH  22  28
ATOM     28  O   UNL     1      -2.865  11.466  23.699  0.00  0.00    +0.000 OA
ATOM     29  H   UNL     1      -3.026  10.502  23.649  0.00  0.00    +0.000 HD
ENDBRANCH  22  28
ENDBRANCH  15  18
BRANCH   5  30
ATOM     30  O   UNL     1       4.431  14.143  17.603  0.00  0.00    +0.000 OA
ATOM     31  H   UNL     1       4.701  13.353  18.114  0.00  0.00    +0.000 HD
ENDBRANCH   5  30
BRANCH   9  32
ATOM     32  O   UNL     1      -0.118  18.170  17.377  0.00  0.00    +0.000 OA
ATOM     33  H   UNL     1      -0.388  18.870  17.995  0.00  0.00    +0.000 HD
ENDBRANCH   9  32
BRANCH  13  34
ATOM     34  O   UNL     1       3.902  14.076  20.453  0.00  0.00    +0.000 OA
ATOM     35  H   UNL     1       3.083  13.675  20.102  0.00  0.00    +0.000 HD
ENDBRANCH  13  34
BRANCH  16  36
ATOM     36  O   UNL     1      -1.104  13.864  18.644  0.00  0.00    +0.000 OA
ATOM     37  H   UNL     1      -0.425  14.196  18.030  0.00  0.00    +0.000 HD
ENDBRANCH  16  36
BRANCH   4  38
ATOM     38  C   UNL     1       7.259  15.339  17.830  0.00  0.00    +0.000 C 
BRANCH  38  39
ATOM     39  O   UNL     1       7.493  14.014  17.307  0.00  0.00    +0.000 OA
ATOM     40  H   UNL     1       8.456  13.969  17.113  0.00  0.00    +0.000 HD
ENDBRANCH  38  39
BRANCH  38  41
ATOM     41  C   UNL     1       8.594  15.869  18.375  0.00  0.00    +0.000 C 
BRANCH  41  42
ATOM     42  O   UNL     1       8.547  17.297  18.428  0.00  0.00    +0.000 OA
ATOM     43  H   UNL     1       7.974  17.542  19.180  0.00  0.00    +0.000 HD
ENDBRANCH  41  42
ENDBRANCH  38  41
ENDBRANCH   4  38
TORSDOF 12
ENDMDL
MODEL 8
REMARK VINA RESULT:      -5.8      2.779      6.483
REMARK  Name = 
REMARK  12 active torsions:
REMARK  status: ('A' for Active; 'I' for Inactive)
REMARK    1  A    between atoms: C_4  and  C_5
REMARK    2  A    between atoms: C_5  and  O_6
REMARK    3  A    between atoms: C_5  and  C_7
REMARK    4  A    between atoms: C_7  and  O_8
REMARK    5  A    between atoms: C_9  and  O_10
REMARK    6  A    between atoms: C_14  and  O_15
REMARK    7  A    between atoms: C_19  and  O_20
REMARK    8  A    between atoms: C_22  and  C_23
REMARK    9  A    between atoms: C_25  and  O_26
REMARK   10  A    between atoms: C_27  and  O_28
REMARK   11  A    between atoms: C_29  and  O_30
REMARK   12  A    between atoms: C_32  and  O_33
REMARK                            x       y       z     vdW  Elec       q    Type
REMARK                         _______ _______ _______ _____ _____    ______ ____
ROOT
ATOM      1  O   UNL     1       3.291  14.214  21.836  0.00  0.00    +0.000 OA
ATOM      2  C   UNL     1       2.536  14.462  20.908  0.00  0.00    +0.000 C 
ATOM      3  O   UNL     1       2.487  15.695  20.279  0.00  0.00    +0.000 OA
ATOM      4  C   UNL     1       1.600  15.548  19.169  0.00  0.00    +0.000 C 
ATOM      5  C   UNL     1       0.594  14.509  19.629  0.00  0.00    +0.000 C 
ATOM      6  O   UNL     1      -0.249  14.939  20.743  0.00  0.00    +0.000 OA
ATOM      7  C   UNL     1      -0.362  13.778  21.490  0.00  0.00    +0.000 A 
ATOM      8  C   UNL     1      -1.346  13.537  22.422  0.00  0.00    +0.000 A 
ATOM      9  C   UNL     1      -1.449  12.230  22.902  0.00  0.00    +0.000 A 
ATOM     10  C   UNL     1      -0.628  11.192  22.407  0.00  0.00    +0.000 A 
ATOM     11  C   UNL     1       0.416  11.494  21.526  0.00  0.00    +0.000 A 
ATOM     12  C   UNL     1       0.584  12.816  21.136  0.00  0.00    +0.000 A 
ATOM     13  C   UNL     1       1.557  13.475  20.229  0.00  0.00    +0.000 C 
ATOM     14  O   UNL     1       1.200  10.556  20.913  0.00  0.00    +0.000 OA
ATOM     15  C   UNL     1       1.041   9.180  21.328  0.00  0.00    +0.000 C 
ATOM     16  C   UNL     1      -0.414   8.815  21.701  0.00  0.00    +0.000 C 
ATOM     17  C   UNL     1      -0.904   9.762  22.791  0.00  0.00    +0.000 C 
ENDROOT
BRANCH  15  18
ATOM     18  C   UNL     1       1.640   8.225  20.289  0.00  0.00    +0.000 A 
ATOM     19  C   UNL     1       2.004   8.649  18.994  0.00  0.00    +0.000 A 
ATOM     20  C   UNL     1       2.617   7.760  18.108  0.00  0.00    +0.000 A 
ATOM     21  C   UNL     1       2.863   6.446  18.486  0.00  0.00    +0.000 A 
ATOM     22  C   UNL     1       2.487   6.007  19.742  0.00  0.00    +0.000 A 
ATOM     23  C   UNL     1       1.885   6.879  20.642  0.00  0.00    +0.000 A 
BRANCH  20  24
ATOM     24  O   UNL     1       3.013   8.139  16.854  0.00  0.00    +0.000 OA
ATOM     25  H   UNL     1       3.730   7.545  16.570  0.00  0.00    +0.000 HD
ENDBRANCH  20  24
BRANCH  21  26
ATOM     26  O   UNL     1       3.481   5.575  17.630  0.00  0.00    +0.000 OA
ATOM     27  H   UNL     1       3.518   6.062  16.782  0.00  0.00    +0.000 HD
ENDBRANCH  21  26
BRANCH  22  28
ATOM     28  O   UNL     1       2.732   4.716  20.120  0.00  0.00    +0.000 OA
ATOM     29  H   UNL     1       1.871   4.394  20.456  0.00  0.00    +0.000 HD
ENDBRANCH  22  28
ENDBRANCH  15  18
BRANCH   5  30
ATOM     30  O   UNL     1      -0.207  14.009  18.559  0.00  0.00    +0.000 OA
ATOM     31  H   UNL     1       0.404  13.883  17.805  0.00  0.00    +0.000 HD
ENDBRANCH   5  30
BRANCH   9  32
ATOM     32  O   UNL     1      -2.404  11.915  23.827  0.00  0.00    +0.000 OA
ATOM     33  H   UNL     1      -2.237  12.413  24.645  0.00  0.00    +0.000 HD
ENDBRANCH   9  32
BRANCH  13  34
ATOM     34  O   UNL     1       2.232  12.636  19.314  0.00  0.00    +0.000 OA
ATOM     35  H   UNL     1       1.973  11.730  19.571  0.00  0.00    +0.000 HD
ENDBRANCH  13  34
BRANCH  16  36
ATOM     36  O   UNL     1      -1.306   8.859  20.576  0.00  0.00    +0.000 OA
ATOM     37  H   UNL     1      -0.903   8.350  19.850  0.00  0.00    +0.000 HD
ENDBRANCH  16  36
BRANCH   4  38
ATOM     38  C   UNL     1       0.984  16.848  18.647  0.00  0.00    +0.000 C 
BRANCH  38  39
ATOM     39  O   UNL     1      -0.338  16.533  18.158  0.00  0.00    +0.000 OA
ATOM     40  H   UNL     1      -0.871  17.349  18.283  0.00  0.00    +0.000 HD
ENDBRANCH  38  39
BRANCH  38  41
ATOM     41  C   UNL     1       1.784  17.445  17.480  0.00  0.00    +0.000 C 
BRANCH  41  42
ATOM     42  O   UNL     1       3.176  17.194  17.687  0.00  0.00    +0.000 OA
ATOM     43  H   UNL     1       3.570  18.012  18.044  0.00  0.00    +0.000 HD
ENDBRANCH  41  42
ENDBRANCH  38  41
ENDBRANCH   4  38
TORSDOF 12
ENDMDL
MODEL 9
REMARK VINA RESULT:      -5.7      2.469      8.327
REMARK  Name = 
REMARK  12 active torsions:
REMARK  status: ('A' for Active; 'I' for Inactive)
REMARK    1  A    between atoms: C_4  and  C_5
REMARK    2  A    between atoms: C_5  and  O_6
REMARK    3  A    between atoms: C_5  and  C_7
REMARK    4  A    between atoms: C_7  and  O_8
REMARK    5  A    between atoms: C_9  and  O_10
REMARK    6  A    between atoms: C_14  and  O_15
REMARK    7  A    between atoms: C_19  and  O_20
REMARK    8  A    between atoms: C_22  and  C_23
REMARK    9  A    between atoms: C_25  and  O_26
REMARK   10  A    between atoms: C_27  and  O_28
REMARK   11  A    between atoms: C_29  and  O_30
REMARK   12  A    between atoms: C_32  and  O_33
REMARK                            x       y       z     vdW  Elec       q    Type
REMARK                         _______ _______ _______ _____ _____    ______ ____
ROOT
ATOM      1  O   UNL     1      -2.872  15.502  24.441  0.00  0.00    +0.000 OA
ATOM      2  C   UNL     1      -3.611  14.974  23.624  0.00  0.00    +0.000 C 
ATOM      3  O   UNL     1      -4.965  14.780  23.841  0.00  0.00    +0.000 OA
ATOM      4  C   UNL     1      -5.502  14.275  22.617  0.00  0.00    +0.000 C 
ATOM      5  C   UNL     1      -4.362  13.479  22.009  0.00  0.00    +0.000 C 
ATOM      6  O   UNL     1      -3.974  12.297  22.778  0.00  0.00    +0.000 OA
ATOM      7  C   UNL     1      -2.597  12.292  22.632  0.00  0.00    +0.000 A 
ATOM      8  C   UNL     1      -1.790  11.195  22.835  0.00  0.00    +0.000 A 
ATOM      9  C   UNL     1      -0.465  11.304  22.411  0.00  0.00    +0.000 A 
ATOM     10  C   UNL     1       0.009  12.458  21.748  0.00  0.00    +0.000 A 
ATOM     11  C   UNL     1      -0.817  13.583  21.639  0.00  0.00    +0.000 A 
ATOM     12  C   UNL     1      -2.101  13.507  22.161  0.00  0.00    +0.000 A 
ATOM     13  C   UNL     1      -3.219  14.483  22.210  0.00  0.00    +0.000 C 
ATOM     14  O   UNL     1      -0.493  14.708  20.931  0.00  0.00    +0.000 OA
ATOM     15  C   UNL     1       0.849  14.798  20.401  0.00  0.00    +0.000 C 
ATOM     16  C   UNL     1       1.425  13.437  19.950  0.00  0.00    +0.000 C 
ATOM     17  C   UNL     1       1.379  12.461  21.122  0.00  0.00    +0.000 C 
ENDROOT
BRANCH  15  18
ATOM     18  C   UNL     1       0.929  15.864  19.301  0.00  0.00    +0.000 A 
ATOM     19  C   UNL     1       2.118  16.132  18.592  0.00  0.00    +0.000 A 
ATOM     20  C   UNL     1       2.121  17.059  17.546  0.00  0.00    +0.000 A 
ATOM     21  C   UNL     1       0.958  17.736  17.202  0.00  0.00    +0.000 A 
ATOM     22  C   UNL     1      -0.210  17.505  17.905  0.00  0.00    +0.000 A 
ATOM     23  C   UNL     1      -0.237  16.579  18.941  0.00  0.00    +0.000 A 
BRANCH  20  24
ATOM     24  O   UNL     1       3.246  17.326  16.815  0.00  0.00    +0.000 OA
ATOM     25  H   UNL     1       2.997  17.350  15.874  0.00  0.00    +0.000 HD
ENDBRANCH  20  24
BRANCH  21  26
ATOM     26  O   UNL     1       0.950  18.630  16.166  0.00  0.00    +0.000 OA
ATOM     27  H   UNL     1       1.861  18.989  16.154  0.00  0.00    +0.000 HD
ENDBRANCH  21  26
BRANCH  22  28
ATOM     28  O   UNL     1      -1.358  18.165  17.565  0.00  0.00    +0.000 OA
ATOM     29  H   UNL     1      -2.068  17.664  18.017  0.00  0.00    +0.000 HD
ENDBRANCH  22  28
ENDBRANCH  15  18
BRANCH   5  30
ATOM     30  O   UNL     1      -4.601  13.131  20.645  0.00  0.00    +0.000 OA
ATOM     31  H   UNL     1      -5.456  13.546  20.411  0.00  0.00    +0.000 HD
ENDBRANCH   5  30
BRANCH   9  32
ATOM     32  O   UNL     1       0.395  10.255  22.578  0.00  0.00    +0.000 OA
ATOM     33  H   UNL     1      -0.115   9.433  22.672  0.00  0.00    +0.000 HD
ENDBRANCH   9  32
BRANCH  13  34
ATOM     34  O   UNL     1      -3.156  15.559  21.296  0.00  0.00    +0.000 OA
ATOM     35  H   UNL     1      -4.042  15.590  20.888  0.00  0.00    +0.000 HD
ENDBRANCH  13  34
BRANCH  16  36
ATOM     36  O   UNL     1       0.730  12.882  18.823  0.00  0.00    +0.000 OA
ATOM     37  H   UNL     1       0.061  13.528  18.533  0.00  0.00    +0.000 HD
ENDBRANCH  16  36
BRANCH   4  38
ATOM     38  C   UNL     1      -6.819  13.506  22.748  0.00  0.00    +0.000 C 
BRANCH  38  39
ATOM     39  O   UNL     1      -7.889  14.425  22.435  0.00  0.00    +0.000 OA
ATOM     40  H   UNL     1      -8.387  14.551  23.273  0.00  0.00    +0.000 HD
ENDBRANCH  38  39
BRANCH  38  41
ATOM     41  C   UNL     1      -7.051  12.987  24.175  0.00  0.00    +0.000 C 
BRANCH  41  42
ATOM     42  O   UNL     1      -6.080  11.982  24.474  0.00  0.00    +0.000 OA
ATOM     43  H   UNL     1      -6.007  11.926  25.446  0.00  0.00    +0.000 HD
ENDBRANCH  41  42
ENDBRANCH  38  41
ENDBRANCH   4  38
TORSDOF 12
ENDMDL
