MODEL 1
REMARK VINA RESULT:      -8.2      0.000      0.000
REMARK  Name = 
REMARK  5 active torsions:
REMARK  status: ('A' for Active; 'I' for Inactive)
REMARK    1  A    between atoms: C_1  and  C_2
REMARK    2  A    between atoms: C_6  and  C_7
REMARK    3  A    between atoms: C_7  and  C_9
REMARK    4  A    between atoms: C_9  and  N_10
REMARK    5  A    between atoms: C_16  and  C_17
REMARK                            x       y       z     vdW  Elec       q    Type
REMARK                         _______ _______ _______ _____ _____    ______ ____
ROOT
ATOM      1  C   UNL     1       6.306   3.421  12.299  0.00  0.00    +0.000 C 
ATOM      2  C   UNL     1       6.192   3.954  13.697  0.00  0.00    +0.000 A 
ATOM      3  C   UNL     1       5.207   3.475  14.559  0.00  0.00    +0.000 A 
ATOM      4  C   UNL     1       5.122   3.928  15.882  0.00  0.00    +0.000 A 
ATOM      5  C   UNL     1       6.043   4.881  16.368  0.00  0.00    +0.000 A 
ATOM      6  C   UNL     1       6.279   5.520  17.638  0.00  0.00    +0.000 A 
ATOM      7  C   UNL     1       7.295   6.452  17.432  0.00  0.00    +0.000 A 
ATOM      8  C   UNL     1       7.959   7.428  18.339  0.00  0.00    +0.000 C 
ATOM      9  N   UNL     1       7.717   6.330  16.131  0.00  0.00    +0.000 N 
ATOM     10  C   UNL     1       6.984   5.380  15.467  0.00  0.00    +0.000 A 
ATOM     11  C   UNL     1       7.092   4.933  14.143  0.00  0.00    +0.000 A 
ATOM     12  H   UNL     1       8.466   6.864  15.714  0.00  0.00    +0.000 HD
ENDROOT
BRANCH   6  13
ATOM     13  C   UNL     1       5.622   5.275  18.933  0.00  0.00    +0.000 C 
ATOM     14  O   UNL     1       6.229   4.733  19.863  0.00  0.00    +0.000 OA
BRANCH  13  15
ATOM     15  C   UNL     1       4.156   5.671  19.139  0.00  0.00    +0.000 C 
BRANCH  15  16
ATOM     16  N   UNL     1       3.282   4.509  19.428  0.00  0.00    +0.000 NA
ATOM     17  C   UNL     1       2.503   4.712  20.660  0.00  0.00    +0.000 C 
ATOM     18  C   UNL     1       1.672   3.468  20.983  0.00  0.00    +0.000 C 
ATOM     19  C   UNL     1       0.739   3.117  19.831  0.00  0.00    +0.000 C 
ATOM     20  C   UNL     1       1.517   3.018  18.524  0.00  0.00    +0.000 C 
ATOM     21  C   UNL     1       2.387   4.254  18.288  0.00  0.00    +0.000 C 
ENDBRANCH  15  16
ENDBRANCH  13  15
ENDBRANCH   6  13
TORSDOF 3
ENDMDL
MODEL 2
REMARK VINA RESULT:      -7.5      2.663      6.406
REMARK  Name = 
REMARK  5 active torsions:
REMARK  status: ('A' for Active; 'I' for Inactive)
REMARK    1  A    between atoms: C_1  and  C_2
REMARK    2  A    between atoms: C_6  and  C_7
REMARK    3  A    between atoms: C_7  and  C_9
REMARK    4  A    between atoms: C_9  and  N_10
REMARK    5  A    between atoms: C_16  and  C_17
REMARK                            x       y       z     vdW  Elec       q    Type
REMARK                         _______ _______ _______ _____ _____    ______ ____
ROOT
ATOM      1  C   UNL     1       1.342  10.658  18.890  0.00  0.00    +0.000 C 
ATOM      2  C   UNL     1       1.716   9.205  18.889  0.00  0.00    +0.000 A 
ATOM      3  C   UNL     1       2.294   8.625  17.761  0.00  0.00    +0.000 A 
ATOM      4  C   UNL     1       2.694   7.282  17.764  0.00  0.00    +0.000 A 
ATOM      5  C   UNL     1       2.520   6.491  18.920  0.00  0.00    +0.000 A 
ATOM      6  C   UNL     1       2.841   5.135  19.289  0.00  0.00    +0.000 A 
ATOM      7  C   UNL     1       2.307   4.932  20.561  0.00  0.00    +0.000 A 
ATOM      8  C   UNL     1       2.285   3.746  21.461  0.00  0.00    +0.000 C 
ATOM      9  N   UNL     1       1.767   6.121  20.983  0.00  0.00    +0.000 N 
ATOM     10  C   UNL     1       1.890   7.084  20.014  0.00  0.00    +0.000 A 
ATOM     11  C   UNL     1       1.492   8.428  20.035  0.00  0.00    +0.000 A 
ATOM     12  H   UNL     1       1.336   6.273  21.883  0.00  0.00    +0.000 HD
ENDROOT
BRANCH   6  13
ATOM     13  C   UNL     1       3.588   4.120  18.526  0.00  0.00    +0.000 C 
ATOM     14  O   UNL     1       3.113   3.617  17.503  0.00  0.00    +0.000 OA
BRANCH  13  15
ATOM     15  C   UNL     1       4.965   3.653  19.010  0.00  0.00    +0.000 C 
BRANCH  15  16
ATOM     16  N   UNL     1       6.077   4.425  18.407  0.00  0.00    +0.000 NA
ATOM     17  C   UNL     1       5.686   5.021  17.119  0.00  0.00    +0.000 C 
ATOM     18  C   UNL     1       6.873   5.743  16.477  0.00  0.00    +0.000 C 
ATOM     19  C   UNL     1       7.425   6.822  17.401  0.00  0.00    +0.000 C 
ATOM     20  C   UNL     1       7.726   6.243  18.778  0.00  0.00    +0.000 C 
ATOM     21  C   UNL     1       6.531   5.469  19.340  0.00  0.00    +0.000 C 
ENDBRANCH  15  16
ENDBRANCH  13  15
ENDBRANCH   6  13
TORSDOF 3
ENDMDL
MODEL 3
REMARK VINA RESULT:      -7.5      0.607      1.074
REMARK  Name = 
REMARK  5 active torsions:
REMARK  status: ('A' for Active; 'I' for Inactive)
REMARK    1  A    between atoms: C_1  and  C_2
REMARK    2  A    between atoms: C_6  and  C_7
REMARK    3  A    between atoms: C_7  and  C_9
REMARK    4  A    between atoms: C_9  and  N_10
REMARK    5  A    between atoms: C_16  and  C_17
REMARK                            x       y       z     vdW  Elec       q    Type
REMARK                         _______ _______ _______ _____ _____    ______ ____
ROOT
ATOM      1  C   UNL     1       6.321   3.428  12.280  0.00  0.00    +0.000 C 
ATOM      2  C   UNL     1       6.181   3.982  13.667  0.00  0.00    +0.000 A 
ATOM      3  C   UNL     1       5.147   3.554  14.499  0.00  0.00    +0.000 A 
ATOM      4  C   UNL     1       5.034   4.024  15.814  0.00  0.00    +0.000 A 
ATOM      5  C   UNL     1       5.977   4.944  16.322  0.00  0.00    +0.000 A 
ATOM      6  C   UNL     1       6.195   5.587  17.593  0.00  0.00    +0.000 A 
ATOM      7  C   UNL     1       7.256   6.474  17.414  0.00  0.00    +0.000 A 
ATOM      8  C   UNL     1       7.928   7.432  18.334  0.00  0.00    +0.000 C 
ATOM      9  N   UNL     1       7.717   6.320  16.131  0.00  0.00    +0.000 N 
ATOM     10  C   UNL     1       6.969   5.393  15.450  0.00  0.00    +0.000 A 
ATOM     11  C   UNL     1       7.105   4.928  14.135  0.00  0.00    +0.000 A 
ATOM     12  H   UNL     1       8.502   6.817  15.735  0.00  0.00    +0.000 HD
ENDROOT
BRANCH   6  13
ATOM     13  C   UNL     1       5.483   5.385  18.867  0.00  0.00    +0.000 C 
ATOM     14  O   UNL     1       6.012   4.774  19.802  0.00  0.00    +0.000 OA
BRANCH  13  15
ATOM     15  C   UNL     1       4.055   5.912  19.042  0.00  0.00    +0.000 C 
BRANCH  15  16
ATOM     16  N   UNL     1       3.050   4.827  19.137  0.00  0.00    +0.000 NA
ATOM     17  C   UNL     1       3.678   3.499  19.037  0.00  0.00    +0.000 C 
ATOM     18  C   UNL     1       2.615   2.398  19.054  0.00  0.00    +0.000 C 
ATOM     19  C   UNL     1       1.763   2.476  20.315  0.00  0.00    +0.000 C 
ATOM     20  C   UNL     1       1.200   3.881  20.494  0.00  0.00    +0.000 C 
ATOM     21  C   UNL     1       2.294   4.946  20.394  0.00  0.00    +0.000 C 
ENDBRANCH  15  16
ENDBRANCH  13  15
ENDBRANCH   6  13
TORSDOF 3
ENDMDL
MODEL 4
REMARK VINA RESULT:      -7.4      2.259      4.322
REMARK  Name = 
REMARK  5 active torsions:
REMARK  status: ('A' for Active; 'I' for Inactive)
REMARK    1  A    between atoms: C_1  and  C_2
REMARK    2  A    between atoms: C_6  and  C_7
REMARK    3  A    between atoms: C_7  and  C_9
REMARK    4  A    between atoms: C_9  and  N_10
REMARK    5  A    between atoms: C_16  and  C_17
REMARK                            x       y       z     vdW  Elec       q    Type
REMARK                         _______ _______ _______ _____ _____    ______ ____
ROOT
ATOM      1  C   UNL     1       1.062   9.688  18.664  0.00  0.00    +0.000 C 
ATOM      2  C   UNL     1       2.014   8.533  18.558  0.00  0.00    +0.000 A 
ATOM      3  C   UNL     1       2.066   7.566  19.561  0.00  0.00    +0.000 A 
ATOM      4  C   UNL     1       2.913   6.455  19.452  0.00  0.00    +0.000 A 
ATOM      5  C   UNL     1       3.731   6.296  18.312  0.00  0.00    +0.000 A 
ATOM      6  C   UNL     1       4.660   5.294  17.853  0.00  0.00    +0.000 A 
ATOM      7  C   UNL     1       5.222   5.783  16.675  0.00  0.00    +0.000 A 
ATOM      8  C   UNL     1       6.251   5.232  15.751  0.00  0.00    +0.000 C 
ATOM      9  N   UNL     1       4.610   6.976  16.383  0.00  0.00    +0.000 N 
ATOM     10  C   UNL     1       3.696   7.306  17.351  0.00  0.00    +0.000 A 
ATOM     11  C   UNL     1       2.848   8.419  17.437  0.00  0.00    +0.000 A 
ATOM     12  H   UNL     1       4.800   7.539  15.567  0.00  0.00    +0.000 HD
ENDROOT
BRANCH   6  13
ATOM     13  C   UNL     1       4.988   3.990  18.455  0.00  0.00    +0.000 C 
ATOM     14  O   UNL     1       5.908   3.880  19.272  0.00  0.00    +0.000 OA
BRANCH  13  15
ATOM     15  C   UNL     1       4.202   2.738  18.053  0.00  0.00    +0.000 C 
BRANCH  15  16
ATOM     16  N   UNL     1       3.037   2.484  18.934  0.00  0.00    +0.000 NA
ATOM     17  C   UNL     1       3.252   3.028  20.285  0.00  0.00    +0.000 C 
ATOM     18  C   UNL     1       2.074   2.683  21.198  0.00  0.00    +0.000 C 
ATOM     19  C   UNL     1       0.763   3.212  20.628  0.00  0.00    +0.000 C 
ATOM     20  C   UNL     1       0.583   2.751  19.187  0.00  0.00    +0.000 C 
ATOM     21  C   UNL     1       1.819   3.053  18.337  0.00  0.00    +0.000 C 
ENDBRANCH  15  16
ENDBRANCH  13  15
ENDBRANCH   6  13
TORSDOF 3
ENDMDL
MODEL 5
REMARK VINA RESULT:      -7.3      2.862      6.536
REMARK  Name = 
REMARK  5 active torsions:
REMARK  status: ('A' for Active; 'I' for Inactive)
REMARK    1  A    between atoms: C_1  and  C_2
REMARK    2  A    between atoms: C_6  and  C_7
REMARK    3  A    between atoms: C_7  and  C_9
REMARK    4  A    between atoms: C_9  and  N_10
REMARK    5  A    between atoms: C_16  and  C_17
REMARK                            x       y       z     vdW  Elec       q    Type
REMARK                         _______ _______ _______ _____ _____    ______ ____
ROOT
ATOM      1  C   UNL     1       1.122  10.953  19.177  0.00  0.00    +0.000 C 
ATOM      2  C   UNL     1       1.482   9.500  19.066  0.00  0.00    +0.000 A 
ATOM      3  C   UNL     1       1.927   8.972  17.856  0.00  0.00    +0.000 A 
ATOM      4  C   UNL     1       2.315   7.630  17.751  0.00  0.00    +0.000 A 
ATOM      5  C   UNL     1       2.264   6.786  18.882  0.00  0.00    +0.000 A 
ATOM      6  C   UNL     1       2.614   5.413  19.150  0.00  0.00    +0.000 A 
ATOM      7  C   UNL     1       2.224   5.152  20.462  0.00  0.00    +0.000 A 
ATOM      8  C   UNL     1       2.294   3.926  21.304  0.00  0.00    +0.000 C 
ATOM      9  N   UNL     1       1.743   6.321  20.996  0.00  0.00    +0.000 N 
ATOM     10  C   UNL     1       1.765   7.329  20.065  0.00  0.00    +0.000 A 
ATOM     11  C   UNL     1       1.382   8.671  20.193  0.00  0.00    +0.000 A 
ATOM     12  H   UNL     1       1.417   6.432  21.945  0.00  0.00    +0.000 HD
ENDROOT
BRANCH   6  13
ATOM     13  C   UNL     1       3.264   4.434  18.262  0.00  0.00    +0.000 C 
ATOM     14  O   UNL     1       2.615   3.822  17.407  0.00  0.00    +0.000 OA
BRANCH  13  15
ATOM     15  C   UNL     1       4.761   4.139  18.405  0.00  0.00    +0.000 C 
BRANCH  15  16
ATOM     16  N   UNL     1       5.590   5.368  18.409  0.00  0.00    +0.000 NA
ATOM     17  C   UNL     1       6.998   5.070  18.715  0.00  0.00    +0.000 C 
ATOM     18  C   UNL     1       7.817   6.359  18.795  0.00  0.00    +0.000 C 
ATOM     19  C   UNL     1       7.725   7.150  17.495  0.00  0.00    +0.000 C 
ATOM     20  C   UNL     1       6.268   7.367  17.104  0.00  0.00    +0.000 C 
ATOM     21  C   UNL     1       5.478   6.056  17.113  0.00  0.00    +0.000 C 
ENDBRANCH  15  16
ENDBRANCH  13  15
ENDBRANCH   6  13
TORSDOF 3
ENDMDL
MODEL 6
REMARK VINA RESULT:      -7.3      1.175      1.588
REMARK  Name = 
REMARK  5 active torsions:
REMARK  status: ('A' for Active; 'I' for Inactive)
REMARK    1  A    between atoms: C_1  and  C_2
REMARK    2  A    between atoms: C_6  and  C_7
REMARK    3  A    between atoms: C_7  and  C_9
REMARK    4  A    between atoms: C_9  and  N_10
REMARK    5  A    between atoms: C_16  and  C_17
REMARK                            x       y       z     vdW  Elec       q    Type
REMARK                         _______ _______ _______ _____ _____    ______ ____
ROOT
ATOM      1  C   UNL     1       6.786   3.226  11.912  0.00  0.00    +0.000 C 
ATOM      2  C   UNL     1       6.399   3.962  13.161  0.00  0.00    +0.000 A 
ATOM      3  C   UNL     1       5.088   3.915  13.632  0.00  0.00    +0.000 A 
ATOM      4  C   UNL     1       4.724   4.555  14.824  0.00  0.00    +0.000 A 
ATOM      5  C   UNL     1       5.690   5.260  15.574  0.00  0.00    +0.000 A 
ATOM      6  C   UNL     1       5.689   5.977  16.825  0.00  0.00    +0.000 A 
ATOM      7  C   UNL     1       6.958   6.537  16.963  0.00  0.00    +0.000 A 
ATOM      8  C   UNL     1       7.564   7.398  18.016  0.00  0.00    +0.000 C 
ATOM      9  N   UNL     1       7.719   6.116  15.902  0.00  0.00    +0.000 N 
ATOM     10  C   UNL     1       6.980   5.334  15.051  0.00  0.00    +0.000 A 
ATOM     11  C   UNL     1       7.367   4.692  13.866  0.00  0.00    +0.000 A 
ATOM     12  H   UNL     1       8.692   6.346  15.761  0.00  0.00    +0.000 HD
ENDROOT
BRANCH   6  13
ATOM     13  C   UNL     1       4.602   6.119  17.810  0.00  0.00    +0.000 C 
ATOM     14  O   UNL     1       3.810   7.065  17.750  0.00  0.00    +0.000 OA
BRANCH  13  15
ATOM     15  C   UNL     1       4.455   5.101  18.945  0.00  0.00    +0.000 C 
BRANCH  15  16
ATOM     16  N   UNL     1       3.072   4.584  19.076  0.00  0.00    +0.000 NA
ATOM     17  C   UNL     1       2.950   3.222  18.530  0.00  0.00    +0.000 C 
ATOM     18  C   UNL     1       1.499   2.741  18.601  0.00  0.00    +0.000 C 
ATOM     19  C   UNL     1       0.977   2.775  20.032  0.00  0.00    +0.000 C 
ATOM     20  C   UNL     1       1.204   4.149  20.651  0.00  0.00    +0.000 C 
ATOM     21  C   UNL     1       2.653   4.613  20.486  0.00  0.00    +0.000 C 
ENDBRANCH  15  16
ENDBRANCH  13  15
ENDBRANCH   6  13
TORSDOF 3
ENDMDL
MODEL 7
REMARK VINA RESULT:      -7.3      1.757      5.972
REMARK  Name = 
REMARK  5 active torsions:
REMARK  status: ('A' for Active; 'I' for Inactive)
REMARK    1  A    between atoms: C_1  and  C_2
REMARK    2  A    between atoms: C_6  and  C_7
REMARK    3  A    between atoms: C_7  and  C_9
REMARK    4  A    between atoms: C_9  and  N_10
REMARK    5  A    between atoms: C_16  and  C_17
REMARK                            x       y       z     vdW  Elec       q    Type
REMARK                         _______ _______ _______ _____ _____    ______ ____
ROOT
ATOM      1  C   UNL     1       1.299   2.141  19.628  0.00  0.00    +0.000 C 
ATOM      2  C   UNL     1       2.427   2.913  19.009  0.00  0.00    +0.000 A 
ATOM      3  C   UNL     1       2.366   3.307  17.674  0.00  0.00    +0.000 A 
ATOM      4  C   UNL     1       3.389   4.071  17.098  0.00  0.00    +0.000 A 
ATOM      5  C   UNL     1       4.505   4.460  17.869  0.00  0.00    +0.000 A 
ATOM      6  C   UNL     1       5.684   5.256  17.634  0.00  0.00    +0.000 A 
ATOM      7  C   UNL     1       6.457   5.174  18.790  0.00  0.00    +0.000 A 
ATOM      8  C   UNL     1       7.781   5.750  19.154  0.00  0.00    +0.000 C 
ATOM      9  N   UNL     1       5.753   4.442  19.714  0.00  0.00    +0.000 N 
ATOM     10  C   UNL     1       4.564   4.006  19.187  0.00  0.00    +0.000 A 
ATOM     11  C   UNL     1       3.546   3.250  19.785  0.00  0.00    +0.000 A 
ATOM     12  H   UNL     1       6.062   4.248  20.655  0.00  0.00    +0.000 HD
ENDROOT
BRANCH   6  13
ATOM     13  C   UNL     1       6.053   6.032  16.437  0.00  0.00    +0.000 C 
ATOM     14  O   UNL     1       5.433   7.055  16.127  0.00  0.00    +0.000 OA
BRANCH  13  15
ATOM     15  C   UNL     1       7.203   5.564  15.540  0.00  0.00    +0.000 C 
BRANCH  15  16
ATOM     16  N   UNL     1       6.747   5.144  14.194  0.00  0.00    +0.000 NA
ATOM     17  C   UNL     1       7.871   5.046  13.248  0.00  0.00    +0.000 C 
ATOM     18  C   UNL     1       7.367   4.693  11.847  0.00  0.00    +0.000 C 
ATOM     19  C   UNL     1       6.583   3.386  11.858  0.00  0.00    +0.000 C 
ATOM     20  C   UNL     1       5.487   3.429  12.916  0.00  0.00    +0.000 C 
ATOM     21  C   UNL     1       6.032   3.861  14.280  0.00  0.00    +0.000 C 
ENDBRANCH  15  16
ENDBRANCH  13  15
ENDBRANCH   6  13
TORSDOF 3
ENDMDL
MODEL 8
REMARK VINA RESULT:      -7.2      1.122      1.185
REMARK  Name = 
REMARK  5 active torsions:
REMARK  status: ('A' for Active; 'I' for Inactive)
REMARK    1  A    between atoms: C_1  and  C_2
REMARK    2  A    between atoms: C_6  and  C_7
REMARK    3  A    between atoms: C_7  and  C_9
REMARK    4  A    between atoms: C_9  and  N_10
REMARK    5  A    between atoms: C_16  and  C_17
REMARK                            x       y       z     vdW  Elec       q    Type
REMARK                         _______ _______ _______ _____ _____    ______ ____
ROOT
ATOM      1  C   UNL     1       6.368   3.726  12.390  0.00  0.00    +0.000 C 
ATOM      2  C   UNL     1       6.150   4.029  13.844  0.00  0.00    +0.000 A 
ATOM      3  C   UNL     1       4.924   3.752  14.448  0.00  0.00    +0.000 A 
ATOM      4  C   UNL     1       4.723   3.982  15.815  0.00  0.00    +0.000 A 
ATOM      5  C   UNL     1       5.770   4.499  16.609  0.00  0.00    +0.000 A 
ATOM      6  C   UNL     1       5.935   4.810  18.007  0.00  0.00    +0.000 A 
ATOM      7  C   UNL     1       7.194   5.391  18.140  0.00  0.00    +0.000 A 
ATOM      8  C   UNL     1       7.926   5.942  19.314  0.00  0.00    +0.000 C 
ATOM      9  N   UNL     1       7.802   5.359  16.909  0.00  0.00    +0.000 N 
ATOM     10  C   UNL     1       6.967   4.815  15.967  0.00  0.00    +0.000 A 
ATOM     11  C   UNL     1       7.191   4.583  14.602  0.00  0.00    +0.000 A 
ATOM     12  H   UNL     1       8.737   5.688  16.717  0.00  0.00    +0.000 HD
ENDROOT
BRANCH   6  13
ATOM     13  C   UNL     1       5.002   4.577  19.123  0.00  0.00    +0.000 C 
ATOM     14  O   UNL     1       4.386   5.513  19.645  0.00  0.00    +0.000 OA
BRANCH  13  15
ATOM     15  C   UNL     1       4.800   3.162  19.675  0.00  0.00    +0.000 C 
BRANCH  15  16
ATOM     16  N   UNL     1       3.372   2.767  19.733  0.00  0.00    +0.000 NA
ATOM     17  C   UNL     1       2.724   3.262  20.959  0.00  0.00    +0.000 C 
ATOM     18  C   UNL     1       1.276   2.773  21.038  0.00  0.00    +0.000 C 
ATOM     19  C   UNL     1       0.480   3.215  19.815  0.00  0.00    +0.000 C 
ATOM     20  C   UNL     1       1.199   2.810  18.534  0.00  0.00    +0.000 C 
ATOM     21  C   UNL     1       2.663   3.258  18.541  0.00  0.00    +0.000 C 
ENDBRANCH  15  16
ENDBRANCH  13  15
ENDBRANCH   6  13
TORSDOF 3
ENDMDL
MODEL 9
REMARK VINA RESULT:      -7.1      0.744      1.301
REMARK  Name = 
REMARK  5 active torsions:
REMARK  status: ('A' for Active; 'I' for Inactive)
REMARK    1  A    between atoms: C_1  and  C_2
REMARK    2  A    between atoms: C_6  and  C_7
REMARK    3  A    between atoms: C_7  and  C_9
REMARK    4  A    between atoms: C_9  and  N_10
REMARK    5  A    between atoms: C_16  and  C_17
REMARK                            x       y       z     vdW  Elec       q    Type
REMARK                         _______ _______ _______ _____ _____    ______ ____
ROOT
ATOM      1  C   UNL     1       6.220   3.497  12.162  0.00  0.00    +0.000 C 
ATOM      2  C   UNL     1       6.185   3.903  13.607  0.00  0.00    +0.000 A 
ATOM      3  C   UNL     1       5.363   3.231  14.510  0.00  0.00    +0.000 A 
ATOM      4  C   UNL     1       5.358   3.567  15.871  0.00  0.00    +0.000 A 
ATOM      5  C   UNL     1       6.196   4.596  16.351  0.00  0.00    +0.000 A 
ATOM      6  C   UNL     1       6.480   5.163  17.646  0.00  0.00    +0.000 A 
ATOM      7  C   UNL     1       7.342   6.236  17.430  0.00  0.00    +0.000 A 
ATOM      8  C   UNL     1       7.967   7.222  18.355  0.00  0.00    +0.000 C 
ATOM      9  N   UNL     1       7.639   6.272  16.090  0.00  0.00    +0.000 N 
ATOM     10  C   UNL     1       6.968   5.284  15.415  0.00  0.00    +0.000 A 
ATOM     11  C   UNL     1       6.995   4.958  14.052  0.00  0.00    +0.000 A 
ATOM     12  H   UNL     1       8.267   6.932  15.655  0.00  0.00    +0.000 HD
ENDROOT
BRANCH   6  13
ATOM     13  C   UNL     1       5.996   4.735  18.970  0.00  0.00    +0.000 C 
ATOM     14  O   UNL     1       6.345   5.326  19.997  0.00  0.00    +0.000 OA
BRANCH  13  15
ATOM     15  C   UNL     1       5.065   3.524  19.094  0.00  0.00    +0.000 C 
BRANCH  15  16
ATOM     16  N   UNL     1       3.700   3.893  19.537  0.00  0.00    +0.000 NA
ATOM     17  C   UNL     1       2.735   3.829  18.427  0.00  0.00    +0.000 C 
ATOM     18  C   UNL     1       1.352   4.294  18.887  0.00  0.00    +0.000 C 
ATOM     19  C   UNL     1       0.852   3.454  20.057  0.00  0.00    +0.000 C 
ATOM     20  C   UNL     1       1.892   3.415  21.170  0.00  0.00    +0.000 C 
ATOM     21  C   UNL     1       3.273   3.019  20.641  0.00  0.00    +0.000 C 
ENDBRANCH  15  16
ENDBRANCH  13  15
ENDBRANCH   6  13
TORSDOF 3
ENDMDL
