MODEL 1
REMARK VINA RESULT:      -7.3      0.000      0.000
REMARK  Name = 
REMARK  6 active torsions:
REMARK  status: ('A' for Active; 'I' for Inactive)
REMARK    1  A    between atoms: C_1  and  C_2
REMARK    2  A    between atoms: C_5  and  C_6
REMARK    3  A    between atoms: C_6  and  C_7
REMARK    4  A    between atoms: C_8  and  C_9
REMARK    5  A    between atoms: C_12  and  C_13
REMARK    6  A    between atoms: C_19  and  C_20
REMARK                            x       y       z     vdW  Elec       q    Type
REMARK                         _______ _______ _______ _____ _____    ______ ____
ROOT
ATOM      1  C   UNL     1       0.079  11.943  18.993  0.00  0.00    +0.000 A 
ATOM      2  C   UNL     1       1.322  11.333  18.907  0.00  0.00    +0.000 A 
ATOM      3  N   UNL     1       2.324  12.268  18.821  0.00  0.00    +0.000 NA
ATOM      4  C   UNL     1       1.723  13.439  18.803  0.00  0.00    +0.000 A 
ATOM      5  C   UNL     1       2.269  14.766  18.730  0.00  0.00    +0.000 A 
ATOM      6  C   UNL     1       3.746  15.049  18.675  0.00  0.00    +0.000 C 
ATOM      7  C   UNL     1       1.402  15.808  18.714  0.00  0.00    +0.000 A 
ATOM      8  C   UNL     1      -0.039  15.630  18.776  0.00  0.00    +0.000 A 
ATOM      9 BR   UNL     1      -1.124  17.141  18.736  0.00  0.00    +0.000 Br
ATOM     10  C   UNL     1      -0.535  14.386  18.862  0.00  0.00    +0.000 A 
ATOM     11  N   UNL     1       0.339  13.298  18.880  0.00  0.00    +0.000 N 
ENDROOT
BRANCH   2  12
ATOM     12  C   UNL     1       1.575   9.905  18.993  0.00  0.00    +0.000 A 
ATOM     13  C   UNL     1       2.057   9.188  17.894  0.00  0.00    +0.000 A 
ATOM     14  C   UNL     1       2.350   7.829  17.980  0.00  0.00    +0.000 A 
ATOM     15  C   UNL     1       2.148   7.158  19.186  0.00  0.00    +0.000 A 
ATOM     16  C   UNL     1       1.652   7.857  20.292  0.00  0.00    +0.000 A 
ATOM     17  C   UNL     1       1.368   9.223  20.194  0.00  0.00    +0.000 A 
BRANCH  15  18
ATOM     18  C   UNL     1       2.447   5.765  19.290  0.00  0.00    +0.000 C 
ATOM     19  N   UNL     1       2.692   4.624  19.380  0.00  0.00    +0.000 NA
ENDBRANCH  15  18
ENDBRANCH   2  12
BRANCH   1  20
ATOM     20  C   UNL     1      -1.283  11.373  19.248  0.00  0.00    +0.000 C 
BRANCH  20  25
ATOM     21  C   UNL     1      -4.066  10.035  14.302  0.00  0.00    +0.000 C 
ATOM     22  C   UNL     1      -3.408  10.343  15.612  0.00  0.00    +0.000 A 
ATOM     23  C   UNL     1      -3.908  11.321  16.477  0.00  0.00    +0.000 A 
ATOM     24  C   UNL     1      -3.229  11.632  17.660  0.00  0.00    +0.000 A 
ATOM     25  C   UNL     1      -2.051  10.949  18.008  0.00  0.00    +0.000 A 
ATOM     26  C   UNL     1      -1.609   9.918  17.171  0.00  0.00    +0.000 A 
ATOM     27  C   UNL     1      -2.255   9.644  15.971  0.00  0.00    +0.000 A 
ENDBRANCH  20  25
ENDBRANCH   1  20
TORSDOF 4
ENDMDL
MODEL 2
REMARK VINA RESULT:      -6.9      4.046      7.430
REMARK  Name = 
REMARK  6 active torsions:
REMARK  status: ('A' for Active; 'I' for Inactive)
REMARK    1  A    between atoms: C_1  and  C_2
REMARK    2  A    between atoms: C_5  and  C_6
REMARK    3  A    between atoms: C_6  and  C_7
REMARK    4  A    between atoms: C_8  and  C_9
REMARK    5  A    between atoms: C_12  and  C_13
REMARK    6  A    between atoms: C_19  and  C_20
REMARK                            x       y       z     vdW  Elec       q    Type
REMARK                         _______ _______ _______ _____ _____    ______ ____
ROOT
ATOM      1  C   UNL     1       2.527   7.276  18.915  0.00  0.00    +0.000 A 
ATOM      2  C   UNL     1       1.903   7.033  20.130  0.00  0.00    +0.000 A 
ATOM      3  N   UNL     1       2.161   5.758  20.569  0.00  0.00    +0.000 NA
ATOM      4  C   UNL     1       2.891   5.195  19.630  0.00  0.00    +0.000 A 
ATOM      5  C   UNL     1       3.455   3.876  19.552  0.00  0.00    +0.000 A 
ATOM      6  C   UNL     1       3.300   2.847  20.639  0.00  0.00    +0.000 C 
ATOM      7  C   UNL     1       4.164   3.553  18.442  0.00  0.00    +0.000 A 
ATOM      8  C   UNL     1       4.375   4.487  17.348  0.00  0.00    +0.000 A 
ATOM      9 BR   UNL     1       5.358   3.920  15.873  0.00  0.00    +0.000 Br
ATOM     10  C   UNL     1       3.858   5.722  17.442  0.00  0.00    +0.000 A 
ATOM     11  N   UNL     1       3.125   6.075  18.575  0.00  0.00    +0.000 N 
ENDROOT
BRANCH   2  12
ATOM     12  C   UNL     1       1.151   8.003  20.909  0.00  0.00    +0.000 A 
ATOM     13  C   UNL     1       1.799   8.972  21.678  0.00  0.00    +0.000 A 
ATOM     14  C   UNL     1       1.087   9.936  22.388  0.00  0.00    +0.000 A 
ATOM     15  C   UNL     1      -0.307   9.932  22.344  0.00  0.00    +0.000 A 
ATOM     16  C   UNL     1      -0.973   8.959  21.591  0.00  0.00    +0.000 A 
ATOM     17  C   UNL     1      -0.246   8.001  20.877  0.00  0.00    +0.000 A 
BRANCH  15  18
ATOM     18  C   UNL     1      -1.050  10.917  23.065  0.00  0.00    +0.000 C 
ATOM     19  N   UNL     1      -1.655  11.727  23.654  0.00  0.00    +0.000 NA
ENDBRANCH  15  18
ENDBRANCH   2  12
BRANCH   1  20
ATOM     20  C   UNL     1       2.669   8.536  18.116  0.00  0.00    +0.000 C 
BRANCH  20  25
ATOM     21  C   UNL     1      -2.085  11.887  18.517  0.00  0.00    +0.000 C 
ATOM     22  C   UNL     1      -0.860  11.045  18.338  0.00  0.00    +0.000 A 
ATOM     23  C   UNL     1      -0.898   9.818  17.668  0.00  0.00    +0.000 A 
ATOM     24  C   UNL     1       0.251   9.025  17.581  0.00  0.00    +0.000 A 
ATOM     25  C   UNL     1       1.464   9.459  18.142  0.00  0.00    +0.000 A 
ATOM     26  C   UNL     1       1.504  10.725  18.737  0.00  0.00    +0.000 A 
ATOM     27  C   UNL     1       0.351  11.491  18.869  0.00  0.00    +0.000 A 
ENDBRANCH  20  25
ENDBRANCH   1  20
TORSDOF 4
ENDMDL
MODEL 3
REMARK VINA RESULT:      -6.9      1.568      1.867
REMARK  Name = 
REMARK  6 active torsions:
REMARK  status: ('A' for Active; 'I' for Inactive)
REMARK    1  A    between atoms: C_1  and  C_2
REMARK    2  A    between atoms: C_5  and  C_6
REMARK    3  A    between atoms: C_6  and  C_7
REMARK    4  A    between atoms: C_8  and  C_9
REMARK    5  A    between atoms: C_12  and  C_13
REMARK    6  A    between atoms: C_19  and  C_20
REMARK                            x       y       z     vdW  Elec       q    Type
REMARK                         _______ _______ _______ _____ _____    ______ ____
ROOT
ATOM      1  C   UNL     1      -0.722  11.504  19.773  0.00  0.00    +0.000 A 
ATOM      2  C   UNL     1       0.631  11.198  19.732  0.00  0.00    +0.000 A 
ATOM      3  N   UNL     1       1.387  12.245  20.197  0.00  0.00    +0.000 NA
ATOM      4  C   UNL     1       0.534  13.206  20.480  0.00  0.00    +0.000 A 
ATOM      5  C   UNL     1       0.756  14.526  21.005  0.00  0.00    +0.000 A 
ATOM      6  C   UNL     1       2.120  15.053  21.362  0.00  0.00    +0.000 C 
ATOM      7  C   UNL     1      -0.323  15.326  21.188  0.00  0.00    +0.000 A 
ATOM      8  C   UNL     1      -1.678  14.896  20.882  0.00  0.00    +0.000 A 
ATOM      9 BR   UNL     1      -3.075  16.092  21.167  0.00  0.00    +0.000 Br
ATOM     10  C   UNL     1      -1.873  13.655  20.409  0.00  0.00    +0.000 A 
ATOM     11  N   UNL     1      -0.777  12.815  20.214  0.00  0.00    +0.000 N 
ENDROOT
BRANCH   2  12
ATOM     12  C   UNL     1       1.201   9.917  19.346  0.00  0.00    +0.000 A 
ATOM     13  C   UNL     1       1.698   9.705  18.058  0.00  0.00    +0.000 A 
ATOM     14  C   UNL     1       2.291   8.499  17.694  0.00  0.00    +0.000 A 
ATOM     15  C   UNL     1       2.384   7.469  18.629  0.00  0.00    +0.000 A 
ATOM     16  C   UNL     1       1.878   7.659  19.920  0.00  0.00    +0.000 A 
ATOM     17  C   UNL     1       1.291   8.878  20.275  0.00  0.00    +0.000 A 
BRANCH  15  18
ATOM     18  C   UNL     1       2.993   6.227  18.271  0.00  0.00    +0.000 C 
ATOM     19  N   UNL     1       3.496   5.212  17.979  0.00  0.00    +0.000 NA
ENDBRANCH  15  18
ENDBRANCH   2  12
BRANCH   1  20
ATOM     20  C   UNL     1      -1.932  10.657  19.519  0.00  0.00    +0.000 C 
BRANCH  20  25
ATOM     21  C   UNL     1      -3.921  10.178  14.059  0.00  0.00    +0.000 C 
ATOM     22  C   UNL     1      -3.351  10.343  15.433  0.00  0.00    +0.000 A 
ATOM     23  C   UNL     1      -2.208   9.651  15.847  0.00  0.00    +0.000 A 
ATOM     24  C   UNL     1      -1.743   9.775  17.161  0.00  0.00    +0.000 A 
ATOM     25  C   UNL     1      -2.401  10.615  18.075  0.00  0.00    +0.000 A 
ATOM     26  C   UNL     1      -3.494  11.362  17.622  0.00  0.00    +0.000 A 
ATOM     27  C   UNL     1      -3.987  11.200  16.332  0.00  0.00    +0.000 A 
ENDBRANCH  20  25
ENDBRANCH   1  20
TORSDOF 4
ENDMDL
MODEL 4
REMARK VINA RESULT:      -6.9      3.487      6.610
REMARK  Name = 
REMARK  6 active torsions:
REMARK  status: ('A' for Active; 'I' for Inactive)
REMARK    1  A    between atoms: C_1  and  C_2
REMARK    2  A    between atoms: C_5  and  C_6
REMARK    3  A    between atoms: C_6  and  C_7
REMARK    4  A    between atoms: C_8  and  C_9
REMARK    5  A    between atoms: C_12  and  C_13
REMARK    6  A    between atoms: C_19  and  C_20
REMARK                            x       y       z     vdW  Elec       q    Type
REMARK                         _______ _______ _______ _____ _____    ______ ____
ROOT
ATOM      1  C   UNL     1      -2.854  12.361  19.769  0.00  0.00    +0.000 A 
ATOM      2  C   UNL     1      -3.823  11.794  18.955  0.00  0.00    +0.000 A 
ATOM      3  N   UNL     1      -5.069  11.903  19.521  0.00  0.00    +0.000 NA
ATOM      4  C   UNL     1      -4.884  12.484  20.688  0.00  0.00    +0.000 A 
ATOM      5  C   UNL     1      -5.828  12.855  21.706  0.00  0.00    +0.000 A 
ATOM      6  C   UNL     1      -7.311  12.633  21.575  0.00  0.00    +0.000 C 
ATOM      7  C   UNL     1      -5.350  13.435  22.833  0.00  0.00    +0.000 A 
ATOM      8  C   UNL     1      -3.935  13.698  23.040  0.00  0.00    +0.000 A 
ATOM      9 BR   UNL     1      -3.402  14.492  24.636  0.00  0.00    +0.000 Br
ATOM     10  C   UNL     1      -3.066  13.363  22.074  0.00  0.00    +0.000 A 
ATOM     11  N   UNL     1      -3.536  12.764  20.905  0.00  0.00    +0.000 N 
ENDROOT
BRANCH   2  12
ATOM     12  C   UNL     1      -3.600  11.236  17.631  0.00  0.00    +0.000 A 
ATOM     13  C   UNL     1      -4.301  11.709  16.519  0.00  0.00    +0.000 A 
ATOM     14  C   UNL     1      -4.059  11.216  15.239  0.00  0.00    +0.000 A 
ATOM     15  C   UNL     1      -3.104  10.216  15.057  0.00  0.00    +0.000 A 
ATOM     16  C   UNL     1      -2.403   9.720  16.162  0.00  0.00    +0.000 A 
ATOM     17  C   UNL     1      -2.651  10.229  17.441  0.00  0.00    +0.000 A 
BRANCH  15  18
ATOM     18  C   UNL     1      -2.843   9.703  13.750  0.00  0.00    +0.000 C 
ATOM     19  N   UNL     1      -2.626   9.286  12.678  0.00  0.00    +0.000 NA
ENDBRANCH  15  18
ENDBRANCH   2  12
BRANCH   1  20
ATOM     20  C   UNL     1      -1.397  12.621  19.533  0.00  0.00    +0.000 C 
BRANCH  20  25
ATOM     21  C   UNL     1       1.825   7.813  20.232  0.00  0.00    +0.000 C 
ATOM     22  C   UNL     1       1.043   9.083  20.106  0.00  0.00    +0.000 A 
ATOM     23  C   UNL     1       0.159   9.509  21.102  0.00  0.00    +0.000 A 
ATOM     24  C   UNL     1      -0.608  10.664  20.920  0.00  0.00    +0.000 A 
ATOM     25  C   UNL     1      -0.484  11.426  19.746  0.00  0.00    +0.000 A 
ATOM     26  C   UNL     1       0.463  11.031  18.795  0.00  0.00    +0.000 A 
ATOM     27  C   UNL     1       1.189   9.855  18.953  0.00  0.00    +0.000 A 
ENDBRANCH  20  25
ENDBRANCH   1  20
TORSDOF 4
ENDMDL
MODEL 5
REMARK VINA RESULT:      -6.7      3.618      6.687
REMARK  Name = 
REMARK  6 active torsions:
REMARK  status: ('A' for Active; 'I' for Inactive)
REMARK    1  A    between atoms: C_1  and  C_2
REMARK    2  A    between atoms: C_5  and  C_6
REMARK    3  A    between atoms: C_6  and  C_7
REMARK    4  A    between atoms: C_8  and  C_9
REMARK    5  A    between atoms: C_12  and  C_13
REMARK    6  A    between atoms: C_19  and  C_20
REMARK                            x       y       z     vdW  Elec       q    Type
REMARK                         _______ _______ _______ _____ _____    ______ ____
ROOT
ATOM      1  C   UNL     1       2.382   7.999  18.531  0.00  0.00    +0.000 A 
ATOM      2  C   UNL     1       2.143   6.998  19.462  0.00  0.00    +0.000 A 
ATOM      3  N   UNL     1       1.386   7.468  20.507  0.00  0.00    +0.000 NA
ATOM      4  C   UNL     1       1.192   8.747  20.263  0.00  0.00    +0.000 A 
ATOM      5  C   UNL     1       0.468   9.739  21.009  0.00  0.00    +0.000 A 
ATOM      6  C   UNL     1      -0.262   9.437  22.291  0.00  0.00    +0.000 C 
ATOM      7  C   UNL     1       0.443  11.004  20.525  0.00  0.00    +0.000 A 
ATOM      8  C   UNL     1       1.110  11.384  19.289  0.00  0.00    +0.000 A 
ATOM      9 BR   UNL     1       1.011  13.157  18.735  0.00  0.00    +0.000 Br
ATOM     10  C   UNL     1       1.767  10.444  18.593  0.00  0.00    +0.000 A 
ATOM     11  N   UNL     1       1.805   9.134  19.073  0.00  0.00    +0.000 N 
ENDROOT
BRANCH   2  12
ATOM     12  C   UNL     1       2.543   5.607  19.335  0.00  0.00    +0.000 A 
ATOM     13  C   UNL     1       1.759   4.690  18.631  0.00  0.00    +0.000 A 
ATOM     14  C   UNL     1       2.157   3.366  18.462  0.00  0.00    +0.000 A 
ATOM     15  C   UNL     1       3.361   2.935  19.017  0.00  0.00    +0.000 A 
ATOM     16  C   UNL     1       4.153   3.836  19.739  0.00  0.00    +0.000 A 
ATOM     17  C   UNL     1       3.744   5.165  19.895  0.00  0.00    +0.000 A 
BRANCH  15  18
ATOM     18  C   UNL     1       3.785   1.581  18.849  0.00  0.00    +0.000 C 
ATOM     19  N   UNL     1       4.134   0.472  18.716  0.00  0.00    +0.000 NA
ENDBRANCH  15  18
ENDBRANCH   2  12
BRANCH   1  20
ATOM     20  C   UNL     1       3.017   7.951  17.174  0.00  0.00    +0.000 C 
BRANCH  20  25
ATOM     21  C   UNL     1       7.697   4.475  17.120  0.00  0.00    +0.000 C 
ATOM     22  C   UNL     1       6.532   5.414  17.083  0.00  0.00    +0.000 A 
ATOM     23  C   UNL     1       6.571   6.665  17.707  0.00  0.00    +0.000 A 
ATOM     24  C   UNL     1       5.439   7.488  17.713  0.00  0.00    +0.000 A 
ATOM     25  C   UNL     1       4.257   7.082  17.071  0.00  0.00    +0.000 A 
ATOM     26  C   UNL     1       4.261   5.863  16.381  0.00  0.00    +0.000 A 
ATOM     27  C   UNL     1       5.368   5.023  16.419  0.00  0.00    +0.000 A 
ENDBRANCH  20  25
ENDBRANCH   1  20
TORSDOF 4
ENDMDL
MODEL 6
REMARK VINA RESULT:      -6.7      1.927      3.292
REMARK  Name = 
REMARK  6 active torsions:
REMARK  status: ('A' for Active; 'I' for Inactive)
REMARK    1  A    between atoms: C_1  and  C_2
REMARK    2  A    between atoms: C_5  and  C_6
REMARK    3  A    between atoms: C_6  and  C_7
REMARK    4  A    between atoms: C_8  and  C_9
REMARK    5  A    between atoms: C_12  and  C_13
REMARK    6  A    between atoms: C_19  and  C_20
REMARK                            x       y       z     vdW  Elec       q    Type
REMARK                         _______ _______ _______ _____ _____    ______ ____
ROOT
ATOM      1  C   UNL     1       0.051  12.324  18.919  0.00  0.00    +0.000 A 
ATOM      2  C   UNL     1       1.288  11.698  18.879  0.00  0.00    +0.000 A 
ATOM      3  N   UNL     1       2.304  12.620  18.822  0.00  0.00    +0.000 NA
ATOM      4  C   UNL     1       1.719  13.798  18.780  0.00  0.00    +0.000 A 
ATOM      5  C   UNL     1       2.283  15.118  18.719  0.00  0.00    +0.000 A 
ATOM      6  C   UNL     1       3.765  15.382  18.713  0.00  0.00    +0.000 C 
ATOM      7  C   UNL     1       1.431  16.171  18.669  0.00  0.00    +0.000 A 
ATOM      8  C   UNL     1      -0.014  16.011  18.682  0.00  0.00    +0.000 A 
ATOM      9 BR   UNL     1      -1.078  17.535  18.599  0.00  0.00    +0.000 Br
ATOM     10  C   UNL     1      -0.528  14.773  18.757  0.00  0.00    +0.000 A 
ATOM     11  N   UNL     1       0.331  13.675  18.810  0.00  0.00    +0.000 N 
ENDROOT
BRANCH   2  12
ATOM     12  C   UNL     1       1.521  10.267  18.979  0.00  0.00    +0.000 A 
ATOM     13  C   UNL     1       2.005   9.534  17.892  0.00  0.00    +0.000 A 
ATOM     14  C   UNL     1       2.278   8.173  17.993  0.00  0.00    +0.000 A 
ATOM     15  C   UNL     1       2.053   7.514  19.201  0.00  0.00    +0.000 A 
ATOM     16  C   UNL     1       1.553   8.229  20.296  0.00  0.00    +0.000 A 
ATOM     17  C   UNL     1       1.290   9.598  20.184  0.00  0.00    +0.000 A 
BRANCH  15  18
ATOM     18  C   UNL     1       2.331   6.118  19.320  0.00  0.00    +0.000 C 
ATOM     19  N   UNL     1       2.558   4.974  19.413  0.00  0.00    +0.000 NA
ENDBRANCH  15  18
ENDBRANCH   2  12
BRANCH   1  20
ATOM     20  C   UNL     1      -1.326  11.771  19.130  0.00  0.00    +0.000 C 
BRANCH  20  25
ATOM     21  C   UNL     1      -3.877  12.552  24.315  0.00  0.00    +0.000 C 
ATOM     22  C   UNL     1      -3.209  12.428  22.981  0.00  0.00    +0.000 A 
ATOM     23  C   UNL     1      -3.824  12.863  21.803  0.00  0.00    +0.000 A 
ATOM     24  C   UNL     1      -3.200  12.667  20.566  0.00  0.00    +0.000 A 
ATOM     25  C   UNL     1      -1.937  12.057  20.491  0.00  0.00    +0.000 A 
ATOM     26  C   UNL     1      -1.299  11.701  21.686  0.00  0.00    +0.000 A 
ATOM     27  C   UNL     1      -1.941  11.848  22.910  0.00  0.00    +0.000 A 
ENDBRANCH  20  25
ENDBRANCH   1  20
TORSDOF 4
ENDMDL
MODEL 7
REMARK VINA RESULT:      -6.7      3.525      7.239
REMARK  Name = 
REMARK  6 active torsions:
REMARK  status: ('A' for Active; 'I' for Inactive)
REMARK    1  A    between atoms: C_1  and  C_2
REMARK    2  A    between atoms: C_5  and  C_6
REMARK    3  A    between atoms: C_6  and  C_7
REMARK    4  A    between atoms: C_8  and  C_9
REMARK    5  A    between atoms: C_12  and  C_13
REMARK    6  A    between atoms: C_19  and  C_20
REMARK                            x       y       z     vdW  Elec       q    Type
REMARK                         _______ _______ _______ _____ _____    ______ ____
ROOT
ATOM      1  C   UNL     1      -1.856  12.274  19.146  0.00  0.00    +0.000 A 
ATOM      2  C   UNL     1      -2.715  12.741  20.130  0.00  0.00    +0.000 A 
ATOM      3  N   UNL     1      -4.023  12.470  19.810  0.00  0.00    +0.000 NA
ATOM      4  C   UNL     1      -3.991  11.890  18.629  0.00  0.00    +0.000 A 
ATOM      5  C   UNL     1      -5.058  11.387  17.808  0.00  0.00    +0.000 A 
ATOM      6  C   UNL     1      -6.506  11.432  18.217  0.00  0.00    +0.000 C 
ATOM      7  C   UNL     1      -4.734  10.842  16.610  0.00  0.00    +0.000 A 
ATOM      8  C   UNL     1      -3.361  10.745  16.138  0.00  0.00    +0.000 A 
ATOM      9 BR   UNL     1      -3.046   9.985  14.470  0.00  0.00    +0.000 Br
ATOM     10  C   UNL     1      -2.373  11.203  16.923  0.00  0.00    +0.000 A 
ATOM     11  N   UNL     1      -2.685  11.767  18.160  0.00  0.00    +0.000 N 
ENDROOT
BRANCH   2  12
ATOM     12  C   UNL     1      -2.317  13.350  21.388  0.00  0.00    +0.000 A 
ATOM     13  C   UNL     1      -2.074  14.723  21.482  0.00  0.00    +0.000 A 
ATOM     14  C   UNL     1      -1.741  15.324  22.693  0.00  0.00    +0.000 A 
ATOM     15  C   UNL     1      -1.632  14.540  23.842  0.00  0.00    +0.000 A 
ATOM     16  C   UNL     1      -1.857  13.161  23.763  0.00  0.00    +0.000 A 
ATOM     17  C   UNL     1      -2.199  12.571  22.542  0.00  0.00    +0.000 A 
BRANCH  15  18
ATOM     18  C   UNL     1      -1.294  15.144  25.092  0.00  0.00    +0.000 C 
ATOM     19  N   UNL     1      -1.018  15.633  26.119  0.00  0.00    +0.000 NA
ENDBRANCH  15  18
ENDBRANCH   2  12
BRANCH   1  20
ATOM     20  C   UNL     1      -0.360  12.196  19.102  0.00  0.00    +0.000 C 
BRANCH  20  25
ATOM     21  C   UNL     1       2.209   7.053  20.074  0.00  0.00    +0.000 C 
ATOM     22  C   UNL     1       1.498   8.336  19.779  0.00  0.00    +0.000 A 
ATOM     23  C   UNL     1       1.599   8.969  18.536  0.00  0.00    +0.000 A 
ATOM     24  C   UNL     1       0.977  10.203  18.318  0.00  0.00    +0.000 A 
ATOM     25  C   UNL     1       0.223  10.813  19.334  0.00  0.00    +0.000 A 
ATOM     26  C   UNL     1       0.065  10.128  20.545  0.00  0.00    +0.000 A 
ATOM     27  C   UNL     1       0.724   8.927  20.779  0.00  0.00    +0.000 A 
ENDBRANCH  20  25
ENDBRANCH   1  20
TORSDOF 4
ENDMDL
MODEL 8
REMARK VINA RESULT:      -6.6      3.721      7.437
REMARK  Name = 
REMARK  6 active torsions:
REMARK  status: ('A' for Active; 'I' for Inactive)
REMARK    1  A    between atoms: C_1  and  C_2
REMARK    2  A    between atoms: C_5  and  C_6
REMARK    3  A    between atoms: C_6  and  C_7
REMARK    4  A    between atoms: C_8  and  C_9
REMARK    5  A    between atoms: C_12  and  C_13
REMARK    6  A    between atoms: C_19  and  C_20
REMARK                            x       y       z     vdW  Elec       q    Type
REMARK                         _______ _______ _______ _____ _____    ______ ____
ROOT
ATOM      1  C   UNL     1      -2.089  12.487  19.448  0.00  0.00    +0.000 A 
ATOM      2  C   UNL     1      -2.998  12.901  20.410  0.00  0.00    +0.000 A 
ATOM      3  N   UNL     1      -4.279  12.551  20.061  0.00  0.00    +0.000 NA
ATOM      4  C   UNL     1      -4.184  11.972  18.882  0.00  0.00    +0.000 A 
ATOM      5  C   UNL     1      -5.199  11.403  18.039  0.00  0.00    +0.000 A 
ATOM      6  C   UNL     1      -6.656  11.361  18.415  0.00  0.00    +0.000 C 
ATOM      7  C   UNL     1      -4.815  10.877  16.851  0.00  0.00    +0.000 A 
ATOM      8  C   UNL     1      -3.429  10.863  16.411  0.00  0.00    +0.000 A 
ATOM      9 BR   UNL     1      -3.029  10.121  14.752  0.00  0.00    +0.000 Br
ATOM     10  C   UNL     1      -2.488  11.382  17.216  0.00  0.00    +0.000 A 
ATOM     11  N   UNL     1      -2.862  11.928  18.444  0.00  0.00    +0.000 N 
ENDROOT
BRANCH   2  12
ATOM     12  C   UNL     1      -2.666  13.536  21.675  0.00  0.00    +0.000 A 
ATOM     13  C   UNL     1      -2.764  12.839  22.882  0.00  0.00    +0.000 A 
ATOM     14  C   UNL     1      -2.401  13.423  24.093  0.00  0.00    +0.000 A 
ATOM     15  C   UNL     1      -1.941  14.739  24.111  0.00  0.00    +0.000 A 
ATOM     16  C   UNL     1      -1.851  15.457  22.913  0.00  0.00    +0.000 A 
ATOM     17  C   UNL     1      -2.211  14.857  21.702  0.00  0.00    +0.000 A 
BRANCH  15  18
ATOM     18  C   UNL     1      -1.562  15.350  25.346  0.00  0.00    +0.000 C 
ATOM     19  N   UNL     1      -1.256  15.848  26.359  0.00  0.00    +0.000 NA
ENDBRANCH  15  18
ENDBRANCH   2  12
BRANCH   1  20
ATOM     20  C   UNL     1      -0.590  12.499  19.438  0.00  0.00    +0.000 C 
BRANCH  20  25
ATOM     21  C   UNL     1       1.617   7.285  20.831  0.00  0.00    +0.000 C 
ATOM     22  C   UNL     1       1.105   8.657  20.518  0.00  0.00    +0.000 A 
ATOM     23  C   UNL     1       0.391   9.411  21.455  0.00  0.00    +0.000 A 
ATOM     24  C   UNL     1      -0.133  10.660  21.106  0.00  0.00    +0.000 A 
ATOM     25  C   UNL     1       0.071  11.186  19.819  0.00  0.00    +0.000 A 
ATOM     26  C   UNL     1       0.855  10.455  18.919  0.00  0.00    +0.000 A 
ATOM     27  C   UNL     1       1.333   9.191  19.249  0.00  0.00    +0.000 A 
ENDBRANCH  20  25
ENDBRANCH   1  20
TORSDOF 4
ENDMDL
MODEL 9
REMARK VINA RESULT:      -6.3      1.073      1.711
REMARK  Name = 
REMARK  6 active torsions:
REMARK  status: ('A' for Active; 'I' for Inactive)
REMARK    1  A    between atoms: C_1  and  C_2
REMARK    2  A    between atoms: C_5  and  C_6
REMARK    3  A    between atoms: C_6  and  C_7
REMARK    4  A    between atoms: C_8  and  C_9
REMARK    5  A    between atoms: C_12  and  C_13
REMARK    6  A    between atoms: C_19  and  C_20
REMARK                            x       y       z     vdW  Elec       q    Type
REMARK                         _______ _______ _______ _____ _____    ______ ____
ROOT
ATOM      1  C   UNL     1       0.091  12.063  19.385  0.00  0.00    +0.000 A 
ATOM      2  C   UNL     1       1.250  11.436  18.952  0.00  0.00    +0.000 A 
ATOM      3  N   UNL     1       2.179  12.355  18.529  0.00  0.00    +0.000 NA
ATOM      4  C   UNL     1       1.600  13.531  18.648  0.00  0.00    +0.000 A 
ATOM      5  C   UNL     1       2.096  14.849  18.360  0.00  0.00    +0.000 A 
ATOM      6  C   UNL     1       3.488  15.112  17.849  0.00  0.00    +0.000 C 
ATOM      7  C   UNL     1       1.265  15.899  18.565  0.00  0.00    +0.000 A 
ATOM      8  C   UNL     1      -0.090  15.740  19.068  0.00  0.00    +0.000 A 
ATOM      9 BR   UNL     1      -1.137  17.260  19.298  0.00  0.00    +0.000 Br
ATOM     10  C   UNL     1      -0.535  14.505  19.350  0.00  0.00    +0.000 A 
ATOM     11  N   UNL     1       0.304  13.410  19.145  0.00  0.00    +0.000 N 
ENDROOT
BRANCH   2  12
ATOM     12  C   UNL     1       1.519  10.009  19.013  0.00  0.00    +0.000 A 
ATOM     13  C   UNL     1       1.981   9.310  17.895  0.00  0.00    +0.000 A 
ATOM     14  C   UNL     1       2.288   7.954  17.957  0.00  0.00    +0.000 A 
ATOM     15  C   UNL     1       2.121   7.266  19.158  0.00  0.00    +0.000 A 
ATOM     16  C   UNL     1       1.644   7.945  20.285  0.00  0.00    +0.000 A 
ATOM     17  C   UNL     1       1.346   9.310  20.211  0.00  0.00    +0.000 A 
BRANCH  15  18
ATOM     18  C   UNL     1       2.435   5.874  19.237  0.00  0.00    +0.000 C 
ATOM     19  N   UNL     1       2.696   4.735  19.306  0.00  0.00    +0.000 NA
ENDBRANCH  15  18
ENDBRANCH   2  12
BRANCH   1  20
ATOM     20  C   UNL     1      -1.129  11.518  20.063  0.00  0.00    +0.000 C 
BRANCH  20  25
ATOM     21  C   UNL     1      -6.255  12.107  17.349  0.00  0.00    +0.000 C 
ATOM     22  C   UNL     1      -4.911  12.013  18.002  0.00  0.00    +0.000 A 
ATOM     23  C   UNL     1      -3.806  11.463  17.344  0.00  0.00    +0.000 A 
ATOM     24  C   UNL     1      -2.583  11.328  18.009  0.00  0.00    +0.000 A 
ATOM     25  C   UNL     1      -2.439  11.764  19.336  0.00  0.00    +0.000 A 
ATOM     26  C   UNL     1      -3.531  12.386  19.953  0.00  0.00    +0.000 A 
ATOM     27  C   UNL     1      -4.760  12.474  19.310  0.00  0.00    +0.000 A 
ENDBRANCH  20  25
ENDBRANCH   1  20
TORSDOF 4
ENDMDL
