MODEL 1
REMARK VINA RESULT:      -8.0      0.000      0.000
REMARK  Name = 
REMARK  6 active torsions:
REMARK  status: ('A' for Active; 'I' for Inactive)
REMARK    1  A    between atoms: C_1  and  C_2
REMARK    2  A    between atoms: C_5  and  N_6
REMARK    3  A    between atoms: N_6  and  C_7
REMARK    4  A    between atoms: C_7  and  C_8
REMARK    5  A    between atoms: C_14  and  O_16
REMARK    6  A    between atoms: O_16  and  C_17
REMARK                            x       y       z     vdW  Elec       q    Type
REMARK                         _______ _______ _______ _____ _____    ______ ____
ROOT
ATOM      1  N   UNL     1       5.883   4.854  17.055  0.00  0.00    +0.000 N 
ATOM      2  C   UNL     1       4.550   4.394  16.943  0.00  0.00    +0.000 C 
ATOM      3  O   UNL     1       4.344   3.238  16.556  0.00  0.00    +0.000 OA
ENDROOT
BRANCH   1   8
ATOM      4  C   UNL     1       8.862   9.623  18.342  0.00  0.00    +0.000 C 
ATOM      5  C   UNL     1       8.021   8.396  18.109  0.00  0.00    +0.000 A 
ATOM      6  C   UNL     1       8.333   7.169  18.701  0.00  0.00    +0.000 A 
ATOM      7  C   UNL     1       7.548   6.026  18.432  0.00  0.00    +0.000 A 
ATOM      8  C   UNL     1       6.405   6.076  17.603  0.00  0.00    +0.000 A 
ATOM      9  C   UNL     1       6.113   7.304  17.006  0.00  0.00    +0.000 A 
ATOM     10  C   UNL     1       6.912   8.443  17.250  0.00  0.00    +0.000 A 
ENDBRANCH   1   8
BRANCH   1  11
ATOM     11  C   UNL     1       6.906   4.059  16.320  0.00  0.00    +0.000 C 
BRANCH  11  12
ATOM     12  C   UNL     1       6.872   4.352  14.820  0.00  0.00    +0.000 A 
ATOM     13  C   UNL     1       6.114   3.580  13.933  0.00  0.00    +0.000 A 
ATOM     14  C   UNL     1       6.280   3.726  12.550  0.00  0.00    +0.000 A 
ATOM     15  C   UNL     1       7.196   4.649  12.047  0.00  0.00    +0.000 A 
ATOM     16  C   UNL     1       7.904   5.468  12.921  0.00  0.00    +0.000 A 
ATOM     17  C   UNL     1       7.717   5.341  14.295  0.00  0.00    +0.000 A 
ENDBRANCH  11  12
ENDBRANCH   1  11
BRANCH   2  18
ATOM     18  O   UNL     1       3.472   5.217  17.219  0.00  0.00    +0.000 OA
BRANCH  18  19
ATOM     19  C   UNL     1       2.607   4.968  18.419  0.00  0.00    +0.000 C 
ATOM     20  C   UNL     1       1.433   3.997  18.100  0.00  0.00    +0.000 C 
ATOM     21  N   UNL     1       1.188   2.980  19.162  0.00  0.00    +0.000 NA
ATOM     22  C   UNL     1       2.431   2.214  19.442  0.00  0.00    +0.000 C 
ATOM     23  C   UNL     1       3.588   3.111  19.925  0.00  0.00    +0.000 C 
ATOM     24  C   UNL     1       3.139   4.576  19.859  0.00  0.00    +0.000 C 
ATOM     25  C   UNL     1       1.937   4.585  20.889  0.00  0.00    +0.000 C 
ATOM     26  C   UNL     1       0.793   3.677  20.397  0.00  0.00    +0.000 C 
ENDBRANCH  18  19
ENDBRANCH   2  18
TORSDOF 5
ENDMDL
MODEL 2
REMARK VINA RESULT:      -8.0      1.019      1.914
REMARK  Name = 
REMARK  6 active torsions:
REMARK  status: ('A' for Active; 'I' for Inactive)
REMARK    1  A    between atoms: C_1  and  C_2
REMARK    2  A    between atoms: C_5  and  N_6
REMARK    3  A    between atoms: N_6  and  C_7
REMARK    4  A    between atoms: C_7  and  C_8
REMARK    5  A    between atoms: C_14  and  O_16
REMARK    6  A    between atoms: O_16  and  C_17
REMARK                            x       y       z     vdW  Elec       q    Type
REMARK                         _______ _______ _______ _____ _____    ______ ____
ROOT
ATOM      1  N   UNL     1       5.792   4.984  16.755  0.00  0.00    +0.000 N 
ATOM      2  C   UNL     1       5.181   3.930  17.473  0.00  0.00    +0.000 C 
ATOM      3  O   UNL     1       4.424   3.156  16.876  0.00  0.00    +0.000 OA
ENDROOT
BRANCH   1   8
ATOM      4  C   UNL     1       8.954   9.155  19.178  0.00  0.00    +0.000 C 
ATOM      5  C   UNL     1       8.218   8.053  18.463  0.00  0.00    +0.000 A 
ATOM      6  C   UNL     1       7.428   8.308  17.339  0.00  0.00    +0.000 A 
ATOM      7  C   UNL     1       6.716   7.262  16.713  0.00  0.00    +0.000 A 
ATOM      8  C   UNL     1       6.803   5.922  17.156  0.00  0.00    +0.000 A 
ATOM      9  C   UNL     1       7.585   5.683  18.289  0.00  0.00    +0.000 A 
ATOM     10  C   UNL     1       8.275   6.732  18.934  0.00  0.00    +0.000 A 
ENDBRANCH   1   8
BRANCH   1  11
ATOM     11  C   UNL     1       5.167   5.322  15.445  0.00  0.00    +0.000 C 
BRANCH  11  12
ATOM     12  C   UNL     1       5.931   4.692  14.280  0.00  0.00    +0.000 A 
ATOM     13  C   UNL     1       7.193   5.153  13.889  0.00  0.00    +0.000 A 
ATOM     14  C   UNL     1       7.764   4.714  12.688  0.00  0.00    +0.000 A 
ATOM     15  C   UNL     1       7.082   3.807  11.877  0.00  0.00    +0.000 A 
ATOM     16  C   UNL     1       5.859   3.292  12.292  0.00  0.00    +0.000 A 
ATOM     17  C   UNL     1       5.305   3.708  13.501  0.00  0.00    +0.000 A 
ENDBRANCH  11  12
ENDBRANCH   1  11
BRANCH   2  18
ATOM     18  O   UNL     1       5.379   3.766  18.832  0.00  0.00    +0.000 OA
BRANCH  18  19
ATOM     19  C   UNL     1       4.234   3.893  19.793  0.00  0.00    +0.000 C 
ATOM     20  C   UNL     1       3.255   5.032  19.387  0.00  0.00    +0.000 C 
ATOM     21  N   UNL     1       1.816   4.669  19.531  0.00  0.00    +0.000 NA
ATOM     22  C   UNL     1       1.516   3.430  18.766  0.00  0.00    +0.000 C 
ATOM     23  C   UNL     1       2.343   2.220  19.240  0.00  0.00    +0.000 C 
ATOM     24  C   UNL     1       3.339   2.690  20.308  0.00  0.00    +0.000 C 
ATOM     25  C   UNL     1       2.365   3.202  21.446  0.00  0.00    +0.000 C 
ATOM     26  C   UNL     1       1.539   4.406  20.952  0.00  0.00    +0.000 C 
ENDBRANCH  18  19
ENDBRANCH   2  18
TORSDOF 5
ENDMDL
MODEL 3
REMARK VINA RESULT:      -7.9      4.272      6.754
REMARK  Name = 
REMARK  6 active torsions:
REMARK  status: ('A' for Active; 'I' for Inactive)
REMARK    1  A    between atoms: C_1  and  C_2
REMARK    2  A    between atoms: C_5  and  N_6
REMARK    3  A    between atoms: N_6  and  C_7
REMARK    4  A    between atoms: C_7  and  C_8
REMARK    5  A    between atoms: C_14  and  O_16
REMARK    6  A    between atoms: O_16  and  C_17
REMARK                            x       y       z     vdW  Elec       q    Type
REMARK                         _______ _______ _______ _____ _____    ______ ____
ROOT
ATOM      1  N   UNL     1       2.666   6.645  18.017  0.00  0.00    +0.000 N 
ATOM      2  C   UNL     1       2.507   8.047  17.927  0.00  0.00    +0.000 C 
ATOM      3  O   UNL     1       2.992   8.646  16.960  0.00  0.00    +0.000 OA
ENDROOT
BRANCH   1   8
ATOM      4  C   UNL     1       1.561   2.367  21.726  0.00  0.00    +0.000 C 
ATOM      5  C   UNL     1       1.729   3.504  20.753  0.00  0.00    +0.000 A 
ATOM      6  C   UNL     1       1.591   3.318  19.375  0.00  0.00    +0.000 A 
ATOM      7  C   UNL     1       1.794   4.394  18.484  0.00  0.00    +0.000 A 
ATOM      8  C   UNL     1       2.096   5.699  18.936  0.00  0.00    +0.000 A 
ATOM      9  C   UNL     1       2.245   5.869  20.315  0.00  0.00    +0.000 A 
ATOM     10  C   UNL     1       2.071   4.788  21.206  0.00  0.00    +0.000 A 
ENDBRANCH   1   8
BRANCH   1  11
ATOM     11  C   UNL     1       3.740   6.060  17.166  0.00  0.00    +0.000 C 
BRANCH  11  12
ATOM     12  C   UNL     1       5.119   6.244  17.799  0.00  0.00    +0.000 A 
ATOM     13  C   UNL     1       6.087   7.080  17.233  0.00  0.00    +0.000 A 
ATOM     14  C   UNL     1       7.406   7.054  17.702  0.00  0.00    +0.000 A 
ATOM     15  C   UNL     1       7.763   6.199  18.744  0.00  0.00    +0.000 A 
ATOM     16  C   UNL     1       6.792   5.414  19.358  0.00  0.00    +0.000 A 
ATOM     17  C   UNL     1       5.475   5.463  18.909  0.00  0.00    +0.000 A 
ENDBRANCH  11  12
ENDBRANCH   1  11
BRANCH   2  18
ATOM     18  O   UNL     1       1.855   8.769  18.911  0.00  0.00    +0.000 OA
BRANCH  18  19
ATOM     19  C   UNL     1       1.242  10.104  18.602  0.00  0.00    +0.000 C 
ATOM     20  C   UNL     1      -0.283   9.992  18.313  0.00  0.00    +0.000 C 
ATOM     21  N   UNL     1      -1.095  11.070  18.946  0.00  0.00    +0.000 NA
ATOM     22  C   UNL     1      -0.847  11.113  20.412  0.00  0.00    +0.000 C 
ATOM     23  C   UNL     1       0.630  11.388  20.759  0.00  0.00    +0.000 C 
ATOM     24  C   UNL     1       1.445  11.420  19.461  0.00  0.00    +0.000 C 
ATOM     25  C   UNL     1       0.793  12.650  18.708  0.00  0.00    +0.000 C 
ATOM     26  C   UNL     1      -0.684  12.363  18.376  0.00  0.00    +0.000 C 
ENDBRANCH  18  19
ENDBRANCH   2  18
TORSDOF 5
ENDMDL
MODEL 4
REMARK VINA RESULT:      -7.9      0.948      1.645
REMARK  Name = 
REMARK  6 active torsions:
REMARK  status: ('A' for Active; 'I' for Inactive)
REMARK    1  A    between atoms: C_1  and  C_2
REMARK    2  A    between atoms: C_5  and  N_6
REMARK    3  A    between atoms: N_6  and  C_7
REMARK    4  A    between atoms: C_7  and  C_8
REMARK    5  A    between atoms: C_14  and  O_16
REMARK    6  A    between atoms: O_16  and  C_17
REMARK                            x       y       z     vdW  Elec       q    Type
REMARK                         _______ _______ _______ _____ _____    ______ ____
ROOT
ATOM      1  N   UNL     1       5.460   4.993  17.010  0.00  0.00    +0.000 N 
ATOM      2  C   UNL     1       5.077   3.751  17.570  0.00  0.00    +0.000 C 
ATOM      3  O   UNL     1       4.626   2.871  16.827  0.00  0.00    +0.000 OA
ENDROOT
BRANCH   1   8
ATOM      4  C   UNL     1       8.945   9.376  18.393  0.00  0.00    +0.000 C 
ATOM      5  C   UNL     1       7.983   8.245  18.142  0.00  0.00    +0.000 A 
ATOM      6  C   UNL     1       8.236   6.950  18.601  0.00  0.00    +0.000 A 
ATOM      7  C   UNL     1       7.335   5.902  18.315  0.00  0.00    +0.000 A 
ATOM      8  C   UNL     1       6.133   6.115  17.604  0.00  0.00    +0.000 A 
ATOM      9  C   UNL     1       5.898   7.411  17.138  0.00  0.00    +0.000 A 
ATOM     10  C   UNL     1       6.812   8.456  17.397  0.00  0.00    +0.000 A 
ENDBRANCH   1   8
BRANCH   1  11
ATOM     11  C   UNL     1       4.917   5.286  15.654  0.00  0.00    +0.000 C 
BRANCH  11  12
ATOM     12  C   UNL     1       5.842   4.766  14.555  0.00  0.00    +0.000 A 
ATOM     13  C   UNL     1       7.113   5.309  14.340  0.00  0.00    +0.000 A 
ATOM     14  C   UNL     1       7.841   4.972  13.192  0.00  0.00    +0.000 A 
ATOM     15  C   UNL     1       7.307   4.084  12.258  0.00  0.00    +0.000 A 
ATOM     16  C   UNL     1       6.074   3.487  12.499  0.00  0.00    +0.000 A 
ATOM     17  C   UNL     1       5.364   3.802  13.655  0.00  0.00    +0.000 A 
ENDBRANCH  11  12
ENDBRANCH   1  11
BRANCH   2  18
ATOM     18  O   UNL     1       5.160   3.511  18.930  0.00  0.00    +0.000 OA
BRANCH  18  19
ATOM     19  C   UNL     1       3.948   3.642  19.805  0.00  0.00    +0.000 C 
ATOM     20  C   UNL     1       3.016   4.798  19.341  0.00  0.00    +0.000 C 
ATOM     21  N   UNL     1       1.566   4.452  19.375  0.00  0.00    +0.000 NA
ATOM     22  C   UNL     1       1.308   3.225  18.575  0.00  0.00    +0.000 C 
ATOM     23  C   UNL     1       2.084   1.999  19.096  0.00  0.00    +0.000 C 
ATOM     24  C   UNL     1       3.004   2.446  20.239  0.00  0.00    +0.000 C 
ATOM     25  C   UNL     1       1.955   2.958  21.308  0.00  0.00    +0.000 C 
ATOM     26  C   UNL     1       1.182   4.178  20.769  0.00  0.00    +0.000 C 
ENDBRANCH  18  19
ENDBRANCH   2  18
TORSDOF 5
ENDMDL
MODEL 5
REMARK VINA RESULT:      -7.6      4.025      6.582
REMARK  Name = 
REMARK  6 active torsions:
REMARK  status: ('A' for Active; 'I' for Inactive)
REMARK    1  A    between atoms: C_1  and  C_2
REMARK    2  A    between atoms: C_5  and  N_6
REMARK    3  A    between atoms: N_6  and  C_7
REMARK    4  A    between atoms: C_7  and  C_8
REMARK    5  A    between atoms: C_14  and  O_16
REMARK    6  A    between atoms: O_16  and  C_17
REMARK                            x       y       z     vdW  Elec       q    Type
REMARK                         _______ _______ _______ _____ _____    ______ ____
ROOT
ATOM      1  N   UNL     1       2.726   6.347  18.197  0.00  0.00    +0.000 N 
ATOM      2  C   UNL     1       2.736   7.760  18.168  0.00  0.00    +0.000 C 
ATOM      3  O   UNL     1       3.194   8.337  17.174  0.00  0.00    +0.000 OA
ENDROOT
BRANCH   1   8
ATOM      4  C   UNL     1       1.492   2.115  21.918  0.00  0.00    +0.000 C 
ATOM      5  C   UNL     1       1.695   3.251  20.950  0.00  0.00    +0.000 A 
ATOM      6  C   UNL     1       1.449   3.103  19.583  0.00  0.00    +0.000 A 
ATOM      7  C   UNL     1       1.688   4.174  18.694  0.00  0.00    +0.000 A 
ATOM      8  C   UNL     1       2.136   5.438  19.141  0.00  0.00    +0.000 A 
ATOM      9  C   UNL     1       2.392   5.568  20.508  0.00  0.00    +0.000 A 
ATOM     10  C   UNL     1       2.182   4.490  21.396  0.00  0.00    +0.000 A 
ENDBRANCH   1   8
BRANCH   1  11
ATOM     11  C   UNL     1       3.627   5.672  17.220  0.00  0.00    +0.000 C 
BRANCH  11  12
ATOM     12  C   UNL     1       5.088   5.749  17.661  0.00  0.00    +0.000 A 
ATOM     13  C   UNL     1       5.529   5.183  18.862  0.00  0.00    +0.000 A 
ATOM     14  C   UNL     1       6.813   5.464  19.346  0.00  0.00    +0.000 A 
ATOM     15  C   UNL     1       7.665   6.303  18.629  0.00  0.00    +0.000 A 
ATOM     16  C   UNL     1       7.260   6.814  17.400  0.00  0.00    +0.000 A 
ATOM     17  C   UNL     1       5.993   6.511  16.907  0.00  0.00    +0.000 A 
ENDBRANCH  11  12
ENDBRANCH   1  11
BRANCH   2  18
ATOM     18  O   UNL     1       2.283   8.513  19.236  0.00  0.00    +0.000 OA
BRANCH  18  19
ATOM     19  C   UNL     1       0.982   9.256  19.151  0.00  0.00    +0.000 C 
ATOM     20  C   UNL     1       0.367   9.516  20.557  0.00  0.00    +0.000 C 
ATOM     21  N   UNL     1      -0.199  10.886  20.722  0.00  0.00    +0.000 NA
ATOM     22  C   UNL     1       0.830  11.912  20.409  0.00  0.00    +0.000 C 
ATOM     23  C   UNL     1       1.359  11.806  18.965  0.00  0.00    +0.000 C 
ATOM     24  C   UNL     1       0.739  10.571  18.301  0.00  0.00    +0.000 C 
ATOM     25  C   UNL     1      -0.800  10.939  18.322  0.00  0.00    +0.000 C 
ATOM     26  C   UNL     1      -1.312  11.051  19.772  0.00  0.00    +0.000 C 
ENDBRANCH  18  19
ENDBRANCH   2  18
TORSDOF 5
ENDMDL
MODEL 6
REMARK VINA RESULT:      -7.4      3.839      6.399
REMARK  Name = 
REMARK  6 active torsions:
REMARK  status: ('A' for Active; 'I' for Inactive)
REMARK    1  A    between atoms: C_1  and  C_2
REMARK    2  A    between atoms: C_5  and  N_6
REMARK    3  A    between atoms: N_6  and  C_7
REMARK    4  A    between atoms: C_7  and  C_8
REMARK    5  A    between atoms: C_14  and  O_16
REMARK    6  A    between atoms: O_16  and  C_17
REMARK                            x       y       z     vdW  Elec       q    Type
REMARK                         _______ _______ _______ _____ _____    ______ ____
ROOT
ATOM      1  N   UNL     1       3.167   6.216  18.107  0.00  0.00    +0.000 N 
ATOM      2  C   UNL     1       2.786   7.573  18.216  0.00  0.00    +0.000 C 
ATOM      3  O   UNL     1       2.996   8.334  17.264  0.00  0.00    +0.000 OA
ENDROOT
BRANCH   1   8
ATOM      4  C   UNL     1       1.069   2.361  21.851  0.00  0.00    +0.000 C 
ATOM      5  C   UNL     1       1.723   3.307  20.878  0.00  0.00    +0.000 A 
ATOM      6  C   UNL     1       2.500   4.384  21.312  0.00  0.00    +0.000 A 
ATOM      7  C   UNL     1       3.068   5.277  20.378  0.00  0.00    +0.000 A 
ATOM      8  C   UNL     1       2.918   5.104  18.983  0.00  0.00    +0.000 A 
ATOM      9  C   UNL     1       2.127   4.032  18.563  0.00  0.00    +0.000 A 
ATOM     10  C   UNL     1       1.534   3.153  19.496  0.00  0.00    +0.000 A 
ENDBRANCH   1   8
BRANCH   1  11
ATOM     11  C   UNL     1       4.149   5.903  17.031  0.00  0.00    +0.000 C 
BRANCH  11  12
ATOM     12  C   UNL     1       5.587   6.102  17.509  0.00  0.00    +0.000 A 
ATOM     13  C   UNL     1       6.146   5.313  18.520  0.00  0.00    +0.000 A 
ATOM     14  C   UNL     1       7.375   5.663  19.091  0.00  0.00    +0.000 A 
ATOM     15  C   UNL     1       8.057   6.796  18.651  0.00  0.00    +0.000 A 
ATOM     16  C   UNL     1       7.542   7.547  17.599  0.00  0.00    +0.000 A 
ATOM     17  C   UNL     1       6.333   7.182  17.013  0.00  0.00    +0.000 A 
ENDBRANCH  11  12
ENDBRANCH   1  11
BRANCH   2  18
ATOM     18  O   UNL     1       2.218   8.078  19.372  0.00  0.00    +0.000 OA
BRANCH  18  19
ATOM     19  C   UNL     1       0.982   8.928  19.310  0.00  0.00    +0.000 C 
ATOM     20  C   UNL     1       0.565   9.453  20.713  0.00  0.00    +0.000 C 
ATOM     21  N   UNL     1       0.138  10.881  20.719  0.00  0.00    +0.000 NA
ATOM     22  C   UNL     1       1.203  11.742  20.139  0.00  0.00    +0.000 C 
ATOM     23  C   UNL     1       1.543  11.371  18.682  0.00  0.00    +0.000 C 
ATOM     24  C   UNL     1       0.747  10.120  18.292  0.00  0.00    +0.000 C 
ATOM     25  C   UNL     1      -0.743  10.639  18.420  0.00  0.00    +0.000 C 
ATOM     26  C   UNL     1      -1.064  11.015  19.879  0.00  0.00    +0.000 C 
ENDBRANCH  18  19
ENDBRANCH   2  18
TORSDOF 5
ENDMDL
MODEL 7
REMARK VINA RESULT:      -7.4      4.154      6.262
REMARK  Name = 
REMARK  6 active torsions:
REMARK  status: ('A' for Active; 'I' for Inactive)
REMARK    1  A    between atoms: C_1  and  C_2
REMARK    2  A    between atoms: C_5  and  N_6
REMARK    3  A    between atoms: N_6  and  C_7
REMARK    4  A    between atoms: C_7  and  C_8
REMARK    5  A    between atoms: C_14  and  O_16
REMARK    6  A    between atoms: O_16  and  C_17
REMARK                            x       y       z     vdW  Elec       q    Type
REMARK                         _______ _______ _______ _____ _____    ______ ____
ROOT
ATOM      1  N   UNL     1       3.025   6.797  18.174  0.00  0.00    +0.000 N 
ATOM      2  C   UNL     1       2.592   7.997  17.565  0.00  0.00    +0.000 C 
ATOM      3  O   UNL     1       3.341   8.569  16.765  0.00  0.00    +0.000 OA
ENDROOT
BRANCH   1   8
ATOM      4  C   UNL     1       1.277   2.407  21.482  0.00  0.00    +0.000 C 
ATOM      5  C   UNL     1       1.618   3.592  20.619  0.00  0.00    +0.000 A 
ATOM      6  C   UNL     1       1.438   3.568  19.233  0.00  0.00    +0.000 A 
ATOM      7  C   UNL     1       1.804   4.680  18.445  0.00  0.00    +0.000 A 
ATOM      8  C   UNL     1       2.318   5.868  19.013  0.00  0.00    +0.000 A 
ATOM      9  C   UNL     1       2.507   5.875  20.397  0.00  0.00    +0.000 A 
ATOM     10  C   UNL     1       2.169   4.753  21.185  0.00  0.00    +0.000 A 
ENDBRANCH   1   8
BRANCH   1  11
ATOM     11  C   UNL     1       4.492   6.536  18.120  0.00  0.00    +0.000 C 
BRANCH  11  12
ATOM     12  C   UNL     1       4.851   5.594  16.971  0.00  0.00    +0.000 A 
ATOM     13  C   UNL     1       4.955   4.211  17.154  0.00  0.00    +0.000 A 
ATOM     14  C   UNL     1       5.504   3.405  16.148  0.00  0.00    +0.000 A 
ATOM     15  C   UNL     1       5.942   3.974  14.953  0.00  0.00    +0.000 A 
ATOM     16  C   UNL     1       5.778   5.338  14.737  0.00  0.00    +0.000 A 
ATOM     17  C   UNL     1       5.206   6.134  15.726  0.00  0.00    +0.000 A 
ENDBRANCH  11  12
ENDBRANCH   1  11
BRANCH   2  18
ATOM     18  O   UNL     1       1.368   8.565  17.868  0.00  0.00    +0.000 OA
BRANCH  18  19
ATOM     19  C   UNL     1       1.241   9.560  18.985  0.00  0.00    +0.000 C 
ATOM     20  C   UNL     1       1.678  10.987  18.546  0.00  0.00    +0.000 C 
ATOM     21  N   UNL     1       0.778  12.069  19.040  0.00  0.00    +0.000 NA
ATOM     22  C   UNL     1      -0.625  11.806  18.624  0.00  0.00    +0.000 C 
ATOM     23  C   UNL     1      -1.169  10.472  19.173  0.00  0.00    +0.000 C 
ATOM     24  C   UNL     1      -0.038   9.740  19.904  0.00  0.00    +0.000 C 
ATOM     25  C   UNL     1       0.290  10.752  21.076  0.00  0.00    +0.000 C 
ATOM     26  C   UNL     1       0.824  12.083  20.511  0.00  0.00    +0.000 C 
ENDBRANCH  18  19
ENDBRANCH   2  18
TORSDOF 5
ENDMDL
MODEL 8
REMARK VINA RESULT:      -7.4      4.279      6.471
REMARK  Name = 
REMARK  6 active torsions:
REMARK  status: ('A' for Active; 'I' for Inactive)
REMARK    1  A    between atoms: C_1  and  C_2
REMARK    2  A    between atoms: C_5  and  N_6
REMARK    3  A    between atoms: N_6  and  C_7
REMARK    4  A    between atoms: C_7  and  C_8
REMARK    5  A    between atoms: C_14  and  O_16
REMARK    6  A    between atoms: O_16  and  C_17
REMARK                            x       y       z     vdW  Elec       q    Type
REMARK                         _______ _______ _______ _____ _____    ______ ____
ROOT
ATOM      1  N   UNL     1       2.906   7.121  17.814  0.00  0.00    +0.000 N 
ATOM      2  C   UNL     1       2.417   8.404  18.153  0.00  0.00    +0.000 C 
ATOM      3  O   UNL     1       2.557   9.332  17.349  0.00  0.00    +0.000 OA
ENDROOT
BRANCH   1   8
ATOM      4  C   UNL     1       1.249   2.594  20.981  0.00  0.00    +0.000 C 
ATOM      5  C   UNL     1       1.787   3.716  20.134  0.00  0.00    +0.000 A 
ATOM      6  C   UNL     1       2.632   4.696  20.662  0.00  0.00    +0.000 A 
ATOM      7  C   UNL     1       3.087   5.759  19.853  0.00  0.00    +0.000 A 
ATOM      8  C   UNL     1       2.755   5.858  18.483  0.00  0.00    +0.000 A 
ATOM      9  C   UNL     1       1.898   4.881  17.970  0.00  0.00    +0.000 A 
ATOM     10  C   UNL     1       1.417   3.832  18.784  0.00  0.00    +0.000 A 
ENDBRANCH   1   8
BRANCH   1  11
ATOM     11  C   UNL     1       3.901   7.080  16.705  0.00  0.00    +0.000 C 
BRANCH  11  12
ATOM     12  C   UNL     1       5.087   6.179  17.049  0.00  0.00    +0.000 A 
ATOM     13  C   UNL     1       6.111   6.600  17.903  0.00  0.00    +0.000 A 
ATOM     14  C   UNL     1       7.288   5.849  18.019  0.00  0.00    +0.000 A 
ATOM     15  C   UNL     1       7.443   4.671  17.289  0.00  0.00    +0.000 A 
ATOM     16  C   UNL     1       6.402   4.210  16.491  0.00  0.00    +0.000 A 
ATOM     17  C   UNL     1       5.221   4.943  16.399  0.00  0.00    +0.000 A 
ENDBRANCH  11  12
ENDBRANCH   1  11
BRANCH   2  18
ATOM     18  O   UNL     1       1.819   8.654  19.376  0.00  0.00    +0.000 OA
BRANCH  18  19
ATOM     19  C   UNL     1       0.634   9.568  19.476  0.00  0.00    +0.000 C 
ATOM     20  C   UNL     1       0.252   9.867  20.954  0.00  0.00    +0.000 C 
ATOM     21  N   UNL     1      -0.093  11.294  21.210  0.00  0.00    +0.000 NA
ATOM     22  C   UNL     1       1.017  12.182  20.773  0.00  0.00    +0.000 C 
ATOM     23  C   UNL     1       1.332  12.049  19.270  0.00  0.00    +0.000 C 
ATOM     24  C   UNL     1       0.465  10.929  18.681  0.00  0.00    +0.000 C 
ATOM     25  C   UNL     1      -0.993  11.501  18.914  0.00  0.00    +0.000 C 
ATOM     26  C   UNL     1      -1.288  11.637  20.421  0.00  0.00    +0.000 C 
ENDBRANCH  18  19
ENDBRANCH   2  18
TORSDOF 5
ENDMDL
MODEL 9
REMARK VINA RESULT:      -7.3      1.188      1.952
REMARK  Name = 
REMARK  6 active torsions:
REMARK  status: ('A' for Active; 'I' for Inactive)
REMARK    1  A    between atoms: C_1  and  C_2
REMARK    2  A    between atoms: C_5  and  N_6
REMARK    3  A    between atoms: N_6  and  C_7
REMARK    4  A    between atoms: C_7  and  C_8
REMARK    5  A    between atoms: C_14  and  O_16
REMARK    6  A    between atoms: O_16  and  C_17
REMARK                            x       y       z     vdW  Elec       q    Type
REMARK                         _______ _______ _______ _____ _____    ______ ____
ROOT
ATOM      1  N   UNL     1       5.206   4.735  16.795  0.00  0.00    +0.000 N 
ATOM      2  C   UNL     1       4.711   3.504  17.282  0.00  0.00    +0.000 C 
ATOM      3  O   UNL     1       4.253   2.680  16.481  0.00  0.00    +0.000 OA
ENDROOT
BRANCH   1   8
ATOM      4  C   UNL     1       8.829   8.880  18.516  0.00  0.00    +0.000 C 
ATOM      5  C   UNL     1       7.829   7.807  18.176  0.00  0.00    +0.000 A 
ATOM      6  C   UNL     1       8.022   6.477  18.558  0.00  0.00    +0.000 A 
ATOM      7  C   UNL     1       7.086   5.485  18.190  0.00  0.00    +0.000 A 
ATOM      8  C   UNL     1       5.909   5.791  17.470  0.00  0.00    +0.000 A 
ATOM      9  C   UNL     1       5.736   7.122  17.082  0.00  0.00    +0.000 A 
ATOM     10  C   UNL     1       6.684   8.111  17.423  0.00  0.00    +0.000 A 
ENDBRANCH   1   8
BRANCH   1  11
ATOM     11  C   UNL     1       4.770   5.110  15.420  0.00  0.00    +0.000 C 
BRANCH  11  12
ATOM     12  C   UNL     1       5.770   4.636  14.366  0.00  0.00    +0.000 A 
ATOM     13  C   UNL     1       7.045   5.200  14.251  0.00  0.00    +0.000 A 
ATOM     14  C   UNL     1       7.849   4.909  13.142  0.00  0.00    +0.000 A 
ATOM     15  C   UNL     1       7.387   4.047  12.147  0.00  0.00    +0.000 A 
ATOM     16  C   UNL     1       6.149   3.430  12.288  0.00  0.00    +0.000 A 
ATOM     17  C   UNL     1       5.363   3.698  13.406  0.00  0.00    +0.000 A 
ENDBRANCH  11  12
ENDBRANCH   1  11
BRANCH   2  18
ATOM     18  O   UNL     1       4.692   3.212  18.635  0.00  0.00    +0.000 OA
BRANCH  18  19
ATOM     19  C   UNL     1       3.406   2.862  19.324  0.00  0.00    +0.000 C 
ATOM     20  C   UNL     1       3.558   2.858  20.873  0.00  0.00    +0.000 C 
ATOM     21  N   UNL     1       2.416   3.494  21.590  0.00  0.00    +0.000 NA
ATOM     22  C   UNL     1       2.199   4.879  21.094  0.00  0.00    +0.000 C 
ATOM     23  C   UNL     1       1.879   4.930  19.588  0.00  0.00    +0.000 C 
ATOM     24  C   UNL     1       1.997   3.515  19.009  0.00  0.00    +0.000 C 
ATOM     25  C   UNL     1       0.867   2.749  19.811  0.00  0.00    +0.000 C 
ATOM     26  C   UNL     1       1.197   2.715  21.316  0.00  0.00    +0.000 C 
ENDBRANCH  18  19
ENDBRANCH   2  18
TORSDOF 5
ENDMDL
