MODEL 1
REMARK VINA RESULT:      -8.7      0.000      0.000
REMARK  Name = 
REMARK  9 active torsions:
REMARK  status: ('A' for Active; 'I' for Inactive)
REMARK    1  A    between atoms: C_2  and  C_3
REMARK    2  A    between atoms: C_3  and  C_4
REMARK    3  A    between atoms: C_4  and  C_5
REMARK    4  A    between atoms: C_8  and  S_9
REMARK    5  A    between atoms: S_9  and  C_10
REMARK    6  A    between atoms: C_13  and  N_14
REMARK    7  A    between atoms: N_24  and  O_25
REMARK    8  A    between atoms: O_25  and  C_26
REMARK    9  A    between atoms: C_26  and  C_27
REMARK                            x       y       z     vdW  Elec       q    Type
REMARK                         _______ _______ _______ _____ _____    ______ ____
ROOT
ATOM      1  C   UNL     1       3.079   6.867  18.218  0.00  0.00    +0.000 A 
ATOM      2  C   UNL     1       2.887   8.108  17.602  0.00  0.00    +0.000 A 
ATOM      3  C   UNL     1       2.175   9.122  18.251  0.00  0.00    +0.000 A 
ATOM      4  C   UNL     1       1.614   8.910  19.511  0.00  0.00    +0.000 A 
ATOM      5  C   UNL     1       1.798   7.670  20.132  0.00  0.00    +0.000 A 
ATOM      6  C   UNL     1       2.525   6.658  19.488  0.00  0.00    +0.000 A 
ENDROOT
BRANCH   1   7
ATOM      7  C   UNL     1       3.814   5.749  17.513  0.00  0.00    +0.000 C 
BRANCH   7   8
ATOM      8  C   UNL     1       5.333   5.766  17.709  0.00  0.00    +0.000 C 
BRANCH   8  10
ATOM      9  O   UNL     1       6.484   5.296  19.779  0.00  0.00    +0.000 OA
ATOM     10  C   UNL     1       5.733   4.902  18.893  0.00  0.00    +0.000 C 
ATOM     11  N   UNL     1       5.157   3.656  18.853  0.00  0.00    +0.000 N 
ATOM     12  H   UNL     1       4.552   3.327  18.112  0.00  0.00    +0.000 HD
BRANCH  11  13
ATOM     13  O   UNL     1       5.490   2.782  19.917  0.00  0.00    +0.000 OA
BRANCH  13  14
ATOM     14  C   UNL     1       4.486   1.775  20.067  0.00  0.00    +0.000 C 
BRANCH  14  15
ATOM     15  C   UNL     1       3.103   2.373  19.983  0.00  0.00    +0.000 A 
ATOM     16  C   UNL     1       2.533   3.051  21.071  0.00  0.00    +0.000 A 
ATOM     17  C   UNL     1       1.247   3.588  20.982  0.00  0.00    +0.000 A 
ATOM     18  C   UNL     1       0.523   3.473  19.797  0.00  0.00    +0.000 A 
ATOM     19  C   UNL     1       1.090   2.836  18.696  0.00  0.00    +0.000 A 
ATOM     20  C   UNL     1       2.375   2.296  18.785  0.00  0.00    +0.000 A 
ENDBRANCH  14  15
ENDBRANCH  13  14
ENDBRANCH  11  13
ENDBRANCH   8  10
ENDBRANCH   7   8
ENDBRANCH   1   7
BRANCH   4  21
ATOM     21  S   UNL     1       0.762  10.243  20.338  0.00  0.00    +0.000 S 
BRANCH  21  22
ATOM     22  C   UNL     1      -0.610  10.532  19.265  0.00  0.00    +0.000 A 
ATOM     23  C   UNL     1      -0.757   9.859  18.033  0.00  0.00    +0.000 A 
ATOM     24  C   UNL     1      -1.866  10.050  17.173  0.00  0.00    +0.000 A 
ATOM     25  C   UNL     1      -2.926  10.924  17.494  0.00  0.00    +0.000 A 
ATOM     26  C   UNL     1      -2.838  11.597  18.728  0.00  0.00    +0.000 A 
ATOM     27  N   UNL     1      -3.661  12.466  19.333  0.00  0.00    +0.000 NA
ATOM     28  O   UNL     1      -3.079  12.791  20.537  0.00  0.00    +0.000 OA
ATOM     29  N   UNL     1      -1.877  12.140  20.716  0.00  0.00    +0.000 NA
ATOM     30  C   UNL     1      -1.681  11.397  19.614  0.00  0.00    +0.000 A 
BRANCH  25  31
ATOM     31  N   UNL     1      -4.051  11.111  16.598  0.00  0.00    +0.000 N 
ATOM     32  O   UNL     1      -5.178  11.130  17.117  0.00  0.00    +0.000 OA
ATOM     33  O   UNL     1      -3.843  11.240  15.387  0.00  0.00    +0.000 OA
ENDBRANCH  25  31
ENDBRANCH  21  22
ENDBRANCH   4  21
TORSDOF 9
ENDMDL
MODEL 2
REMARK VINA RESULT:      -8.6      0.266      1.046
REMARK  Name = 
REMARK  9 active torsions:
REMARK  status: ('A' for Active; 'I' for Inactive)
REMARK    1  A    between atoms: C_2  and  C_3
REMARK    2  A    between atoms: C_3  and  C_4
REMARK    3  A    between atoms: C_4  and  C_5
REMARK    4  A    between atoms: C_8  and  S_9
REMARK    5  A    between atoms: S_9  and  C_10
REMARK    6  A    between atoms: C_13  and  N_14
REMARK    7  A    between atoms: N_24  and  O_25
REMARK    8  A    between atoms: O_25  and  C_26
REMARK    9  A    between atoms: C_26  and  C_27
REMARK                            x       y       z     vdW  Elec       q    Type
REMARK                         _______ _______ _______ _____ _____    ______ ____
ROOT
ATOM      1  C   UNL     1       3.163   6.815  18.130  0.00  0.00    +0.000 A 
ATOM      2  C   UNL     1       2.939   8.072  17.558  0.00  0.00    +0.000 A 
ATOM      3  C   UNL     1       2.193   9.040  18.239  0.00  0.00    +0.000 A 
ATOM      4  C   UNL     1       1.629   8.764  19.485  0.00  0.00    +0.000 A 
ATOM      5  C   UNL     1       1.845   7.509  20.061  0.00  0.00    +0.000 A 
ATOM      6  C   UNL     1       2.606   6.543  19.387  0.00  0.00    +0.000 A 
ENDROOT
BRANCH   1   7
ATOM      7  C   UNL     1       3.937   5.747  17.390  0.00  0.00    +0.000 C 
BRANCH   7   8
ATOM      8  C   UNL     1       5.457   5.845  17.542  0.00  0.00    +0.000 C 
BRANCH   8  10
ATOM      9  O   UNL     1       7.085   4.894  19.052  0.00  0.00    +0.000 OA
ATOM     10  C   UNL     1       5.964   4.833  18.556  0.00  0.00    +0.000 C 
ATOM     11  N   UNL     1       5.031   3.869  18.848  0.00  0.00    +0.000 N 
ATOM     12  H   UNL     1       4.114   3.810  18.426  0.00  0.00    +0.000 HD
BRANCH  11  13
ATOM     13  O   UNL     1       5.431   2.878  19.779  0.00  0.00    +0.000 OA
BRANCH  13  14
ATOM     14  C   UNL     1       4.465   1.826  19.831  0.00  0.00    +0.000 C 
BRANCH  14  15
ATOM     15  C   UNL     1       3.062   2.380  19.865  0.00  0.00    +0.000 A 
ATOM     16  C   UNL     1       2.201   2.257  18.764  0.00  0.00    +0.000 A 
ATOM     17  C   UNL     1       0.910   2.787  18.807  0.00  0.00    +0.000 A 
ATOM     18  C   UNL     1       0.455   3.428  19.958  0.00  0.00    +0.000 A 
ATOM     19  C   UNL     1       1.286   3.526  21.072  0.00  0.00    +0.000 A 
ATOM     20  C   UNL     1       2.578   2.998  21.030  0.00  0.00    +0.000 A 
ENDBRANCH  14  15
ENDBRANCH  13  14
ENDBRANCH  11  13
ENDBRANCH   8  10
ENDBRANCH   7   8
ENDBRANCH   1   7
BRANCH   4  21
ATOM     21  S   UNL     1       0.731  10.040  20.353  0.00  0.00    +0.000 S 
BRANCH  21  22
ATOM     22  C   UNL     1      -0.578  10.410  19.227  0.00  0.00    +0.000 A 
ATOM     23  C   UNL     1      -0.700   9.764  17.978  0.00  0.00    +0.000 A 
ATOM     24  C   UNL     1      -1.759  10.019  17.073  0.00  0.00    +0.000 A 
ATOM     25  C   UNL     1      -2.792  10.936  17.363  0.00  0.00    +0.000 A 
ATOM     26  C   UNL     1      -2.728  11.586  18.611  0.00  0.00    +0.000 A 
ATOM     27  N   UNL     1      -3.537  12.482  19.194  0.00  0.00    +0.000 NA
ATOM     28  O   UNL     1      -2.994  12.761  20.428  0.00  0.00    +0.000 OA
ATOM     29  N   UNL     1      -1.833  12.052  20.648  0.00  0.00    +0.000 NA
ATOM     30  C   UNL     1      -1.622  11.318  19.544  0.00  0.00    +0.000 A 
BRANCH  25  31
ATOM     31  N   UNL     1      -3.866  11.189  16.422  0.00  0.00    +0.000 N 
ATOM     32  O   UNL     1      -3.543  11.330  15.233  0.00  0.00    +0.000 OA
ATOM     33  O   UNL     1      -5.028  11.251  16.836  0.00  0.00    +0.000 OA
ENDBRANCH  25  31
ENDBRANCH  21  22
ENDBRANCH   4  21
TORSDOF 9
ENDMDL
MODEL 3
REMARK VINA RESULT:      -8.5      2.878      9.527
REMARK  Name = 
REMARK  9 active torsions:
REMARK  status: ('A' for Active; 'I' for Inactive)
REMARK    1  A    between atoms: C_2  and  C_3
REMARK    2  A    between atoms: C_3  and  C_4
REMARK    3  A    between atoms: C_4  and  C_5
REMARK    4  A    between atoms: C_8  and  S_9
REMARK    5  A    between atoms: S_9  and  C_10
REMARK    6  A    between atoms: C_13  and  N_14
REMARK    7  A    between atoms: N_24  and  O_25
REMARK    8  A    between atoms: O_25  and  C_26
REMARK    9  A    between atoms: C_26  and  C_27
REMARK                            x       y       z     vdW  Elec       q    Type
REMARK                         _______ _______ _______ _____ _____    ______ ____
ROOT
ATOM      1  C   UNL     1       1.594   7.700  20.252  0.00  0.00    +0.000 A 
ATOM      2  C   UNL     1       2.496   7.492  19.202  0.00  0.00    +0.000 A 
ATOM      3  C   UNL     1       3.064   6.231  18.992  0.00  0.00    +0.000 A 
ATOM      4  C   UNL     1       2.770   5.162  19.841  0.00  0.00    +0.000 A 
ATOM      5  C   UNL     1       1.873   5.364  20.894  0.00  0.00    +0.000 A 
ATOM      6  C   UNL     1       1.291   6.624  21.096  0.00  0.00    +0.000 A 
ENDROOT
BRANCH   1   7
ATOM      7  C   UNL     1       1.001   9.066  20.513  0.00  0.00    +0.000 C 
BRANCH   7   8
ATOM      8  C   UNL     1       0.896   9.439  21.995  0.00  0.00    +0.000 C 
BRANCH   8  10
ATOM      9  O   UNL     1      -0.559  10.852  23.306  0.00  0.00    +0.000 OA
ATOM     10  C   UNL     1      -0.123  10.547  22.200  0.00  0.00    +0.000 C 
ATOM     11  N   UNL     1      -0.482  11.156  21.023  0.00  0.00    +0.000 N 
ATOM     12  H   UNL     1      -0.136  10.892  20.111  0.00  0.00    +0.000 HD
BRANCH  11  13
ATOM     13  O   UNL     1      -1.441  12.195  21.127  0.00  0.00    +0.000 OA
BRANCH  13  14
ATOM     14  C   UNL     1      -1.671  12.790  19.848  0.00  0.00    +0.000 C 
BRANCH  14  15
ATOM     15  C   UNL     1      -2.175  11.767  18.859  0.00  0.00    +0.000 A 
ATOM     16  C   UNL     1      -1.300  10.879  18.216  0.00  0.00    +0.000 A 
ATOM     17  C   UNL     1      -1.782   9.947  17.294  0.00  0.00    +0.000 A 
ATOM     18  C   UNL     1      -3.146   9.877  17.018  0.00  0.00    +0.000 A 
ATOM     19  C   UNL     1      -4.032  10.728  17.676  0.00  0.00    +0.000 A 
ATOM     20  C   UNL     1      -3.551  11.662  18.597  0.00  0.00    +0.000 A 
ENDBRANCH  14  15
ENDBRANCH  13  14
ENDBRANCH  11  13
ENDBRANCH   8  10
ENDBRANCH   7   8
ENDBRANCH   1   7
BRANCH   4  21
ATOM     21  S   UNL     1       3.465   3.552  19.510  0.00  0.00    +0.000 S 
BRANCH  21  22
ATOM     22  C   UNL     1       4.491   3.867  18.107  0.00  0.00    +0.000 A 
ATOM     23  C   UNL     1       4.022   3.718  16.785  0.00  0.00    +0.000 A 
ATOM     24  C   UNL     1       4.815   3.997  15.645  0.00  0.00    +0.000 A 
ATOM     25  C   UNL     1       6.141   4.466  15.747  0.00  0.00    +0.000 A 
ATOM     26  C   UNL     1       6.645   4.658  17.049  0.00  0.00    +0.000 A 
ATOM     27  N   UNL     1       7.831   5.097  17.492  0.00  0.00    +0.000 NA
ATOM     28  O   UNL     1       7.765   5.098  18.867  0.00  0.00    +0.000 OA
ATOM     29  N   UNL     1       6.540   4.657  19.320  0.00  0.00    +0.000 NA
ATOM     30  C   UNL     1       5.816   4.362  18.228  0.00  0.00    +0.000 A 
BRANCH  25  31
ATOM     31  N   UNL     1       6.941   4.742  14.569  0.00  0.00    +0.000 N 
ATOM     32  O   UNL     1       7.783   5.647  14.667  0.00  0.00    +0.000 OA
ATOM     33  O   UNL     1       6.752   4.080  13.544  0.00  0.00    +0.000 OA
ENDBRANCH  25  31
ENDBRANCH  21  22
ENDBRANCH   4  21
TORSDOF 9
ENDMDL
MODEL 4
REMARK VINA RESULT:      -8.4      1.057      1.195
REMARK  Name = 
REMARK  9 active torsions:
REMARK  status: ('A' for Active; 'I' for Inactive)
REMARK    1  A    between atoms: C_2  and  C_3
REMARK    2  A    between atoms: C_3  and  C_4
REMARK    3  A    between atoms: C_4  and  C_5
REMARK    4  A    between atoms: C_8  and  S_9
REMARK    5  A    between atoms: S_9  and  C_10
REMARK    6  A    between atoms: C_13  and  N_14
REMARK    7  A    between atoms: N_24  and  O_25
REMARK    8  A    between atoms: O_25  and  C_26
REMARK    9  A    between atoms: C_26  and  C_27
REMARK                            x       y       z     vdW  Elec       q    Type
REMARK                         _______ _______ _______ _____ _____    ______ ____
ROOT
ATOM      1  C   UNL     1       2.322   7.426  18.488  0.00  0.00    +0.000 A 
ATOM      2  C   UNL     1       2.210   8.561  17.677  0.00  0.00    +0.000 A 
ATOM      3  C   UNL     1       1.673   9.748  18.186  0.00  0.00    +0.000 A 
ATOM      4  C   UNL     1       1.208   9.819  19.500  0.00  0.00    +0.000 A 
ATOM      5  C   UNL     1       1.314   8.688  20.316  0.00  0.00    +0.000 A 
ATOM      6  C   UNL     1       1.866   7.502  19.812  0.00  0.00    +0.000 A 
ENDROOT
BRANCH   1   7
ATOM      7  C   UNL     1       2.866   6.126  17.942  0.00  0.00    +0.000 C 
BRANCH   7   8
ATOM      8  C   UNL     1       4.393   6.071  17.837  0.00  0.00    +0.000 C 
BRANCH   8  10
ATOM      9  O   UNL     1       5.229   3.947  17.049  0.00  0.00    +0.000 OA
ATOM     10  C   UNL     1       4.894   4.646  18.000  0.00  0.00    +0.000 C 
ATOM     11  N   UNL     1       4.931   4.249  19.314  0.00  0.00    +0.000 N 
ATOM     12  H   UNL     1       4.638   4.820  20.095  0.00  0.00    +0.000 HD
BRANCH  11  13
ATOM     13  O   UNL     1       5.376   2.925  19.551  0.00  0.00    +0.000 OA
BRANCH  13  14
ATOM     14  C   UNL     1       4.464   2.241  20.414  0.00  0.00    +0.000 C 
BRANCH  14  15
ATOM     15  C   UNL     1       3.036   2.605  20.090  0.00  0.00    +0.000 A 
ATOM     16  C   UNL     1       2.336   3.557  20.846  0.00  0.00    +0.000 A 
ATOM     17  C   UNL     1       1.010   3.874  20.541  0.00  0.00    +0.000 A 
ATOM     18  C   UNL     1       0.375   3.259  19.464  0.00  0.00    +0.000 A 
ATOM     19  C   UNL     1       1.069   2.339  18.681  0.00  0.00    +0.000 A 
ATOM     20  C   UNL     1       2.394   2.019  18.987  0.00  0.00    +0.000 A 
ENDBRANCH  14  15
ENDBRANCH  13  14
ENDBRANCH  11  13
ENDBRANCH   8  10
ENDBRANCH   7   8
ENDBRANCH   1   7
BRANCH   4  21
ATOM     21  S   UNL     1       0.583  11.365  20.136  0.00  0.00    +0.000 S 
BRANCH  21  22
ATOM     22  C   UNL     1      -1.050  11.413  19.466  0.00  0.00    +0.000 A 
ATOM     23  C   UNL     1      -1.442  10.598  18.383  0.00  0.00    +0.000 A 
ATOM     24  C   UNL     1      -2.754  10.595  17.850  0.00  0.00    +0.000 A 
ATOM     25  C   UNL     1      -3.783  11.403  18.378  0.00  0.00    +0.000 A 
ATOM     26  C   UNL     1      -3.447  12.214  19.480  0.00  0.00    +0.000 A 
ATOM     27  N   UNL     1      -4.172  13.069  20.215  0.00  0.00    +0.000 NA
ATOM     28  O   UNL     1      -3.331  13.575  21.179  0.00  0.00    +0.000 OA
ATOM     29  N   UNL     1      -2.059  13.055  21.072  0.00  0.00    +0.000 NA
ATOM     30  C   UNL     1      -2.080  12.214  20.025  0.00  0.00    +0.000 A 
BRANCH  25  31
ATOM     31  N   UNL     1      -5.120  11.390  17.817  0.00  0.00    +0.000 N 
ATOM     32  O   UNL     1      -5.950  10.655  18.373  0.00  0.00    +0.000 OA
ATOM     33  O   UNL     1      -5.368  12.095  16.834  0.00  0.00    +0.000 OA
ENDBRANCH  25  31
ENDBRANCH  21  22
ENDBRANCH   4  21
TORSDOF 9
ENDMDL
MODEL 5
REMARK VINA RESULT:      -8.4      1.741      3.581
REMARK  Name = 
REMARK  9 active torsions:
REMARK  status: ('A' for Active; 'I' for Inactive)
REMARK    1  A    between atoms: C_2  and  C_3
REMARK    2  A    between atoms: C_3  and  C_4
REMARK    3  A    between atoms: C_4  and  C_5
REMARK    4  A    between atoms: C_8  and  S_9
REMARK    5  A    between atoms: S_9  and  C_10
REMARK    6  A    between atoms: C_13  and  N_14
REMARK    7  A    between atoms: N_24  and  O_25
REMARK    8  A    between atoms: O_25  and  C_26
REMARK    9  A    between atoms: C_26  and  C_27
REMARK                            x       y       z     vdW  Elec       q    Type
REMARK                         _______ _______ _______ _____ _____    ______ ____
ROOT
ATOM      1  C   UNL     1       2.211   6.932  19.538  0.00  0.00    +0.000 A 
ATOM      2  C   UNL     1       2.473   7.553  18.311  0.00  0.00    +0.000 A 
ATOM      3  C   UNL     1       2.089   8.880  18.090  0.00  0.00    +0.000 A 
ATOM      4  C   UNL     1       1.410   9.603  19.071  0.00  0.00    +0.000 A 
ATOM      5  C   UNL     1       1.142   8.988  20.298  0.00  0.00    +0.000 A 
ATOM      6  C   UNL     1       1.539   7.663  20.528  0.00  0.00    +0.000 A 
ENDROOT
BRANCH   1   7
ATOM      7  C   UNL     1       2.587   5.488  19.779  0.00  0.00    +0.000 C 
BRANCH   7   8
ATOM      8  C   UNL     1       1.652   4.470  19.119  0.00  0.00    +0.000 C 
BRANCH   8  10
ATOM      9  O   UNL     1       1.887   2.678  17.518  0.00  0.00    +0.000 OA
ATOM     10  C   UNL     1       2.407   3.614  18.117  0.00  0.00    +0.000 C 
ATOM     11  N   UNL     1       3.713   4.011  17.965  0.00  0.00    +0.000 N 
ATOM     12  H   UNL     1       4.145   4.771  18.474  0.00  0.00    +0.000 HD
BRANCH  11  13
ATOM     13  O   UNL     1       4.492   3.254  17.055  0.00  0.00    +0.000 OA
BRANCH  13  14
ATOM     14  C   UNL     1       5.170   4.119  16.141  0.00  0.00    +0.000 C 
BRANCH  14  15
ATOM     15  C   UNL     1       6.057   5.094  16.876  0.00  0.00    +0.000 A 
ATOM     16  C   UNL     1       5.911   6.479  16.713  0.00  0.00    +0.000 A 
ATOM     17  C   UNL     1       6.748   7.368  17.391  0.00  0.00    +0.000 A 
ATOM     18  C   UNL     1       7.728   6.884  18.255  0.00  0.00    +0.000 A 
ATOM     19  C   UNL     1       7.861   5.511  18.455  0.00  0.00    +0.000 A 
ATOM     20  C   UNL     1       7.025   4.621  17.776  0.00  0.00    +0.000 A 
ENDBRANCH  14  15
ENDBRANCH  13  14
ENDBRANCH  11  13
ENDBRANCH   8  10
ENDBRANCH   7   8
ENDBRANCH   1   7
BRANCH   4  21
ATOM     21  S   UNL     1       0.986  11.312  18.779  0.00  0.00    +0.000 S 
BRANCH  21  22
ATOM     22  C   UNL     1      -0.762  11.230  18.546  0.00  0.00    +0.000 A 
ATOM     23  C   UNL     1      -1.362  10.292  17.678  0.00  0.00    +0.000 A 
ATOM     24  C   UNL     1      -2.763  10.186  17.500  0.00  0.00    +0.000 A 
ATOM     25  C   UNL     1      -3.674  11.007  18.197  0.00  0.00    +0.000 A 
ATOM     26  C   UNL     1      -3.124  11.940  19.098  0.00  0.00    +0.000 A 
ATOM     27  N   UNL     1      -3.694  12.839  19.912  0.00  0.00    +0.000 NA
ATOM     28  O   UNL     1      -2.671  13.474  20.579  0.00  0.00    +0.000 OA
ATOM     29  N   UNL     1      -1.436  12.993  20.199  0.00  0.00    +0.000 NA
ATOM     30  C   UNL     1      -1.667  12.047  19.273  0.00  0.00    +0.000 A 
BRANCH  25  31
ATOM     31  N   UNL     1      -5.106  10.887  17.999  0.00  0.00    +0.000 N 
ATOM     32  O   UNL     1      -5.686  10.004  18.650  0.00  0.00    +0.000 OA
ATOM     33  O   UNL     1      -5.672  11.651  17.211  0.00  0.00    +0.000 OA
ENDBRANCH  25  31
ENDBRANCH  21  22
ENDBRANCH   4  21
TORSDOF 9
ENDMDL
MODEL 6
REMARK VINA RESULT:      -8.4      0.506      1.126
REMARK  Name = 
REMARK  9 active torsions:
REMARK  status: ('A' for Active; 'I' for Inactive)
REMARK    1  A    between atoms: C_2  and  C_3
REMARK    2  A    between atoms: C_3  and  C_4
REMARK    3  A    between atoms: C_4  and  C_5
REMARK    4  A    between atoms: C_8  and  S_9
REMARK    5  A    between atoms: S_9  and  C_10
REMARK    6  A    between atoms: C_13  and  N_14
REMARK    7  A    between atoms: N_24  and  O_25
REMARK    8  A    between atoms: O_25  and  C_26
REMARK    9  A    between atoms: C_26  and  C_27
REMARK                            x       y       z     vdW  Elec       q    Type
REMARK                         _______ _______ _______ _____ _____    ______ ____
ROOT
ATOM      1  C   UNL     1       2.635   7.010  18.517  0.00  0.00    +0.000 A 
ATOM      2  C   UNL     1       2.200   7.046  19.846  0.00  0.00    +0.000 A 
ATOM      3  C   UNL     1       1.620   8.205  20.374  0.00  0.00    +0.000 A 
ATOM      4  C   UNL     1       1.491   9.358  19.598  0.00  0.00    +0.000 A 
ATOM      5  C   UNL     1       1.927   9.330  18.270  0.00  0.00    +0.000 A 
ATOM      6  C   UNL     1       2.494   8.165  17.735  0.00  0.00    +0.000 A 
ENDROOT
BRANCH   1   7
ATOM      7  C   UNL     1       3.296   5.776  17.944  0.00  0.00    +0.000 C 
BRANCH   7   8
ATOM      8  C   UNL     1       4.826   5.831  17.919  0.00  0.00    +0.000 C 
BRANCH   8  10
ATOM      9  O   UNL     1       6.341   5.078  19.643  0.00  0.00    +0.000 OA
ATOM     10  C   UNL     1       5.417   4.813  18.880  0.00  0.00    +0.000 C 
ATOM     11  N   UNL     1       4.799   3.590  18.796  0.00  0.00    +0.000 N 
ATOM     12  H   UNL     1       4.051   3.368  18.154  0.00  0.00    +0.000 HD
BRANCH  11  13
ATOM     13  O   UNL     1       5.301   2.579  19.653  0.00  0.00    +0.000 OA
BRANCH  13  14
ATOM     14  C   UNL     1       4.332   2.245  20.649  0.00  0.00    +0.000 C 
BRANCH  14  15
ATOM     15  C   UNL     1       2.939   2.599  20.189  0.00  0.00    +0.000 A 
ATOM     16  C   UNL     1       2.178   3.575  20.848  0.00  0.00    +0.000 A 
ATOM     17  C   UNL     1       0.885   3.881  20.416  0.00  0.00    +0.000 A 
ATOM     18  C   UNL     1       0.345   3.231  19.308  0.00  0.00    +0.000 A 
ATOM     19  C   UNL     1       1.104   2.285  18.621  0.00  0.00    +0.000 A 
ATOM     20  C   UNL     1       2.396   1.976  19.053  0.00  0.00    +0.000 A 
ENDBRANCH  14  15
ENDBRANCH  13  14
ENDBRANCH  11  13
ENDBRANCH   8  10
ENDBRANCH   7   8
ENDBRANCH   1   7
BRANCH   4  21
ATOM     21  S   UNL     1       0.694  10.801  20.283  0.00  0.00    +0.000 S 
BRANCH  21  22
ATOM     22  C   UNL     1      -0.787  10.900  19.327  0.00  0.00    +0.000 A 
ATOM     23  C   UNL     1      -0.991  10.113  18.173  0.00  0.00    +0.000 A 
ATOM     24  C   UNL     1      -2.183  10.151  17.409  0.00  0.00    +0.000 A 
ATOM     25  C   UNL     1      -3.275  10.974  17.759  0.00  0.00    +0.000 A 
ATOM     26  C   UNL     1      -3.130  11.757  18.921  0.00  0.00    +0.000 A 
ATOM     27  N   UNL     1      -3.960  12.615  19.529  0.00  0.00    +0.000 NA
ATOM     28  O   UNL     1      -3.299  13.084  20.642  0.00  0.00    +0.000 OA
ATOM     29  N   UNL     1      -2.039  12.536  20.758  0.00  0.00    +0.000 NA
ATOM     30  C   UNL     1      -1.886  11.715  19.706  0.00  0.00    +0.000 A 
BRANCH  25  31
ATOM     31  N   UNL     1      -4.486  11.003  16.962  0.00  0.00    +0.000 N 
ATOM     32  O   UNL     1      -4.343  11.003  15.731  0.00  0.00    +0.000 OA
ATOM     33  O   UNL     1      -5.582  11.026  17.532  0.00  0.00    +0.000 OA
ENDBRANCH  25  31
ENDBRANCH  21  22
ENDBRANCH   4  21
TORSDOF 9
ENDMDL
MODEL 7
REMARK VINA RESULT:      -8.2      4.260     10.846
REMARK  Name = 
REMARK  9 active torsions:
REMARK  status: ('A' for Active; 'I' for Inactive)
REMARK    1  A    between atoms: C_2  and  C_3
REMARK    2  A    between atoms: C_3  and  C_4
REMARK    3  A    between atoms: C_4  and  C_5
REMARK    4  A    between atoms: C_8  and  S_9
REMARK    5  A    between atoms: S_9  and  C_10
REMARK    6  A    between atoms: C_13  and  N_14
REMARK    7  A    between atoms: N_24  and  O_25
REMARK    8  A    between atoms: O_25  and  C_26
REMARK    9  A    between atoms: C_26  and  C_27
REMARK                            x       y       z     vdW  Elec       q    Type
REMARK                         _______ _______ _______ _____ _____    ______ ____
ROOT
ATOM      1  C   UNL     1       1.388   9.192  19.192  0.00  0.00    +0.000 A 
ATOM      2  C   UNL     1       1.261   8.531  20.419  0.00  0.00    +0.000 A 
ATOM      3  C   UNL     1       1.828   7.266  20.607  0.00  0.00    +0.000 A 
ATOM      4  C   UNL     1       2.504   6.622  19.569  0.00  0.00    +0.000 A 
ATOM      5  C   UNL     1       2.632   7.275  18.340  0.00  0.00    +0.000 A 
ATOM      6  C   UNL     1       2.077   8.550  18.154  0.00  0.00    +0.000 A 
ENDROOT
BRANCH   1   7
ATOM      7  C   UNL     1       0.749  10.543  18.962  0.00  0.00    +0.000 C 
BRANCH   7   8
ATOM      8  C   UNL     1       1.735  11.657  18.598  0.00  0.00    +0.000 C 
BRANCH   8  10
ATOM      9  O   UNL     1       1.650  12.557  20.838  0.00  0.00    +0.000 OA
ATOM     10  C   UNL     1       1.694  12.772  19.630  0.00  0.00    +0.000 C 
ATOM     11  N   UNL     1       1.717  14.020  19.058  0.00  0.00    +0.000 N 
ATOM     12  H   UNL     1       1.735  14.194  18.062  0.00  0.00    +0.000 HD
BRANCH  11  13
ATOM     13  O   UNL     1       1.669  15.116  19.954  0.00  0.00    +0.000 OA
BRANCH  13  14
ATOM     14  C   UNL     1       2.333  16.250  19.389  0.00  0.00    +0.000 C 
BRANCH  14  15
ATOM     15  C   UNL     1       1.398  17.039  18.506  0.00  0.00    +0.000 A 
ATOM     16  C   UNL     1       1.842  17.621  17.309  0.00  0.00    +0.000 A 
ATOM     17  C   UNL     1       0.966  18.359  16.509  0.00  0.00    +0.000 A 
ATOM     18  C   UNL     1      -0.367  18.508  16.885  0.00  0.00    +0.000 A 
ATOM     19  C   UNL     1      -0.831  17.905  18.052  0.00  0.00    +0.000 A 
ATOM     20  C   UNL     1       0.044  17.168  18.854  0.00  0.00    +0.000 A 
ENDBRANCH  14  15
ENDBRANCH  13  14
ENDBRANCH  11  13
ENDBRANCH   8  10
ENDBRANCH   7   8
ENDBRANCH   1   7
BRANCH   4  21
ATOM     21  S   UNL     1       3.266   5.035  19.860  0.00  0.00    +0.000 S 
BRANCH  21  22
ATOM     22  C   UNL     1       4.314   4.858  18.450  0.00  0.00    +0.000 A 
ATOM     23  C   UNL     1       3.799   4.708  17.144  0.00  0.00    +0.000 A 
ATOM     24  C   UNL     1       4.619   4.599  15.995  0.00  0.00    +0.000 A 
ATOM     25  C   UNL     1       6.027   4.649  16.068  0.00  0.00    +0.000 A 
ATOM     26  C   UNL     1       6.588   4.827  17.348  0.00  0.00    +0.000 A 
ATOM     27  N   UNL     1       7.859   4.931  17.760  0.00  0.00    +0.000 NA
ATOM     28  O   UNL     1       7.820   5.111  19.124  0.00  0.00    +0.000 OA
ATOM     29  N   UNL     1       6.527   5.119  19.602  0.00  0.00    +0.000 NA
ATOM     30  C   UNL     1       5.729   4.935  18.537  0.00  0.00    +0.000 A 
BRANCH  25  31
ATOM     31  N   UNL     1       6.852   4.530  14.880  0.00  0.00    +0.000 N 
ATOM     32  O   UNL     1       7.769   5.355  14.756  0.00  0.00    +0.000 OA
ATOM     33  O   UNL     1       6.610   3.634  14.065  0.00  0.00    +0.000 OA
ENDBRANCH  25  31
ENDBRANCH  21  22
ENDBRANCH   4  21
TORSDOF 9
ENDMDL
MODEL 8
REMARK VINA RESULT:      -8.1      2.931      9.704
REMARK  Name = 
REMARK  9 active torsions:
REMARK  status: ('A' for Active; 'I' for Inactive)
REMARK    1  A    between atoms: C_2  and  C_3
REMARK    2  A    between atoms: C_3  and  C_4
REMARK    3  A    between atoms: C_4  and  C_5
REMARK    4  A    between atoms: C_8  and  S_9
REMARK    5  A    between atoms: S_9  and  C_10
REMARK    6  A    between atoms: C_13  and  N_14
REMARK    7  A    between atoms: N_24  and  O_25
REMARK    8  A    between atoms: O_25  and  C_26
REMARK    9  A    between atoms: C_26  and  C_27
REMARK                            x       y       z     vdW  Elec       q    Type
REMARK                         _______ _______ _______ _____ _____    ______ ____
ROOT
ATOM      1  C   UNL     1       1.649   7.539  20.228  0.00  0.00    +0.000 A 
ATOM      2  C   UNL     1       2.475   7.354  19.113  0.00  0.00    +0.000 A 
ATOM      3  C   UNL     1       3.038   6.102  18.845  0.00  0.00    +0.000 A 
ATOM      4  C   UNL     1       2.816   5.019  19.697  0.00  0.00    +0.000 A 
ATOM      5  C   UNL     1       1.994   5.197  20.814  0.00  0.00    +0.000 A 
ATOM      6  C   UNL     1       1.417   6.448  21.076  0.00  0.00    +0.000 A 
ENDROOT
BRANCH   1   7
ATOM      7  C   UNL     1       1.064   8.895  20.550  0.00  0.00    +0.000 C 
BRANCH   7   8
ATOM      8  C   UNL     1       0.012   8.884  21.664  0.00  0.00    +0.000 C 
BRANCH   8  10
ATOM      9  O   UNL     1      -0.323  10.717  23.199  0.00  0.00    +0.000 OA
ATOM     10  C   UNL     1      -0.382  10.300  22.047  0.00  0.00    +0.000 C 
ATOM     11  N   UNL     1      -0.796  11.041  20.967  0.00  0.00    +0.000 N 
ATOM     12  H   UNL     1      -0.861  10.690  20.021  0.00  0.00    +0.000 HD
BRANCH  11  13
ATOM     13  O   UNL     1      -1.194  12.373  21.243  0.00  0.00    +0.000 OA
BRANCH  13  14
ATOM     14  C   UNL     1      -1.391  13.095  20.025  0.00  0.00    +0.000 C 
BRANCH  14  15
ATOM     15  C   UNL     1      -2.263  12.317  19.069  0.00  0.00    +0.000 A 
ATOM     16  C   UNL     1      -3.639  12.170  19.293  0.00  0.00    +0.000 A 
ATOM     17  C   UNL     1      -4.430  11.436  18.405  0.00  0.00    +0.000 A 
ATOM     18  C   UNL     1      -3.859  10.859  17.273  0.00  0.00    +0.000 A 
ATOM     19  C   UNL     1      -2.500  11.028  17.019  0.00  0.00    +0.000 A 
ATOM     20  C   UNL     1      -1.707  11.760  17.906  0.00  0.00    +0.000 A 
ENDBRANCH  14  15
ENDBRANCH  13  14
ENDBRANCH  11  13
ENDBRANCH   8  10
ENDBRANCH   7   8
ENDBRANCH   1   7
BRANCH   4  21
ATOM     21  S   UNL     1       3.500   3.421  19.295  0.00  0.00    +0.000 S 
BRANCH  21  22
ATOM     22  C   UNL     1       4.540   3.794  17.917  0.00  0.00    +0.000 A 
ATOM     23  C   UNL     1       4.091   3.681  16.584  0.00  0.00    +0.000 A 
ATOM     24  C   UNL     1       4.895   4.007  15.465  0.00  0.00    +0.000 A 
ATOM     25  C   UNL     1       6.214   4.490  15.601  0.00  0.00    +0.000 A 
ATOM     26  C   UNL     1       6.697   4.647  16.914  0.00  0.00    +0.000 A 
ATOM     27  N   UNL     1       7.871   5.087  17.388  0.00  0.00    +0.000 NA
ATOM     28  O   UNL     1       7.786   5.043  18.761  0.00  0.00    +0.000 OA
ATOM     29  N   UNL     1       6.562   4.571  19.183  0.00  0.00    +0.000 NA
ATOM     30  C   UNL     1       5.857   4.302  18.072  0.00  0.00    +0.000 A 
BRANCH  25  31
ATOM     31  N   UNL     1       7.025   4.814  14.443  0.00  0.00    +0.000 N 
ATOM     32  O   UNL     1       6.753   4.218  13.389  0.00  0.00    +0.000 OA
ATOM     33  O   UNL     1       7.929   5.648  14.554  0.00  0.00    +0.000 OA
ENDBRANCH  25  31
ENDBRANCH  21  22
ENDBRANCH   4  21
TORSDOF 9
ENDMDL
MODEL 9
REMARK VINA RESULT:      -8.1      3.185      3.726
REMARK  Name = 
REMARK  9 active torsions:
REMARK  status: ('A' for Active; 'I' for Inactive)
REMARK    1  A    between atoms: C_2  and  C_3
REMARK    2  A    between atoms: C_3  and  C_4
REMARK    3  A    between atoms: C_4  and  C_5
REMARK    4  A    between atoms: C_8  and  S_9
REMARK    5  A    between atoms: S_9  and  C_10
REMARK    6  A    between atoms: C_13  and  N_14
REMARK    7  A    between atoms: N_24  and  O_25
REMARK    8  A    between atoms: O_25  and  C_26
REMARK    9  A    between atoms: C_26  and  C_27
REMARK                            x       y       z     vdW  Elec       q    Type
REMARK                         _______ _______ _______ _____ _____    ______ ____
ROOT
ATOM      1  C   UNL     1       3.337   6.848  17.948  0.00  0.00    +0.000 A 
ATOM      2  C   UNL     1       2.902   8.004  17.290  0.00  0.00    +0.000 A 
ATOM      3  C   UNL     1       2.026   8.893  17.921  0.00  0.00    +0.000 A 
ATOM      4  C   UNL     1       1.541   8.634  19.203  0.00  0.00    +0.000 A 
ATOM      5  C   UNL     1       1.969   7.479  19.865  0.00  0.00    +0.000 A 
ATOM      6  C   UNL     1       2.859   6.594  19.241  0.00  0.00    +0.000 A 
ENDROOT
BRANCH   1   7
ATOM      7  C   UNL     1       4.255   5.859  17.265  0.00  0.00    +0.000 C 
BRANCH   7   8
ATOM      8  C   UNL     1       5.713   5.921  17.730  0.00  0.00    +0.000 C 
BRANCH   8  10
ATOM      9  O   UNL     1       6.690   5.237  19.829  0.00  0.00    +0.000 OA
ATOM     10  C   UNL     1       5.949   4.968  18.889  0.00  0.00    +0.000 C 
ATOM     11  N   UNL     1       5.243   3.798  18.761  0.00  0.00    +0.000 N 
ATOM     12  H   UNL     1       4.647   3.570  17.976  0.00  0.00    +0.000 HD
BRANCH  11  13
ATOM     13  O   UNL     1       5.419   2.848  19.798  0.00  0.00    +0.000 OA
BRANCH  13  14
ATOM     14  C   UNL     1       4.411   1.836  19.722  0.00  0.00    +0.000 C 
BRANCH  14  15
ATOM     15  C   UNL     1       3.031   2.440  19.814  0.00  0.00    +0.000 A 
ATOM     16  C   UNL     1       2.590   3.081  20.981  0.00  0.00    +0.000 A 
ATOM     17  C   UNL     1       1.305   3.623  21.054  0.00  0.00    +0.000 A 
ATOM     18  C   UNL     1       0.452   3.550  19.955  0.00  0.00    +0.000 A 
ATOM     19  C   UNL     1       0.889   2.949  18.776  0.00  0.00    +0.000 A 
ATOM     20  C   UNL     1       2.173   2.404  18.702  0.00  0.00    +0.000 A 
ENDBRANCH  14  15
ENDBRANCH  13  14
ENDBRANCH  11  13
ENDBRANCH   8  10
ENDBRANCH   7   8
ENDBRANCH   1   7
BRANCH   4  21
ATOM     21  S   UNL     1       0.471   9.818  20.002  0.00  0.00    +0.000 S 
BRANCH  21  22
ATOM     22  C   UNL     1       1.280  11.349  19.655  0.00  0.00    +0.000 A 
ATOM     23  C   UNL     1       1.962  11.580  18.441  0.00  0.00    +0.000 A 
ATOM     24  C   UNL     1       2.590  12.810  18.126  0.00  0.00    +0.000 A 
ATOM     25  C   UNL     1       2.565  13.914  19.005  0.00  0.00    +0.000 A 
ATOM     26  C   UNL     1       1.871  13.740  20.219  0.00  0.00    +0.000 A 
ATOM     27  N   UNL     1       1.646  14.571  21.246  0.00  0.00    +0.000 NA
ATOM     28  O   UNL     1       0.892  13.873  22.162  0.00  0.00    +0.000 OA
ATOM     29  N   UNL     1       0.629  12.590  21.736  0.00  0.00    +0.000 NA
ATOM     30  C   UNL     1       1.226  12.458  20.540  0.00  0.00    +0.000 A 
BRANCH  25  31
ATOM     31  N   UNL     1       3.218  15.164  18.668  0.00  0.00    +0.000 N 
ATOM     32  O   UNL     1       2.484  16.089  18.288  0.00  0.00    +0.000 OA
ATOM     33  O   UNL     1       4.445  15.252  18.772  0.00  0.00    +0.000 OA
ENDBRANCH  25  31
ENDBRANCH  21  22
ENDBRANCH   4  21
TORSDOF 9
ENDMDL
