MODEL 1
REMARK VINA RESULT:      -6.2      0.000      0.000
REMARK  Name = 
REMARK  7 active torsions:
REMARK  status: ('A' for Active; 'I' for Inactive)
REMARK    1  A    between atoms: C_2  and  C_3
REMARK    2  A    between atoms: C_4  and  C_5
REMARK    3  A    between atoms: C_11  and  C_12
REMARK    4  A    between atoms: N_16  and  N_17
REMARK    5  A    between atoms: N_17  and  S_18
REMARK    6  A    between atoms: S_18  and  C_21
REMARK    7  A    between atoms: C_27  and  O_28
REMARK                            x       y       z     vdW  Elec       q    Type
REMARK                         _______ _______ _______ _____ _____    ______ ____
ROOT
ATOM      1  C   UNL     1      -2.506  12.540  21.864  0.00  0.00    +0.000 A 
ATOM      2  C   UNL     1      -3.397  12.552  20.755  0.00  0.00    +0.000 A 
ATOM      3  C   UNL     1      -2.972  11.941  19.640  0.00  0.00    +0.000 A 
ATOM      4  C   UNL     1      -1.634  11.275  19.544  0.00  0.00    +0.000 A 
ATOM      5  O   UNL     1      -1.262  10.704  18.520  0.00  0.00    +0.000 OA
ATOM      6  N   UNL     1      -0.832  11.345  20.702  0.00  0.00    +0.000 N 
ATOM      7  C   UNL     1      -1.294  11.961  21.850  0.00  0.00    +0.000 A 
ENDROOT
BRANCH   2   8
ATOM      8  C   UNL     1      -4.744  13.170  20.814  0.00  0.00    +0.000 A 
ATOM      9  C   UNL     1      -4.904  14.539  20.559  0.00  0.00    +0.000 A 
ATOM     10  C   UNL     1      -6.166  15.129  20.661  0.00  0.00    +0.000 A 
ATOM     11  C   UNL     1      -7.271  14.357  21.013  0.00  0.00    +0.000 A 
ATOM     12  C   UNL     1      -7.121  12.992  21.251  0.00  0.00    +0.000 A 
ATOM     13  C   UNL     1      -5.863  12.395  21.150  0.00  0.00    +0.000 A 
ENDBRANCH   2   8
BRANCH   1  15
ATOM     14  N   UNL     1      -3.310  13.753  24.234  0.00  0.00    +0.000 NA
ATOM     15  C   UNL     1      -2.945  13.203  23.160  0.00  0.00    +0.000 C 
ENDBRANCH   1  15
BRANCH   3  16
ATOM     16  C   UNL     1      -3.931  11.929  18.460  0.00  0.00    +0.000 C 
ATOM     17  N   UNL     1      -4.727  11.918  17.481  0.00  0.00    +0.000 NA
ENDBRANCH   3  16
BRANCH   6  18
ATOM     18  N   UNL     1       0.492  10.657  20.595  0.00  0.00    +0.000 N 
ATOM     19  H   UNL     1       1.282  11.314  20.648  0.00  0.00    +0.000 HD
BRANCH  18  20
ATOM     20  S   UNL     1       0.779   9.182  21.386  0.00  0.00    +0.000 S 
ATOM     21  O   UNL     1       1.667   9.439  22.492  0.00  0.00    +0.000 OA
ATOM     22  O   UNL     1      -0.520   8.563  21.574  0.00  0.00    +0.000 OA
BRANCH  20  23
ATOM     23  C   UNL     1       1.640   8.215  20.175  0.00  0.00    +0.000 A 
ATOM     24  C   UNL     1       1.982   6.889  20.453  0.00  0.00    +0.000 A 
ATOM     25  C   UNL     1       2.568   6.110  19.455  0.00  0.00    +0.000 A 
ATOM     26  C   UNL     1       2.798   6.649  18.187  0.00  0.00    +0.000 A 
ATOM     27  C   UNL     1       2.434   7.966  17.907  0.00  0.00    +0.000 A 
ATOM     28  C   UNL     1       1.849   8.753  18.899  0.00  0.00    +0.000 A 
ENDBRANCH  20  23
ENDBRANCH  18  20
ENDBRANCH   6  18
BRANCH   7  29
ATOM     29  O   UNL     1      -0.558  11.954  23.009  0.00  0.00    +0.000 OA
ATOM     30  H   UNL     1      -0.793  11.197  23.580  0.00  0.00    +0.000 HD
ENDBRANCH   7  29
TORSDOF 7
ENDMDL
MODEL 2
REMARK VINA RESULT:      -6.2      0.263      2.944
REMARK  Name = 
REMARK  7 active torsions:
REMARK  status: ('A' for Active; 'I' for Inactive)
REMARK    1  A    between atoms: C_2  and  C_3
REMARK    2  A    between atoms: C_4  and  C_5
REMARK    3  A    between atoms: C_11  and  C_12
REMARK    4  A    between atoms: N_16  and  N_17
REMARK    5  A    between atoms: N_17  and  S_18
REMARK    6  A    between atoms: S_18  and  C_21
REMARK    7  A    between atoms: C_27  and  O_28
REMARK                            x       y       z     vdW  Elec       q    Type
REMARK                         _______ _______ _______ _____ _____    ______ ____
ROOT
ATOM      1  C   UNL     1      -2.880  11.905  19.732  0.00  0.00    +0.000 A 
ATOM      2  C   UNL     1      -3.445  12.560  20.862  0.00  0.00    +0.000 A 
ATOM      3  C   UNL     1      -2.685  12.616  21.964  0.00  0.00    +0.000 A 
ATOM      4  C   UNL     1      -1.309  12.027  22.026  0.00  0.00    +0.000 A 
ATOM      5  O   UNL     1      -0.614  12.098  23.038  0.00  0.00    +0.000 OA
ATOM      6  N   UNL     1      -0.865  11.387  20.850  0.00  0.00    +0.000 N 
ATOM      7  C   UNL     1      -1.654  11.356  19.716  0.00  0.00    +0.000 A 
ENDROOT
BRANCH   2   8
ATOM      8  C   UNL     1      -4.790  13.187  20.835  0.00  0.00    +0.000 A 
ATOM      9  C   UNL     1      -5.930  12.423  21.119  0.00  0.00    +0.000 A 
ATOM     10  C   UNL     1      -7.199  13.003  21.048  0.00  0.00    +0.000 A 
ATOM     11  C   UNL     1      -7.334  14.346  20.700  0.00  0.00    +0.000 A 
ATOM     12  C   UNL     1      -6.203  15.115  20.434  0.00  0.00    +0.000 A 
ATOM     13  C   UNL     1      -4.932  14.542  20.503  0.00  0.00    +0.000 A 
ENDBRANCH   2   8
BRANCH   1  15
ATOM     14  N   UNL     1      -4.368  11.765  17.387  0.00  0.00    +0.000 NA
ATOM     15  C   UNL     1      -3.693  11.829  18.450  0.00  0.00    +0.000 C 
ENDBRANCH   1  15
BRANCH   3  16
ATOM     16  C   UNL     1      -3.274  13.338  23.165  0.00  0.00    +0.000 C 
ATOM     17  N   UNL     1      -3.763  13.938  24.161  0.00  0.00    +0.000 NA
ENDBRANCH   3  16
BRANCH   6  18
ATOM     18  N   UNL     1       0.518  10.822  20.924  0.00  0.00    +0.000 N 
ATOM     19  H   UNL     1       1.213  11.520  21.222  0.00  0.00    +0.000 HD
BRANCH  18  20
ATOM     20  S   UNL     1       0.799   9.270  21.554  0.00  0.00    +0.000 S 
ATOM     21  O   UNL     1       1.738   9.398  22.641  0.00  0.00    +0.000 OA
ATOM     22  O   UNL     1      -0.507   8.665  21.736  0.00  0.00    +0.000 OA
BRANCH  20  23
ATOM     23  C   UNL     1       1.585   8.410  20.218  0.00  0.00    +0.000 A 
ATOM     24  C   UNL     1       2.001   7.086  20.388  0.00  0.00    +0.000 A 
ATOM     25  C   UNL     1       2.526   6.389  19.299  0.00  0.00    +0.000 A 
ATOM     26  C   UNL     1       2.621   7.005  18.049  0.00  0.00    +0.000 A 
ATOM     27  C   UNL     1       2.183   8.319  17.879  0.00  0.00    +0.000 A 
ATOM     28  C   UNL     1       1.659   9.025  18.962  0.00  0.00    +0.000 A 
ENDBRANCH  20  23
ENDBRANCH  18  20
ENDBRANCH   6  18
BRANCH   7  29
ATOM     29  O   UNL     1      -1.193  10.816  18.541  0.00  0.00    +0.000 OA
ATOM     30  H   UNL     1      -0.342  11.213  18.271  0.00  0.00    +0.000 HD
ENDBRANCH   7  29
TORSDOF 7
ENDMDL
MODEL 3
REMARK VINA RESULT:      -6.0      0.215      1.312
REMARK  Name = 
REMARK  7 active torsions:
REMARK  status: ('A' for Active; 'I' for Inactive)
REMARK    1  A    between atoms: C_2  and  C_3
REMARK    2  A    between atoms: C_4  and  C_5
REMARK    3  A    between atoms: C_11  and  C_12
REMARK    4  A    between atoms: N_16  and  N_17
REMARK    5  A    between atoms: N_17  and  S_18
REMARK    6  A    between atoms: S_18  and  C_21
REMARK    7  A    between atoms: C_27  and  O_28
REMARK                            x       y       z     vdW  Elec       q    Type
REMARK                         _______ _______ _______ _____ _____    ______ ____
ROOT
ATOM      1  C   UNL     1      -2.476  12.602  21.763  0.00  0.00    +0.000 A 
ATOM      2  C   UNL     1      -3.422  12.631  20.701  0.00  0.00    +0.000 A 
ATOM      3  C   UNL     1      -3.058  12.032  19.559  0.00  0.00    +0.000 A 
ATOM      4  C   UNL     1      -1.730  11.361  19.387  0.00  0.00    +0.000 A 
ATOM      5  O   UNL     1      -1.414  10.801  18.339  0.00  0.00    +0.000 OA
ATOM      6  N   UNL     1      -0.870  11.413  20.503  0.00  0.00    +0.000 N 
ATOM      7  C   UNL     1      -1.269  12.017  21.680  0.00  0.00    +0.000 A 
ENDROOT
BRANCH   2   8
ATOM      8  C   UNL     1      -4.761  13.255  20.836  0.00  0.00    +0.000 A 
ATOM      9  C   UNL     1      -5.865  12.481  21.220  0.00  0.00    +0.000 A 
ATOM     10  C   UNL     1      -7.133  13.059  21.302  0.00  0.00    +0.000 A 
ATOM     11  C   UNL     1      -7.305  14.410  21.008  0.00  0.00    +0.000 A 
ATOM     12  C   UNL     1      -6.209  15.189  20.642  0.00  0.00    +0.000 A 
ATOM     13  C   UNL     1      -4.938  14.618  20.559  0.00  0.00    +0.000 A 
ENDBRANCH   2   8
BRANCH   1  15
ATOM     14  N   UNL     1      -3.151  13.790  24.185  0.00  0.00    +0.000 NA
ATOM     15  C   UNL     1      -2.845  13.251  23.087  0.00  0.00    +0.000 C 
ENDBRANCH   1  15
BRANCH   3  16
ATOM     16  C   UNL     1      -4.075  12.039  18.429  0.00  0.00    +0.000 C 
ATOM     17  N   UNL     1      -4.920  12.045  17.492  0.00  0.00    +0.000 NA
ENDBRANCH   3  16
BRANCH   6  18
ATOM     18  N   UNL     1       0.443  10.720  20.321  0.00  0.00    +0.000 N 
ATOM     19  H   UNL     1       1.234  11.377  20.292  0.00  0.00    +0.000 HD
BRANCH  18  20
ATOM     20  S   UNL     1       0.790   9.271  21.137  0.00  0.00    +0.000 S 
ATOM     21  O   UNL     1       1.716   9.574  22.200  0.00  0.00    +0.000 OA
ATOM     22  O   UNL     1      -0.488   8.634  21.392  0.00  0.00    +0.000 OA
BRANCH  20  23
ATOM     23  C   UNL     1       1.622   8.290  19.918  0.00  0.00    +0.000 A 
ATOM     24  C   UNL     1       1.935   8.840  18.672  0.00  0.00    +0.000 A 
ATOM     25  C   UNL     1       2.678   8.090  17.760  0.00  0.00    +0.000 A 
ATOM     26  C   UNL     1       3.115   6.807  18.096  0.00  0.00    +0.000 A 
ATOM     27  C   UNL     1       2.820   6.270  19.349  0.00  0.00    +0.000 A 
ATOM     28  C   UNL     1       2.076   7.012  20.267  0.00  0.00    +0.000 A 
ENDBRANCH  20  23
ENDBRANCH  18  20
ENDBRANCH   6  18
BRANCH   7  29
ATOM     29  O   UNL     1      -0.475  11.992  22.800  0.00  0.00    +0.000 OA
ATOM     30  H   UNL     1      -0.448  11.103  23.203  0.00  0.00    +0.000 HD
ENDBRANCH   7  29
TORSDOF 7
ENDMDL
MODEL 4
REMARK VINA RESULT:      -6.0      4.273      9.588
REMARK  Name = 
REMARK  7 active torsions:
REMARK  status: ('A' for Active; 'I' for Inactive)
REMARK    1  A    between atoms: C_2  and  C_3
REMARK    2  A    between atoms: C_4  and  C_5
REMARK    3  A    between atoms: C_11  and  C_12
REMARK    4  A    between atoms: N_16  and  N_17
REMARK    5  A    between atoms: N_17  and  S_18
REMARK    6  A    between atoms: S_18  and  C_21
REMARK    7  A    between atoms: C_27  and  O_28
REMARK                            x       y       z     vdW  Elec       q    Type
REMARK                         _______ _______ _______ _____ _____    ______ ____
ROOT
ATOM      1  C   UNL     1       3.198   6.513  18.290  0.00  0.00    +0.000 A 
ATOM      2  C   UNL     1       2.786   5.394  19.066  0.00  0.00    +0.000 A 
ATOM      3  C   UNL     1       1.966   5.648  20.095  0.00  0.00    +0.000 A 
ATOM      4  C   UNL     1       1.494   7.030  20.429  0.00  0.00    +0.000 A 
ATOM      5  O   UNL     1       0.729   7.248  21.367  0.00  0.00    +0.000 OA
ATOM      6  N   UNL     1       1.985   8.060  19.600  0.00  0.00    +0.000 N 
ATOM      7  C   UNL     1       2.814   7.778  18.531  0.00  0.00    +0.000 A 
ENDROOT
BRANCH   2   8
ATOM      8  C   UNL     1       3.200   4.004  18.752  0.00  0.00    +0.000 A 
ATOM      9  C   UNL     1       2.532   3.276  17.757  0.00  0.00    +0.000 A 
ATOM     10  C   UNL     1       2.892   1.953  17.494  0.00  0.00    +0.000 A 
ATOM     11  C   UNL     1       3.921   1.353  18.217  0.00  0.00    +0.000 A 
ATOM     12  C   UNL     1       4.601   2.077  19.196  0.00  0.00    +0.000 A 
ATOM     13  C   UNL     1       4.246   3.400  19.463  0.00  0.00    +0.000 A 
ENDBRANCH   2   8
BRANCH   1  15
ATOM     14  N   UNL     1       4.875   6.085  16.113  0.00  0.00    +0.000 NA
ATOM     15  C   UNL     1       4.114   6.279  17.100  0.00  0.00    +0.000 C 
ENDBRANCH   1  15
BRANCH   3  16
ATOM     16  C   UNL     1       1.502   4.452  20.910  0.00  0.00    +0.000 C 
ATOM     17  N   UNL     1       1.118   3.459  21.587  0.00  0.00    +0.000 NA
ENDBRANCH   3  16
BRANCH   6  18
ATOM     18  N   UNL     1       1.488   9.430  19.936  0.00  0.00    +0.000 N 
ATOM     19  H   UNL     1       2.248  10.070  20.203  0.00  0.00    +0.000 HD
BRANCH  18  20
ATOM     20  S   UNL     1       0.267  10.170  19.016  0.00  0.00    +0.000 S 
ATOM     21  O   UNL     1       0.230   9.521  17.729  0.00  0.00    +0.000 OA
ATOM     22  O   UNL     1      -0.901  10.239  19.873  0.00  0.00    +0.000 OA
BRANCH  20  23
ATOM     23  C   UNL     1       0.849  11.830  18.802  0.00  0.00    +0.000 A 
ATOM     24  C   UNL     1       0.048  12.907  19.191  0.00  0.00    +0.000 A 
ATOM     25  C   UNL     1       0.558  14.204  19.110  0.00  0.00    +0.000 A 
ATOM     26  C   UNL     1       1.862  14.420  18.658  0.00  0.00    +0.000 A 
ATOM     27  C   UNL     1       2.666  13.340  18.293  0.00  0.00    +0.000 A 
ATOM     28  C   UNL     1       2.164  12.041  18.368  0.00  0.00    +0.000 A 
ENDBRANCH  20  23
ENDBRANCH  18  20
ENDBRANCH   6  18
BRANCH   7  29
ATOM     29  O   UNL     1       3.222   8.762  17.665  0.00  0.00    +0.000 OA
ATOM     30  H   UNL     1       3.788   9.422  18.110  0.00  0.00    +0.000 HD
ENDBRANCH   7  29
TORSDOF 7
ENDMDL
MODEL 5
REMARK VINA RESULT:      -5.9      3.230      9.674
REMARK  Name = 
REMARK  7 active torsions:
REMARK  status: ('A' for Active; 'I' for Inactive)
REMARK    1  A    between atoms: C_2  and  C_3
REMARK    2  A    between atoms: C_4  and  C_5
REMARK    3  A    between atoms: C_11  and  C_12
REMARK    4  A    between atoms: N_16  and  N_17
REMARK    5  A    between atoms: N_17  and  S_18
REMARK    6  A    between atoms: S_18  and  C_21
REMARK    7  A    between atoms: C_27  and  O_28
REMARK                            x       y       z     vdW  Elec       q    Type
REMARK                         _______ _______ _______ _____ _____    ______ ____
ROOT
ATOM      1  C   UNL     1       3.183   6.443  18.343  0.00  0.00    +0.000 A 
ATOM      2  C   UNL     1       2.780   5.316  19.111  0.00  0.00    +0.000 A 
ATOM      3  C   UNL     1       1.957   5.556  20.141  0.00  0.00    +0.000 A 
ATOM      4  C   UNL     1       1.474   6.932  20.484  0.00  0.00    +0.000 A 
ATOM      5  O   UNL     1       0.706   7.139  21.422  0.00  0.00    +0.000 OA
ATOM      6  N   UNL     1       1.956   7.971  19.661  0.00  0.00    +0.000 N 
ATOM      7  C   UNL     1       2.788   7.703  18.591  0.00  0.00    +0.000 A 
ENDROOT
BRANCH   2   8
ATOM      8  C   UNL     1       3.207   3.931  18.789  0.00  0.00    +0.000 A 
ATOM      9  C   UNL     1       2.558   3.211  17.775  0.00  0.00    +0.000 A 
ATOM     10  C   UNL     1       2.929   1.893  17.505  0.00  0.00    +0.000 A 
ATOM     11  C   UNL     1       3.949   1.290  18.238  0.00  0.00    +0.000 A 
ATOM     12  C   UNL     1       4.609   2.006  19.235  0.00  0.00    +0.000 A 
ATOM     13  C   UNL     1       4.243   3.325  19.511  0.00  0.00    +0.000 A 
ENDBRANCH   2   8
BRANCH   1  15
ATOM     14  N   UNL     1       4.865   6.042  16.164  0.00  0.00    +0.000 NA
ATOM     15  C   UNL     1       4.102   6.224  17.152  0.00  0.00    +0.000 C 
ENDBRANCH   1  15
BRANCH   3  16
ATOM     16  C   UNL     1       1.503   4.352  20.949  0.00  0.00    +0.000 C 
ATOM     17  N   UNL     1       1.125   3.352  21.620  0.00  0.00    +0.000 NA
ENDBRANCH   3  16
BRANCH   6  18
ATOM     18  N   UNL     1       1.447   9.335  20.005  0.00  0.00    +0.000 N 
ATOM     19  H   UNL     1       2.045   9.817  20.690  0.00  0.00    +0.000 HD
BRANCH  18  20
ATOM     20  S   UNL     1       0.818  10.364  18.809  0.00  0.00    +0.000 S 
ATOM     21  O   UNL     1       1.868  11.266  18.405  0.00  0.00    +0.000 OA
ATOM     22  O   UNL     1       0.136   9.507  17.857  0.00  0.00    +0.000 OA
BRANCH  20  23
ATOM     23  C   UNL     1      -0.432  11.286  19.661  0.00  0.00    +0.000 A 
ATOM     24  C   UNL     1      -1.586  11.690  18.985  0.00  0.00    +0.000 A 
ATOM     25  C   UNL     1      -2.607  12.327  19.693  0.00  0.00    +0.000 A 
ATOM     26  C   UNL     1      -2.479  12.545  21.066  0.00  0.00    +0.000 A 
ATOM     27  C   UNL     1      -1.335  12.120  21.741  0.00  0.00    +0.000 A 
ATOM     28  C   UNL     1      -0.309  11.485  21.042  0.00  0.00    +0.000 A 
ENDBRANCH  20  23
ENDBRANCH  18  20
ENDBRANCH   6  18
BRANCH   7  29
ATOM     29  O   UNL     1       3.188   8.696  17.731  0.00  0.00    +0.000 OA
ATOM     30  H   UNL     1       3.130   8.411  16.799  0.00  0.00    +0.000 HD
ENDBRANCH   7  29
TORSDOF 7
ENDMDL
MODEL 6
REMARK VINA RESULT:      -5.8      4.134      7.569
REMARK  Name = 
REMARK  7 active torsions:
REMARK  status: ('A' for Active; 'I' for Inactive)
REMARK    1  A    between atoms: C_2  and  C_3
REMARK    2  A    between atoms: C_4  and  C_5
REMARK    3  A    between atoms: C_11  and  C_12
REMARK    4  A    between atoms: N_16  and  N_17
REMARK    5  A    between atoms: N_17  and  S_18
REMARK    6  A    between atoms: S_18  and  C_21
REMARK    7  A    between atoms: C_27  and  O_28
REMARK                            x       y       z     vdW  Elec       q    Type
REMARK                         _______ _______ _______ _____ _____    ______ ____
ROOT
ATOM      1  C   UNL     1      -2.267  12.490  22.789  0.00  0.00    +0.000 A 
ATOM      2  C   UNL     1      -1.825  13.445  21.831  0.00  0.00    +0.000 A 
ATOM      3  C   UNL     1      -2.590  14.534  21.675  0.00  0.00    +0.000 A 
ATOM      4  C   UNL     1      -3.849  14.756  22.457  0.00  0.00    +0.000 A 
ATOM      5  O   UNL     1      -4.534  15.767  22.316  0.00  0.00    +0.000 OA
ATOM      6  N   UNL     1      -4.194  13.731  23.362  0.00  0.00    +0.000 N 
ATOM      7  C   UNL     1      -3.383  12.624  23.526  0.00  0.00    +0.000 A 
ENDROOT
BRANCH   2   8
ATOM      8  C   UNL     1      -0.569  13.284  21.058  0.00  0.00    +0.000 A 
ATOM      9  C   UNL     1       0.640  13.778  21.567  0.00  0.00    +0.000 A 
ATOM     10  C   UNL     1       1.814  13.667  20.818  0.00  0.00    +0.000 A 
ATOM     11  C   UNL     1       1.787  13.060  19.564  0.00  0.00    +0.000 A 
ATOM     12  C   UNL     1       0.591  12.551  19.060  0.00  0.00    +0.000 A 
ATOM     13  C   UNL     1      -0.586  12.658  19.804  0.00  0.00    +0.000 A 
ENDBRANCH   2   8
BRANCH   1  15
ATOM     14  N   UNL     1      -0.730  10.211  23.209  0.00  0.00    +0.000 NA
ATOM     15  C   UNL     1      -1.427  11.244  23.019  0.00  0.00    +0.000 C 
ENDBRANCH   1  15
BRANCH   3  16
ATOM     16  C   UNL     1      -2.109  15.570  20.672  0.00  0.00    +0.000 C 
ATOM     17  N   UNL     1      -1.710  16.430  19.839  0.00  0.00    +0.000 NA
ENDBRANCH   3  16
BRANCH   6  18
ATOM     18  N   UNL     1      -5.442  13.978  24.149  0.00  0.00    +0.000 N 
ATOM     19  H   UNL     1      -5.638  14.981  24.270  0.00  0.00    +0.000 HD
BRANCH  18  20
ATOM     20  S   UNL     1      -6.834  13.037  23.903  0.00  0.00    +0.000 S 
ATOM     21  O   UNL     1      -6.501  11.668  24.211  0.00  0.00    +0.000 OA
ATOM     22  O   UNL     1      -7.916  13.732  24.575  0.00  0.00    +0.000 OA
BRANCH  20  23
ATOM     23  C   UNL     1      -7.134  13.175  22.162  0.00  0.00    +0.000 A 
ATOM     24  C   UNL     1      -7.777  14.305  21.651  0.00  0.00    +0.000 A 
ATOM     25  C   UNL     1      -7.916  14.447  20.270  0.00  0.00    +0.000 A 
ATOM     26  C   UNL     1      -7.405  13.475  19.408  0.00  0.00    +0.000 A 
ATOM     27  C   UNL     1      -6.743  12.360  19.922  0.00  0.00    +0.000 A 
ATOM     28  C   UNL     1      -6.601  12.208  21.301  0.00  0.00    +0.000 A 
ENDBRANCH  20  23
ENDBRANCH  18  20
ENDBRANCH   6  18
BRANCH   7  29
ATOM     29  O   UNL     1      -3.663  11.667  24.470  0.00  0.00    +0.000 OA
ATOM     30  H   UNL     1      -2.862  11.404  24.964  0.00  0.00    +0.000 HD
ENDBRANCH   7  29
TORSDOF 7
ENDMDL
MODEL 7
REMARK VINA RESULT:      -5.7      2.503      3.699
REMARK  Name = 
REMARK  7 active torsions:
REMARK  status: ('A' for Active; 'I' for Inactive)
REMARK    1  A    between atoms: C_2  and  C_3
REMARK    2  A    between atoms: C_4  and  C_5
REMARK    3  A    between atoms: C_11  and  C_12
REMARK    4  A    between atoms: N_16  and  N_17
REMARK    5  A    between atoms: N_17  and  S_18
REMARK    6  A    between atoms: S_18  and  C_21
REMARK    7  A    between atoms: C_27  and  O_28
REMARK                            x       y       z     vdW  Elec       q    Type
REMARK                         _______ _______ _______ _____ _____    ______ ____
ROOT
ATOM      1  C   UNL     1      -1.818  14.730  21.739  0.00  0.00    +0.000 A 
ATOM      2  C   UNL     1      -2.756  14.268  22.703  0.00  0.00    +0.000 A 
ATOM      3  C   UNL     1      -2.662  12.979  23.060  0.00  0.00    +0.000 A 
ATOM      4  C   UNL     1      -1.631  12.056  22.487  0.00  0.00    +0.000 A 
ATOM      5  O   UNL     1      -1.545  10.880  22.834  0.00  0.00    +0.000 OA
ATOM      6  N   UNL     1      -0.769  12.625  21.526  0.00  0.00    +0.000 N 
ATOM      7  C   UNL     1      -0.866  13.960  21.185  0.00  0.00    +0.000 A 
ENDROOT
BRANCH   2   8
ATOM      8  C   UNL     1      -3.773  15.154  23.322  0.00  0.00    +0.000 A 
ATOM      9  C   UNL     1      -5.060  15.242  22.774  0.00  0.00    +0.000 A 
ATOM     10  C   UNL     1      -6.001  16.111  23.329  0.00  0.00    +0.000 A 
ATOM     11  C   UNL     1      -5.665  16.890  24.434  0.00  0.00    +0.000 A 
ATOM     12  C   UNL     1      -4.393  16.795  24.995  0.00  0.00    +0.000 A 
ATOM     13  C   UNL     1      -3.447  15.927  24.445  0.00  0.00    +0.000 A 
ENDBRANCH   2   8
BRANCH   1  15
ATOM     14  N   UNL     1      -1.911  17.397  20.958  0.00  0.00    +0.000 NA
ATOM     15  C   UNL     1      -1.869  16.188  21.312  0.00  0.00    +0.000 C 
ENDBRANCH   1  15
BRANCH   3  16
ATOM     16  C   UNL     1      -3.646  12.487  24.109  0.00  0.00    +0.000 C 
ATOM     17  N   UNL     1      -4.462  12.077  24.980  0.00  0.00    +0.000 NA
ENDBRANCH   3  16
BRANCH   6  18
ATOM     18  N   UNL     1       0.267  11.694  20.980  0.00  0.00    +0.000 N 
ATOM     19  H   UNL     1       0.509  10.943  21.640  0.00  0.00    +0.000 HD
BRANCH  18  20
ATOM     20  S   UNL     1       0.224  11.188  19.360  0.00  0.00    +0.000 S 
ATOM     21  O   UNL     1      -1.151  10.917  19.018  0.00  0.00    +0.000 OA
ATOM     22  O   UNL     1       1.024  12.142  18.616  0.00  0.00    +0.000 OA
BRANCH  20  23
ATOM     23  C   UNL     1       1.122   9.660  19.371  0.00  0.00    +0.000 A 
ATOM     24  C   UNL     1       1.137   8.866  20.522  0.00  0.00    +0.000 A 
ATOM     25  C   UNL     1       1.763   7.620  20.485  0.00  0.00    +0.000 A 
ATOM     26  C   UNL     1       2.356   7.165  19.305  0.00  0.00    +0.000 A 
ATOM     27  C   UNL     1       2.319   7.951  18.153  0.00  0.00    +0.000 A 
ATOM     28  C   UNL     1       1.697   9.199  18.180  0.00  0.00    +0.000 A 
ENDBRANCH  20  23
ENDBRANCH  18  20
ENDBRANCH   6  18
BRANCH   7  29
ATOM     29  O   UNL     1       0.027  14.543  20.320  0.00  0.00    +0.000 OA
ATOM     30  H   UNL     1       0.586  15.204  20.772  0.00  0.00    +0.000 HD
ENDBRANCH   7  29
TORSDOF 7
ENDMDL
MODEL 8
REMARK VINA RESULT:      -5.7     10.026     12.708
REMARK  Name = 
REMARK  7 active torsions:
REMARK  status: ('A' for Active; 'I' for Inactive)
REMARK    1  A    between atoms: C_2  and  C_3
REMARK    2  A    between atoms: C_4  and  C_5
REMARK    3  A    between atoms: C_11  and  C_12
REMARK    4  A    between atoms: N_16  and  N_17
REMARK    5  A    between atoms: N_17  and  S_18
REMARK    6  A    between atoms: S_18  and  C_21
REMARK    7  A    between atoms: C_27  and  O_28
REMARK                            x       y       z     vdW  Elec       q    Type
REMARK                         _______ _______ _______ _____ _____    ______ ____
ROOT
ATOM      1  C   UNL     1       9.213  12.577  21.740  0.00  0.00    +0.000 A 
ATOM      2  C   UNL     1       9.666  13.868  21.350  0.00  0.00    +0.000 A 
ATOM      3  C   UNL     1       9.499  14.855  22.241  0.00  0.00    +0.000 A 
ATOM      4  C   UNL     1       8.872  14.633  23.583  0.00  0.00    +0.000 A 
ATOM      5  O   UNL     1       8.738  15.544  24.399  0.00  0.00    +0.000 OA
ATOM      6  N   UNL     1       8.446  13.315  23.848  0.00  0.00    +0.000 N 
ATOM      7  C   UNL     1       8.644  12.305  22.926  0.00  0.00    +0.000 A 
ENDROOT
BRANCH   2   8
ATOM      8  C   UNL     1      10.323  14.128  20.045  0.00  0.00    +0.000 A 
ATOM      9  C   UNL     1      11.709  13.969  19.909  0.00  0.00    +0.000 A 
ATOM     10  C   UNL     1      12.333  14.259  18.694  0.00  0.00    +0.000 A 
ATOM     11  C   UNL     1      11.577  14.701  17.610  0.00  0.00    +0.000 A 
ATOM     12  C   UNL     1      10.196  14.845  17.734  0.00  0.00    +0.000 A 
ATOM     13  C   UNL     1       9.566  14.557  18.946  0.00  0.00    +0.000 A 
ENDBRANCH   2   8
BRANCH   1  15
ATOM     14  N   UNL     1       9.545  10.456  19.972  0.00  0.00    +0.000 NA
ATOM     15  C   UNL     1       9.395  11.417  20.774  0.00  0.00    +0.000 C 
ENDBRANCH   1  15
BRANCH   3  16
ATOM     16  C   UNL     1      10.004  16.231  21.839  0.00  0.00    +0.000 C 
ATOM     17  N   UNL     1      10.424  17.374  21.507  0.00  0.00    +0.000 NA
ENDBRANCH   3  16
BRANCH   6  18
ATOM     18  N   UNL     1       7.841  13.108  25.201  0.00  0.00    +0.000 N 
ATOM     19  H   UNL     1       8.282  13.693  25.923  0.00  0.00    +0.000 HD
BRANCH  18  20
ATOM     20  S   UNL     1       6.162  12.938  25.393  0.00  0.00    +0.000 S 
ATOM     21  O   UNL     1       5.665  14.140  26.015  0.00  0.00    +0.000 OA
ATOM     22  O   UNL     1       5.654  12.468  24.118  0.00  0.00    +0.000 OA
BRANCH  20  23
ATOM     23  C   UNL     1       6.004  11.594  26.538  0.00  0.00    +0.000 A 
ATOM     24  C   UNL     1       6.928  11.447  27.576  0.00  0.00    +0.000 A 
ATOM     25  C   UNL     1       6.733  10.446  28.528  0.00  0.00    +0.000 A 
ATOM     26  C   UNL     1       5.618   9.609  28.451  0.00  0.00    +0.000 A 
ATOM     27  C   UNL     1       4.686   9.774  27.427  0.00  0.00    +0.000 A 
ATOM     28  C   UNL     1       4.873  10.771  26.469  0.00  0.00    +0.000 A 
ENDBRANCH  20  23
ENDBRANCH  18  20
ENDBRANCH   6  18
BRANCH   7  29
ATOM     29  O   UNL     1       8.317  11.003  23.213  0.00  0.00    +0.000 OA
ATOM     30  H   UNL     1       8.904  10.374  22.750  0.00  0.00    +0.000 HD
ENDBRANCH   7  29
TORSDOF 7
ENDMDL
MODEL 9
REMARK VINA RESULT:      -5.7      2.286      3.461
REMARK  Name = 
REMARK  7 active torsions:
REMARK  status: ('A' for Active; 'I' for Inactive)
REMARK    1  A    between atoms: C_2  and  C_3
REMARK    2  A    between atoms: C_4  and  C_5
REMARK    3  A    between atoms: C_11  and  C_12
REMARK    4  A    between atoms: N_16  and  N_17
REMARK    5  A    between atoms: N_17  and  S_18
REMARK    6  A    between atoms: S_18  and  C_21
REMARK    7  A    between atoms: C_27  and  O_28
REMARK                            x       y       z     vdW  Elec       q    Type
REMARK                         _______ _______ _______ _____ _____    ______ ____
ROOT
ATOM      1  C   UNL     1      -1.944  14.460  21.332  0.00  0.00    +0.000 A 
ATOM      2  C   UNL     1      -2.854  14.046  22.344  0.00  0.00    +0.000 A 
ATOM      3  C   UNL     1      -2.688  12.807  22.828  0.00  0.00    +0.000 A 
ATOM      4  C   UNL     1      -1.607  11.890  22.343  0.00  0.00    +0.000 A 
ATOM      5  O   UNL     1      -1.455  10.760  22.806  0.00  0.00    +0.000 OA
ATOM      6  N   UNL     1      -0.780  12.405  21.324  0.00  0.00    +0.000 N 
ATOM      7  C   UNL     1      -0.952  13.692  20.851  0.00  0.00    +0.000 A 
ENDROOT
BRANCH   2   8
ATOM      8  C   UNL     1      -3.917  14.932  22.878  0.00  0.00    +0.000 A 
ATOM      9  C   UNL     1      -3.676  15.719  24.013  0.00  0.00    +0.000 A 
ATOM     10  C   UNL     1      -4.692  16.517  24.542  0.00  0.00    +0.000 A 
ATOM     11  C   UNL     1      -5.948  16.538  23.941  0.00  0.00    +0.000 A 
ATOM     12  C   UNL     1      -6.190  15.771  22.802  0.00  0.00    +0.000 A 
ATOM     13  C   UNL     1      -5.178  14.971  22.267  0.00  0.00    +0.000 A 
ENDBRANCH   2   8
BRANCH   1  15
ATOM     14  N   UNL     1      -2.187  17.026  20.287  0.00  0.00    +0.000 NA
ATOM     15  C   UNL     1      -2.077  15.862  20.761  0.00  0.00    +0.000 C 
ENDBRANCH   1  15
BRANCH   3  16
ATOM     16  C   UNL     1      -3.641  12.369  23.928  0.00  0.00    +0.000 C 
ATOM     17  N   UNL     1      -4.431  12.006  24.842  0.00  0.00    +0.000 NA
ENDBRANCH   3  16
BRANCH   6  18
ATOM     18  N   UNL     1       0.306  11.483  20.867  0.00  0.00    +0.000 N 
ATOM     19  H   UNL     1       0.519  10.751  21.559  0.00  0.00    +0.000 HD
BRANCH  18  20
ATOM     20  S   UNL     1       0.375  10.939  19.260  0.00  0.00    +0.000 S 
ATOM     21  O   UNL     1      -0.974  10.684  18.821  0.00  0.00    +0.000 OA
ATOM     22  O   UNL     1       1.248  11.862  18.557  0.00  0.00    +0.000 OA
BRANCH  20  23
ATOM     23  C   UNL     1       1.240   9.397  19.373  0.00  0.00    +0.000 A 
ATOM     24  C   UNL     1       1.208   8.663  20.562  0.00  0.00    +0.000 A 
ATOM     25  C   UNL     1       1.809   7.404  20.605  0.00  0.00    +0.000 A 
ATOM     26  C   UNL     1       2.423   6.878  19.467  0.00  0.00    +0.000 A 
ATOM     27  C   UNL     1       2.433   7.604  18.276  0.00  0.00    +0.000 A 
ATOM     28  C   UNL     1       1.837   8.865  18.223  0.00  0.00    +0.000 A 
ENDBRANCH  20  23
ENDBRANCH  18  20
ENDBRANCH   6  18
BRANCH   7  29
ATOM     29  O   UNL     1      -0.094  14.233  19.926  0.00  0.00    +0.000 OA
ATOM     30  H   UNL     1       0.743  14.525  20.338  0.00  0.00    +0.000 HD
ENDBRANCH   7  29
TORSDOF 7
ENDMDL
