MODEL 1
REMARK VINA RESULT:      -8.4      0.000      0.000
REMARK  Name = 
REMARK  10 active torsions:
REMARK  status: ('A' for Active; 'I' for Inactive)
REMARK    1  A    between atoms: C_1  and  N_2
REMARK    2  A    between atoms: C_7  and  C_8
REMARK    3  A    between atoms: C_8  and  N_9
REMARK    4  A    between atoms: C_10  and  C_12
REMARK    5  A    between atoms: C_14  and  O_15
REMARK    6  A    between atoms: O_15  and  C_16
REMARK    7  A    between atoms: C_16  and  C_17
REMARK    8  A    between atoms: C_23  and  O_24
REMARK    9  A    between atoms: O_24  and  C_25
REMARK   10  A    between atoms: C_25  and  C_26
REMARK                            x       y       z     vdW  Elec       q    Type
REMARK                         _______ _______ _______ _____ _____    ______ ____
ROOT
ATOM      1  C   UNL     1       2.966   6.416  17.879  0.00  0.00    +0.000 A 
ATOM      2  C   UNL     1       1.989   5.410  18.024  0.00  0.00    +0.000 A 
ATOM      3  C   UNL     1       2.295   4.056  17.834  0.00  0.00    +0.000 A 
ATOM      4  C   UNL     1       3.575   3.686  17.439  0.00  0.00    +0.000 A 
ATOM      5  C   UNL     1       4.555   4.669  17.291  0.00  0.00    +0.000 A 
ATOM      6  C   UNL     1       4.280   6.023  17.555  0.00  0.00    +0.000 A 
ENDROOT
BRANCH   1   8
ATOM      7  N   UNL     1       1.861   8.206  19.166  0.00  0.00    +0.000 N 
ATOM      8  C   UNL     1       2.525   7.854  18.002  0.00  0.00    +0.000 C 
ATOM      9  O   UNL     1       2.761   8.661  17.120  0.00  0.00    +0.000 OA
ATOM     10  H   UNL     1       1.828   7.538  19.925  0.00  0.00    +0.000 HD
BRANCH   7  11
ATOM     11  C   UNL     1       1.463   9.584  19.493  0.00  0.00    +0.000 C 
BRANCH  11  18
ATOM     12  C   UNL     1      -0.902  11.656  19.405  0.00  0.00    +0.000 C 
ATOM     13  N   UNL     1      -0.207  11.159  20.610  0.00  0.00    +0.000 NA
ATOM     14  C   UNL     1      -1.139  11.393  21.738  0.00  0.00    +0.000 C 
ATOM     15  C   UNL     1      -0.763  10.725  23.051  0.00  0.00    +0.000 C 
ATOM     16  C   UNL     1      -0.531   9.246  22.825  0.00  0.00    +0.000 C 
ATOM     17  C   UNL     1       0.577   9.080  21.787  0.00  0.00    +0.000 C 
ATOM     18  C   UNL     1       0.216   9.733  20.437  0.00  0.00    +0.000 C 
ENDBRANCH  11  18
ENDBRANCH   7  11
ENDBRANCH   1   8
BRANCH   3  19
ATOM     19  O   UNL     1       1.273   3.184  18.085  0.00  0.00    +0.000 OA
BRANCH  19  20
ATOM     20  C   UNL     1       1.421   2.345  19.241  0.00  0.00    +0.000 C 
BRANCH  20  21
ATOM     21  C   UNL     1       1.267   3.150  20.527  0.00  0.00    +0.000 C 
ATOM     22  F   UNL     1       0.901   2.391  21.583  0.00  0.00    +0.000 F 
ATOM     23  F   UNL     1       2.435   3.756  20.848  0.00  0.00    +0.000 F 
ATOM     24  F   UNL     1       0.337   4.122  20.383  0.00  0.00    +0.000 F 
ENDBRANCH  20  21
ENDBRANCH  19  20
ENDBRANCH   3  19
BRANCH   6  25
ATOM     25  O   UNL     1       5.402   6.797  17.433  0.00  0.00    +0.000 OA
BRANCH  25  26
ATOM     26  C   UNL     1       6.634   6.106  17.182  0.00  0.00    +0.000 C 
BRANCH  26  27
ATOM     27  C   UNL     1       7.483   5.946  18.442  0.00  0.00    +0.000 C 
ATOM     28  F   UNL     1       8.317   6.985  18.660  0.00  0.00    +0.000 F 
ATOM     29  F   UNL     1       6.703   5.814  19.541  0.00  0.00    +0.000 F 
ATOM     30  F   UNL     1       8.249   4.828  18.366  0.00  0.00    +0.000 F 
ENDBRANCH  26  27
ENDBRANCH  25  26
ENDBRANCH   6  25
TORSDOF 9
ENDMDL
MODEL 2
REMARK VINA RESULT:      -8.3      2.116      4.842
REMARK  Name = 
REMARK  10 active torsions:
REMARK  status: ('A' for Active; 'I' for Inactive)
REMARK    1  A    between atoms: C_1  and  N_2
REMARK    2  A    between atoms: C_7  and  C_8
REMARK    3  A    between atoms: C_8  and  N_9
REMARK    4  A    between atoms: C_10  and  C_12
REMARK    5  A    between atoms: C_14  and  O_15
REMARK    6  A    between atoms: O_15  and  C_16
REMARK    7  A    between atoms: C_16  and  C_17
REMARK    8  A    between atoms: C_23  and  O_24
REMARK    9  A    between atoms: O_24  and  C_25
REMARK   10  A    between atoms: C_25  and  C_26
REMARK                            x       y       z     vdW  Elec       q    Type
REMARK                         _______ _______ _______ _____ _____    ______ ____
ROOT
ATOM      1  C   UNL     1       3.340   6.893  18.213  0.00  0.00    +0.000 A 
ATOM      2  C   UNL     1       4.391   6.719  17.291  0.00  0.00    +0.000 A 
ATOM      3  C   UNL     1       5.301   5.660  17.406  0.00  0.00    +0.000 A 
ATOM      4  C   UNL     1       5.211   4.785  18.481  0.00  0.00    +0.000 A 
ATOM      5  C   UNL     1       4.175   4.942  19.404  0.00  0.00    +0.000 A 
ATOM      6  C   UNL     1       3.209   5.954  19.256  0.00  0.00    +0.000 A 
ENDROOT
BRANCH   1   8
ATOM      7  N   UNL     1       1.713   8.476  19.176  0.00  0.00    +0.000 N 
ATOM      8  C   UNL     1       2.469   8.118  18.072  0.00  0.00    +0.000 C 
ATOM      9  O   UNL     1       2.454   8.762  17.038  0.00  0.00    +0.000 OA
ATOM     10  H   UNL     1       1.880   7.999  20.053  0.00  0.00    +0.000 HD
BRANCH   7  11
ATOM     11  C   UNL     1       0.899   9.700  19.246  0.00  0.00    +0.000 C 
BRANCH  11  18
ATOM     12  C   UNL     1      -1.107  11.988  20.041  0.00  0.00    +0.000 C 
ATOM     13  N   UNL     1      -0.319  11.144  20.962  0.00  0.00    +0.000 NA
ATOM     14  C   UNL     1      -1.020  11.208  22.266  0.00  0.00    +0.000 C 
ATOM     15  C   UNL     1      -0.554  10.210  23.313  0.00  0.00    +0.000 C 
ATOM     16  C   UNL     1      -0.587   8.810  22.737  0.00  0.00    +0.000 C 
ATOM     17  C   UNL     1       0.310   8.770  21.501  0.00  0.00    +0.000 C 
ATOM     18  C   UNL     1      -0.151   9.761  20.413  0.00  0.00    +0.000 C 
ENDBRANCH  11  18
ENDBRANCH   7  11
ENDBRANCH   1   8
BRANCH   3  19
ATOM     19  O   UNL     1       6.220   5.565  16.398  0.00  0.00    +0.000 OA
BRANCH  19  20
ATOM     20  C   UNL     1       5.703   5.595  15.059  0.00  0.00    +0.000 C 
BRANCH  20  21
ATOM     21  C   UNL     1       5.965   4.275  14.340  0.00  0.00    +0.000 C 
ATOM     22  F   UNL     1       6.077   3.228  15.185  0.00  0.00    +0.000 F 
ATOM     23  F   UNL     1       4.956   3.997  13.480  0.00  0.00    +0.000 F 
ATOM     24  F   UNL     1       7.105   4.336  13.613  0.00  0.00    +0.000 F 
ENDBRANCH  20  21
ENDBRANCH  19  20
ENDBRANCH   3  19
BRANCH   6  25
ATOM     25  O   UNL     1       2.241   5.869  20.219  0.00  0.00    +0.000 OA
BRANCH  25  26
ATOM     26  C   UNL     1       2.293   4.726  21.083  0.00  0.00    +0.000 C 
BRANCH  26  27
ATOM     27  C   UNL     1       1.298   3.639  20.677  0.00  0.00    +0.000 C 
ATOM     28  F   UNL     1       0.143   4.131  20.179  0.00  0.00    +0.000 F 
ATOM     29  F   UNL     1       1.829   2.819  19.740  0.00  0.00    +0.000 F 
ATOM     30  F   UNL     1       0.974   2.863  21.742  0.00  0.00    +0.000 F 
ENDBRANCH  26  27
ENDBRANCH  25  26
ENDBRANCH   6  25
TORSDOF 9
ENDMDL
MODEL 3
REMARK VINA RESULT:      -8.2      0.851      1.080
REMARK  Name = 
REMARK  10 active torsions:
REMARK  status: ('A' for Active; 'I' for Inactive)
REMARK    1  A    between atoms: C_1  and  N_2
REMARK    2  A    between atoms: C_7  and  C_8
REMARK    3  A    between atoms: C_8  and  N_9
REMARK    4  A    between atoms: C_10  and  C_12
REMARK    5  A    between atoms: C_14  and  O_15
REMARK    6  A    between atoms: O_15  and  C_16
REMARK    7  A    between atoms: C_16  and  C_17
REMARK    8  A    between atoms: C_23  and  O_24
REMARK    9  A    between atoms: O_24  and  C_25
REMARK   10  A    between atoms: C_25  and  C_26
REMARK                            x       y       z     vdW  Elec       q    Type
REMARK                         _______ _______ _______ _____ _____    ______ ____
ROOT
ATOM      1  C   UNL     1       3.163   6.184  17.798  0.00  0.00    +0.000 A 
ATOM      2  C   UNL     1       2.262   5.227  18.306  0.00  0.00    +0.000 A 
ATOM      3  C   UNL     1       2.514   3.853  18.200  0.00  0.00    +0.000 A 
ATOM      4  C   UNL     1       3.646   3.408  17.530  0.00  0.00    +0.000 A 
ATOM      5  C   UNL     1       4.550   4.342  17.021  0.00  0.00    +0.000 A 
ATOM      6  C   UNL     1       4.348   5.724  17.190  0.00  0.00    +0.000 A 
ENDROOT
BRANCH   1   8
ATOM      7  N   UNL     1       2.004   8.026  18.957  0.00  0.00    +0.000 N 
ATOM      8  C   UNL     1       2.764   7.639  17.865  0.00  0.00    +0.000 C 
ATOM      9  O   UNL     1       3.112   8.426  17.004  0.00  0.00    +0.000 OA
ATOM     10  H   UNL     1       1.875   7.369  19.715  0.00  0.00    +0.000 HD
BRANCH   7  11
ATOM     11  C   UNL     1       1.625   9.421  19.234  0.00  0.00    +0.000 C 
BRANCH  11  18
ATOM     12  C   UNL     1      -0.029  12.009  19.913  0.00  0.00    +0.000 C 
ATOM     13  N   UNL     1       0.439  10.983  20.867  0.00  0.00    +0.000 NA
ATOM     14  C   UNL     1      -0.432  11.114  22.058  0.00  0.00    +0.000 C 
ATOM     15  C   UNL     1      -0.323   9.993  23.080  0.00  0.00    +0.000 C 
ATOM     16  C   UNL     1      -0.521   8.656  22.395  0.00  0.00    +0.000 C 
ATOM     17  C   UNL     1       0.534   8.508  21.301  0.00  0.00    +0.000 C 
ATOM     18  C   UNL     1       0.436   9.623  20.240  0.00  0.00    +0.000 C 
ENDBRANCH  11  18
ENDBRANCH   7  11
ENDBRANCH   1   8
BRANCH   3  19
ATOM     19  O   UNL     1       1.597   3.040  18.806  0.00  0.00    +0.000 OA
BRANCH  19  20
ATOM     20  C   UNL     1       0.995   3.545  20.009  0.00  0.00    +0.000 C 
BRANCH  20  21
ATOM     21  C   UNL     1       1.810   3.152  21.237  0.00  0.00    +0.000 C 
ATOM     22  F   UNL     1       2.330   4.217  21.886  0.00  0.00    +0.000 F 
ATOM     23  F   UNL     1       1.039   2.475  22.120  0.00  0.00    +0.000 F 
ATOM     24  F   UNL     1       2.839   2.341  20.898  0.00  0.00    +0.000 F 
ENDBRANCH  20  21
ENDBRANCH  19  20
ENDBRANCH   3  19
BRANCH   6  25
ATOM     25  O   UNL     1       5.397   6.449  16.693  0.00  0.00    +0.000 OA
BRANCH  25  26
ATOM     26  C   UNL     1       6.206   7.146  17.649  0.00  0.00    +0.000 C 
BRANCH  26  27
ATOM     27  C   UNL     1       7.290   6.258  18.258  0.00  0.00    +0.000 C 
ATOM     28  F   UNL     1       8.368   6.948  18.687  0.00  0.00    +0.000 F 
ATOM     29  F   UNL     1       6.809   5.558  19.313  0.00  0.00    +0.000 F 
ATOM     30  F   UNL     1       7.732   5.350  17.351  0.00  0.00    +0.000 F 
ENDBRANCH  26  27
ENDBRANCH  25  26
ENDBRANCH   6  25
TORSDOF 9
ENDMDL
MODEL 4
REMARK VINA RESULT:      -8.2      2.018      4.785
REMARK  Name = 
REMARK  10 active torsions:
REMARK  status: ('A' for Active; 'I' for Inactive)
REMARK    1  A    between atoms: C_1  and  N_2
REMARK    2  A    between atoms: C_7  and  C_8
REMARK    3  A    between atoms: C_8  and  N_9
REMARK    4  A    between atoms: C_10  and  C_12
REMARK    5  A    between atoms: C_14  and  O_15
REMARK    6  A    between atoms: O_15  and  C_16
REMARK    7  A    between atoms: C_16  and  C_17
REMARK    8  A    between atoms: C_23  and  O_24
REMARK    9  A    between atoms: O_24  and  C_25
REMARK   10  A    between atoms: C_25  and  C_26
REMARK                            x       y       z     vdW  Elec       q    Type
REMARK                         _______ _______ _______ _____ _____    ______ ____
ROOT
ATOM      1  C   UNL     1       3.583   6.568  18.302  0.00  0.00    +0.000 A 
ATOM      2  C   UNL     1       4.752   6.414  17.530  0.00  0.00    +0.000 A 
ATOM      3  C   UNL     1       5.639   5.352  17.745  0.00  0.00    +0.000 A 
ATOM      4  C   UNL     1       5.402   4.452  18.777  0.00  0.00    +0.000 A 
ATOM      5  C   UNL     1       4.249   4.590  19.551  0.00  0.00    +0.000 A 
ATOM      6  C   UNL     1       3.311   5.606  19.295  0.00  0.00    +0.000 A 
ENDROOT
BRANCH   1   8
ATOM      7  N   UNL     1       1.983   8.247  19.142  0.00  0.00    +0.000 N 
ATOM      8  C   UNL     1       2.738   7.798  18.070  0.00  0.00    +0.000 C 
ATOM      9  O   UNL     1       2.741   8.369  16.994  0.00  0.00    +0.000 OA
ATOM     10  H   UNL     1       2.136   7.829  20.051  0.00  0.00    +0.000 HD
BRANCH   7  11
ATOM     11  C   UNL     1       1.195   9.489  19.121  0.00  0.00    +0.000 C 
BRANCH  11  18
ATOM     12  C   UNL     1      -0.603  11.952  19.894  0.00  0.00    +0.000 C 
ATOM     13  N   UNL     1       0.057  11.013  20.824  0.00  0.00    +0.000 NA
ATOM     14  C   UNL     1      -0.687  11.120  22.101  0.00  0.00    +0.000 C 
ATOM     15  C   UNL     1      -0.367  10.058  23.140  0.00  0.00    +0.000 C 
ATOM     16  C   UNL     1      -0.517   8.681  22.528  0.00  0.00    +0.000 C 
ATOM     17  C   UNL     1       0.422   8.576  21.328  0.00  0.00    +0.000 C 
ATOM     18  C   UNL     1       0.109   9.632  20.247  0.00  0.00    +0.000 C 
ENDBRANCH  11  18
ENDBRANCH   7  11
ENDBRANCH   1   8
BRANCH   3  19
ATOM     19  O   UNL     1       6.689   5.279  16.872  0.00  0.00    +0.000 OA
BRANCH  19  20
ATOM     20  C   UNL     1       6.388   5.532  15.491  0.00  0.00    +0.000 C 
BRANCH  20  21
ATOM     21  C   UNL     1       6.023   4.242  14.763  0.00  0.00    +0.000 C 
ATOM     22  F   UNL     1       6.779   4.023  13.666  0.00  0.00    +0.000 F 
ATOM     23  F   UNL     1       6.179   3.176  15.583  0.00  0.00    +0.000 F 
ATOM     24  F   UNL     1       4.729   4.257  14.368  0.00  0.00    +0.000 F 
ENDBRANCH  20  21
ENDBRANCH  19  20
ENDBRANCH   3  19
BRANCH   6  25
ATOM     25  O   UNL     1       2.219   5.500  20.112  0.00  0.00    +0.000 OA
BRANCH  25  26
ATOM     26  C   UNL     1       2.272   4.488  21.126  0.00  0.00    +0.000 C 
BRANCH  26  27
ATOM     27  C   UNL     1       1.348   3.309  20.826  0.00  0.00    +0.000 C 
ATOM     28  F   UNL     1       0.898   2.685  21.936  0.00  0.00    +0.000 F 
ATOM     29  F   UNL     1       0.265   3.708  20.117  0.00  0.00    +0.000 F 
ATOM     30  F   UNL     1       1.988   2.376  20.076  0.00  0.00    +0.000 F 
ENDBRANCH  26  27
ENDBRANCH  25  26
ENDBRANCH   6  25
TORSDOF 9
ENDMDL
MODEL 5
REMARK VINA RESULT:      -8.2      0.892      1.182
REMARK  Name = 
REMARK  10 active torsions:
REMARK  status: ('A' for Active; 'I' for Inactive)
REMARK    1  A    between atoms: C_1  and  N_2
REMARK    2  A    between atoms: C_7  and  C_8
REMARK    3  A    between atoms: C_8  and  N_9
REMARK    4  A    between atoms: C_10  and  C_12
REMARK    5  A    between atoms: C_14  and  O_15
REMARK    6  A    between atoms: O_15  and  C_16
REMARK    7  A    between atoms: C_16  and  C_17
REMARK    8  A    between atoms: C_23  and  O_24
REMARK    9  A    between atoms: O_24  and  C_25
REMARK   10  A    between atoms: C_25  and  C_26
REMARK                            x       y       z     vdW  Elec       q    Type
REMARK                         _______ _______ _______ _____ _____    ______ ____
ROOT
ATOM      1  C   UNL     1       2.896   6.252  17.973  0.00  0.00    +0.000 A 
ATOM      2  C   UNL     1       2.055   5.249  18.497  0.00  0.00    +0.000 A 
ATOM      3  C   UNL     1       2.335   3.888  18.318  0.00  0.00    +0.000 A 
ATOM      4  C   UNL     1       3.433   3.503  17.560  0.00  0.00    +0.000 A 
ATOM      5  C   UNL     1       4.277   4.483  17.033  0.00  0.00    +0.000 A 
ATOM      6  C   UNL     1       4.050   5.851  17.271  0.00  0.00    +0.000 A 
ENDROOT
BRANCH   1   8
ATOM      7  N   UNL     1       1.916   8.050  19.347  0.00  0.00    +0.000 N 
ATOM      8  C   UNL     1       2.463   7.690  18.126  0.00  0.00    +0.000 C 
ATOM      9  O   UNL     1       2.607   8.490  17.218  0.00  0.00    +0.000 OA
ATOM     10  H   UNL     1       1.962   7.389  20.111  0.00  0.00    +0.000 HD
BRANCH   7  11
ATOM     11  C   UNL     1       1.547   9.430  19.700  0.00  0.00    +0.000 C 
BRANCH  11  18
ATOM     12  C   UNL     1      -1.050  11.150  19.267  0.00  0.00    +0.000 C 
ATOM     13  N   UNL     1      -0.317  10.961  20.535  0.00  0.00    +0.000 NA
ATOM     14  C   UNL     1      -1.285  11.275  21.611  0.00  0.00    +0.000 C 
ATOM     15  C   UNL     1      -0.850  10.899  23.018  0.00  0.00    +0.000 C 
ATOM     16  C   UNL     1      -0.436   9.443  23.055  0.00  0.00    +0.000 C 
ATOM     17  C   UNL     1       0.698   9.233  22.053  0.00  0.00    +0.000 C 
ATOM     18  C   UNL     1       0.278   9.589  20.612  0.00  0.00    +0.000 C 
ENDBRANCH  11  18
ENDBRANCH   7  11
ENDBRANCH   1   8
BRANCH   3  19
ATOM     19  O   UNL     1       1.481   3.026  18.948  0.00  0.00    +0.000 OA
BRANCH  19  20
ATOM     20  C   UNL     1       0.912   3.483  20.184  0.00  0.00    +0.000 C 
BRANCH  20  21
ATOM     21  C   UNL     1       1.768   3.061  21.373  0.00  0.00    +0.000 C 
ATOM     22  F   UNL     1       1.072   2.383  22.310  0.00  0.00    +0.000 F 
ATOM     23  F   UNL     1       2.783   2.263  20.965  0.00  0.00    +0.000 F 
ATOM     24  F   UNL     1       2.323   4.137  21.979  0.00  0.00    +0.000 F 
ENDBRANCH  20  21
ENDBRANCH  19  20
ENDBRANCH   3  19
BRANCH   6  25
ATOM     25  O   UNL     1       5.044   6.625  16.739  0.00  0.00    +0.000 OA
BRANCH  25  26
ATOM     26  C   UNL     1       5.951   7.234  17.667  0.00  0.00    +0.000 C 
BRANCH  26  27
ATOM     27  C   UNL     1       7.404   6.830  17.419  0.00  0.00    +0.000 C 
ATOM     28  F   UNL     1       7.565   6.065  16.318  0.00  0.00    +0.000 F 
ATOM     29  F   UNL     1       8.195   7.920  17.277  0.00  0.00    +0.000 F 
ATOM     30  F   UNL     1       7.891   6.124  18.470  0.00  0.00    +0.000 F 
ENDBRANCH  26  27
ENDBRANCH  25  26
ENDBRANCH   6  25
TORSDOF 9
ENDMDL
MODEL 6
REMARK VINA RESULT:      -8.1      1.739      5.012
REMARK  Name = 
REMARK  10 active torsions:
REMARK  status: ('A' for Active; 'I' for Inactive)
REMARK    1  A    between atoms: C_1  and  N_2
REMARK    2  A    between atoms: C_7  and  C_8
REMARK    3  A    between atoms: C_8  and  N_9
REMARK    4  A    between atoms: C_10  and  C_12
REMARK    5  A    between atoms: C_14  and  O_15
REMARK    6  A    between atoms: O_15  and  C_16
REMARK    7  A    between atoms: C_16  and  C_17
REMARK    8  A    between atoms: C_23  and  O_24
REMARK    9  A    between atoms: O_24  and  C_25
REMARK   10  A    between atoms: C_25  and  C_26
REMARK                            x       y       z     vdW  Elec       q    Type
REMARK                         _______ _______ _______ _____ _____    ______ ____
ROOT
ATOM      1  C   UNL     1       3.086   6.254  18.153  0.00  0.00    +0.000 A 
ATOM      2  C   UNL     1       4.343   6.674  17.673  0.00  0.00    +0.000 A 
ATOM      3  C   UNL     1       5.139   5.844  16.874  0.00  0.00    +0.000 A 
ATOM      4  C   UNL     1       4.717   4.553  16.585  0.00  0.00    +0.000 A 
ATOM      5  C   UNL     1       3.475   4.119  17.051  0.00  0.00    +0.000 A 
ATOM      6  C   UNL     1       2.632   4.970  17.790  0.00  0.00    +0.000 A 
ENDROOT
BRANCH   1   8
ATOM      7  N   UNL     1       1.966   8.407  18.587  0.00  0.00    +0.000 N 
ATOM      8  C   UNL     1       2.342   7.173  19.091  0.00  0.00    +0.000 C 
ATOM      9  O   UNL     1       2.077   6.828  20.229  0.00  0.00    +0.000 OA
ATOM     10  H   UNL     1       2.075   8.579  17.596  0.00  0.00    +0.000 HD
BRANCH   7  11
ATOM     11  C   UNL     1       1.142   9.375  19.328  0.00  0.00    +0.000 C 
BRANCH  11  18
ATOM     12  C   UNL     1       2.033  12.307  18.621  0.00  0.00    +0.000 C 
ATOM     13  N   UNL     1       0.669  11.856  18.964  0.00  0.00    +0.000 NA
ATOM     14  C   UNL     1      -0.245  12.884  18.413  0.00  0.00    +0.000 C 
ATOM     15  C   UNL     1      -1.720  12.517  18.404  0.00  0.00    +0.000 C 
ATOM     16  C   UNL     1      -1.911  11.182  17.714  0.00  0.00    +0.000 C 
ATOM     17  C   UNL     1      -1.086  10.129  18.453  0.00  0.00    +0.000 C 
ATOM     18  C   UNL     1       0.419  10.468  18.462  0.00  0.00    +0.000 C 
ENDBRANCH  11  18
ENDBRANCH   7  11
ENDBRANCH   1   8
BRANCH   3  19
ATOM     19  O   UNL     1       6.295   6.409  16.412  0.00  0.00    +0.000 OA
BRANCH  19  20
ATOM     20  C   UNL     1       7.076   7.138  17.372  0.00  0.00    +0.000 C 
BRANCH  20  21
ATOM     21  C   UNL     1       7.669   6.204  18.421  0.00  0.00    +0.000 C 
ATOM     22  F   UNL     1       8.098   5.033  17.901  0.00  0.00    +0.000 F 
ATOM     23  F   UNL     1       8.727   6.789  19.031  0.00  0.00    +0.000 F 
ATOM     24  F   UNL     1       6.763   5.914  19.382  0.00  0.00    +0.000 F 
ENDBRANCH  20  21
ENDBRANCH  19  20
ENDBRANCH   3  19
BRANCH   6  25
ATOM     25  O   UNL     1       1.433   4.372  18.066  0.00  0.00    +0.000 OA
BRANCH  25  26
ATOM     26  C   UNL     1       1.482   3.147  18.810  0.00  0.00    +0.000 C 
BRANCH  26  27
ATOM     27  C   UNL     1       1.465   3.378  20.321  0.00  0.00    +0.000 C 
ATOM     28  F   UNL     1       2.650   3.799  20.811  0.00  0.00    +0.000 F 
ATOM     29  F   UNL     1       0.533   4.301  20.661  0.00  0.00    +0.000 F 
ATOM     30  F   UNL     1       1.145   2.234  20.977  0.00  0.00    +0.000 F 
ENDBRANCH  26  27
ENDBRANCH  25  26
ENDBRANCH   6  25
TORSDOF 9
ENDMDL
MODEL 7
REMARK VINA RESULT:      -8.1      1.644      1.932
REMARK  Name = 
REMARK  10 active torsions:
REMARK  status: ('A' for Active; 'I' for Inactive)
REMARK    1  A    between atoms: C_1  and  N_2
REMARK    2  A    between atoms: C_7  and  C_8
REMARK    3  A    between atoms: C_8  and  N_9
REMARK    4  A    between atoms: C_10  and  C_12
REMARK    5  A    between atoms: C_14  and  O_15
REMARK    6  A    between atoms: O_15  and  C_16
REMARK    7  A    between atoms: C_16  and  C_17
REMARK    8  A    between atoms: C_23  and  O_24
REMARK    9  A    between atoms: O_24  and  C_25
REMARK   10  A    between atoms: C_25  and  C_26
REMARK                            x       y       z     vdW  Elec       q    Type
REMARK                         _______ _______ _______ _____ _____    ______ ____
ROOT
ATOM      1  C   UNL     1       3.195   5.702  17.888  0.00  0.00    +0.000 A 
ATOM      2  C   UNL     1       2.191   4.875  18.433  0.00  0.00    +0.000 A 
ATOM      3  C   UNL     1       2.231   3.482  18.294  0.00  0.00    +0.000 A 
ATOM      4  C   UNL     1       3.248   2.891  17.555  0.00  0.00    +0.000 A 
ATOM      5  C   UNL     1       4.251   3.694  17.008  0.00  0.00    +0.000 A 
ATOM      6  C   UNL     1       4.265   5.086  17.208  0.00  0.00    +0.000 A 
ENDROOT
BRANCH   1   8
ATOM      7  N   UNL     1       2.008   7.646  18.832  0.00  0.00    +0.000 N 
ATOM      8  C   UNL     1       3.019   7.197  17.998  0.00  0.00    +0.000 C 
ATOM      9  O   UNL     1       3.747   7.962  17.391  0.00  0.00    +0.000 OA
ATOM     10  H   UNL     1       1.538   6.976  19.428  0.00  0.00    +0.000 HD
BRANCH   7  11
ATOM     11  C   UNL     1       1.773   9.065  19.139  0.00  0.00    +0.000 C 
BRANCH  11  18
ATOM     12  C   UNL     1      -0.204  11.512  19.101  0.00  0.00    +0.000 C 
ATOM     13  N   UNL     1       0.349  10.841  20.295  0.00  0.00    +0.000 NA
ATOM     14  C   UNL     1      -0.574  11.171  21.406  0.00  0.00    +0.000 C 
ATOM     15  C   UNL     1      -0.368  10.381  22.689  0.00  0.00    +0.000 C 
ATOM     16  C   UNL     1      -0.380   8.898  22.383  0.00  0.00    +0.000 C 
ATOM     17  C   UNL     1       0.725   8.600  21.371  0.00  0.00    +0.000 C 
ATOM     18  C   UNL     1       0.532   9.375  20.051  0.00  0.00    +0.000 C 
ENDBRANCH  11  18
ENDBRANCH   7  11
ENDBRANCH   1   8
BRANCH   3  19
ATOM     19  O   UNL     1       1.238   2.800  18.940  0.00  0.00    +0.000 OA
BRANCH  19  20
ATOM     20  C   UNL     1       0.749   3.386  20.156  0.00  0.00    +0.000 C 
BRANCH  20  21
ATOM     21  C   UNL     1       1.633   3.012  21.341  0.00  0.00    +0.000 C 
ATOM     22  F   UNL     1       0.948   2.414  22.340  0.00  0.00    +0.000 F 
ATOM     23  F   UNL     1       2.610   2.159  20.951  0.00  0.00    +0.000 F 
ATOM     24  F   UNL     1       2.238   4.105  21.860  0.00  0.00    +0.000 F 
ENDBRANCH  20  21
ENDBRANCH  19  20
ENDBRANCH   3  19
BRANCH   6  25
ATOM     25  O   UNL     1       5.380   5.661  16.662  0.00  0.00    +0.000 OA
BRANCH  25  26
ATOM     26  C   UNL     1       5.546   5.524  15.245  0.00  0.00    +0.000 C 
BRANCH  26  27
ATOM     27  C   UNL     1       6.766   4.683  14.875  0.00  0.00    +0.000 C 
ATOM     28  F   UNL     1       7.534   5.245  13.918  0.00  0.00    +0.000 F 
ATOM     29  F   UNL     1       7.555   4.470  15.955  0.00  0.00    +0.000 F 
ATOM     30  F   UNL     1       6.387   3.463  14.418  0.00  0.00    +0.000 F 
ENDBRANCH  26  27
ENDBRANCH  25  26
ENDBRANCH   6  25
TORSDOF 9
ENDMDL
MODEL 8
REMARK VINA RESULT:      -8.1      1.724      2.190
REMARK  Name = 
REMARK  10 active torsions:
REMARK  status: ('A' for Active; 'I' for Inactive)
REMARK    1  A    between atoms: C_1  and  N_2
REMARK    2  A    between atoms: C_7  and  C_8
REMARK    3  A    between atoms: C_8  and  N_9
REMARK    4  A    between atoms: C_10  and  C_12
REMARK    5  A    between atoms: C_14  and  O_15
REMARK    6  A    between atoms: O_15  and  C_16
REMARK    7  A    between atoms: C_16  and  C_17
REMARK    8  A    between atoms: C_23  and  O_24
REMARK    9  A    between atoms: O_24  and  C_25
REMARK   10  A    between atoms: C_25  and  C_26
REMARK                            x       y       z     vdW  Elec       q    Type
REMARK                         _______ _______ _______ _____ _____    ______ ____
ROOT
ATOM      1  C   UNL     1       3.211   5.742  17.867  0.00  0.00    +0.000 A 
ATOM      2  C   UNL     1       2.180   4.958  18.423  0.00  0.00    +0.000 A 
ATOM      3  C   UNL     1       2.176   3.562  18.307  0.00  0.00    +0.000 A 
ATOM      4  C   UNL     1       3.176   2.926  17.583  0.00  0.00    +0.000 A 
ATOM      5  C   UNL     1       4.205   3.687  17.026  0.00  0.00    +0.000 A 
ATOM      6  C   UNL     1       4.262   5.082  17.201  0.00  0.00    +0.000 A 
ENDROOT
BRANCH   1   8
ATOM      7  N   UNL     1       1.971   7.738  18.615  0.00  0.00    +0.000 N 
ATOM      8  C   UNL     1       3.082   7.244  17.951  0.00  0.00    +0.000 C 
ATOM      9  O   UNL     1       3.927   7.975  17.468  0.00  0.00    +0.000 OA
ATOM     10  H   UNL     1       1.385   7.091  19.127  0.00  0.00    +0.000 HD
BRANCH   7  11
ATOM     11  C   UNL     1       1.749   9.168  18.883  0.00  0.00    +0.000 C 
BRANCH  11  18
ATOM     12  C   UNL     1       0.215  11.870  19.370  0.00  0.00    +0.000 C 
ATOM     13  N   UNL     1       0.672  10.915  20.400  0.00  0.00    +0.000 NA
ATOM     14  C   UNL     1      -0.159  11.186  21.597  0.00  0.00    +0.000 C 
ATOM     15  C   UNL     1      -0.063  10.156  22.711  0.00  0.00    +0.000 C 
ATOM     16  C   UNL     1      -0.332   8.773  22.154  0.00  0.00    +0.000 C 
ATOM     17  C   UNL     1       0.685   8.486  21.051  0.00  0.00    +0.000 C 
ATOM     18  C   UNL     1       0.598   9.506  19.897  0.00  0.00    +0.000 C 
ENDBRANCH  11  18
ENDBRANCH   7  11
ENDBRANCH   1   8
BRANCH   3  19
ATOM     19  O   UNL     1       1.160   2.923  18.962  0.00  0.00    +0.000 OA
BRANCH  19  20
ATOM     20  C   UNL     1       0.745   3.497  20.210  0.00  0.00    +0.000 C 
BRANCH  20  21
ATOM     21  C   UNL     1       1.656   3.053  21.349  0.00  0.00    +0.000 C 
ATOM     22  F   UNL     1       2.297   4.083  21.944  0.00  0.00    +0.000 F 
ATOM     23  F   UNL     1       0.941   2.414  22.305  0.00  0.00    +0.000 F 
ATOM     24  F   UNL     1       2.599   2.189  20.909  0.00  0.00    +0.000 F 
ENDBRANCH  20  21
ENDBRANCH  19  20
ENDBRANCH   3  19
BRANCH   6  25
ATOM     25  O   UNL     1       5.397   5.611  16.650  0.00  0.00    +0.000 OA
BRANCH  25  26
ATOM     26  C   UNL     1       5.516   5.532  15.223  0.00  0.00    +0.000 C 
BRANCH  26  27
ATOM     27  C   UNL     1       6.666   4.628  14.781  0.00  0.00    +0.000 C 
ATOM     28  F   UNL     1       6.256   3.423  14.329  0.00  0.00    +0.000 F 
ATOM     29  F   UNL     1       7.387   5.208  13.792  0.00  0.00    +0.000 F 
ATOM     30  F   UNL     1       7.520   4.400  15.810  0.00  0.00    +0.000 F 
ENDBRANCH  26  27
ENDBRANCH  25  26
ENDBRANCH   6  25
TORSDOF 9
ENDMDL
MODEL 9
REMARK VINA RESULT:      -8.1      0.989      1.435
REMARK  Name = 
REMARK  10 active torsions:
REMARK  status: ('A' for Active; 'I' for Inactive)
REMARK    1  A    between atoms: C_1  and  N_2
REMARK    2  A    between atoms: C_7  and  C_8
REMARK    3  A    between atoms: C_8  and  N_9
REMARK    4  A    between atoms: C_10  and  C_12
REMARK    5  A    between atoms: C_14  and  O_15
REMARK    6  A    between atoms: O_15  and  C_16
REMARK    7  A    between atoms: C_16  and  C_17
REMARK    8  A    between atoms: C_23  and  O_24
REMARK    9  A    between atoms: O_24  and  C_25
REMARK   10  A    between atoms: C_25  and  C_26
REMARK                            x       y       z     vdW  Elec       q    Type
REMARK                         _______ _______ _______ _____ _____    ______ ____
ROOT
ATOM      1  C   UNL     1       2.865   6.413  18.104  0.00  0.00    +0.000 A 
ATOM      2  C   UNL     1       1.954   5.383  18.413  0.00  0.00    +0.000 A 
ATOM      3  C   UNL     1       2.307   4.032  18.300  0.00  0.00    +0.000 A 
ATOM      4  C   UNL     1       3.562   3.684  17.819  0.00  0.00    +0.000 A 
ATOM      5  C   UNL     1       4.477   4.691  17.508  0.00  0.00    +0.000 A 
ATOM      6  C   UNL     1       4.162   6.050  17.691  0.00  0.00    +0.000 A 
ENDROOT
BRANCH   1   8
ATOM      7  N   UNL     1       1.793   8.254  19.346  0.00  0.00    +0.000 N 
ATOM      8  C   UNL     1       2.368   7.837  18.156  0.00  0.00    +0.000 C 
ATOM      9  O   UNL     1       2.486   8.580  17.198  0.00  0.00    +0.000 OA
ATOM     10  H   UNL     1       1.859   7.648  20.154  0.00  0.00    +0.000 HD
BRANCH   7  11
ATOM     11  C   UNL     1       1.359   9.636  19.603  0.00  0.00    +0.000 C 
BRANCH  11  18
ATOM     12  C   UNL     1      -1.256  11.343  19.229  0.00  0.00    +0.000 C 
ATOM     13  N   UNL     1      -0.483  11.171  20.476  0.00  0.00    +0.000 NA
ATOM     14  C   UNL     1      -1.420  11.494  21.578  0.00  0.00    +0.000 C 
ATOM     15  C   UNL     1      -0.940  11.137  22.976  0.00  0.00    +0.000 C 
ATOM     16  C   UNL     1      -0.521   9.682  23.016  0.00  0.00    +0.000 C 
ATOM     17  C   UNL     1       0.583   9.464  21.983  0.00  0.00    +0.000 C 
ATOM     18  C   UNL     1       0.118   9.802  20.551  0.00  0.00    +0.000 C 
ENDBRANCH  11  18
ENDBRANCH   7  11
ENDBRANCH   1   8
BRANCH   3  19
ATOM     19  O   UNL     1       1.354   3.141  18.709  0.00  0.00    +0.000 OA
BRANCH  19  20
ATOM     20  C   UNL     1       0.751   3.395  19.987  0.00  0.00    +0.000 C 
BRANCH  20  21
ATOM     21  C   UNL     1       1.716   3.073  21.123  0.00  0.00    +0.000 C 
ATOM     22  F   UNL     1       2.350   4.166  21.601  0.00  0.00    +0.000 F 
ATOM     23  F   UNL     1       1.054   2.503  22.158  0.00  0.00    +0.000 F 
ATOM     24  F   UNL     1       2.664   2.196  20.722  0.00  0.00    +0.000 F 
ENDBRANCH  20  21
ENDBRANCH  19  20
ENDBRANCH   3  19
BRANCH   6  25
ATOM     25  O   UNL     1       5.231   6.856  17.410  0.00  0.00    +0.000 OA
BRANCH  25  26
ATOM     26  C   UNL     1       6.494   6.467  17.967  0.00  0.00    +0.000 C 
BRANCH  26  27
ATOM     27  C   UNL     1       7.588   7.504  17.719  0.00  0.00    +0.000 C 
ATOM     28  F   UNL     1       8.598   7.441  18.613  0.00  0.00    +0.000 F 
ATOM     29  F   UNL     1       8.129   7.356  16.486  0.00  0.00    +0.000 F 
ATOM     30  F   UNL     1       7.081   8.761  17.778  0.00  0.00    +0.000 F 
ENDBRANCH  26  27
ENDBRANCH  25  26
ENDBRANCH   6  25
TORSDOF 9
ENDMDL
