MODEL 1
REMARK VINA RESULT:      -8.1      0.000      0.000
REMARK  Name = 
REMARK  11 active torsions:
REMARK  status: ('A' for Active; 'I' for Inactive)
REMARK    1  A    between atoms: C_1  and  C_2
REMARK    2  A    between atoms: C_5  and  N_6
REMARK    3  A    between atoms: N_9  and  C_10
REMARK    4  A    between atoms: C_13  and  O_14
REMARK    5  A    between atoms: O_14  and  C_15
REMARK    6  A    between atoms: C_21  and  O_22
REMARK    7  A    between atoms: O_22  and  C_23
REMARK    8  A    between atoms: C_28  and  C_29
REMARK    9  A    between atoms: C_29  and  C_30
REMARK   10  A    between atoms: C_29  and  C_31
REMARK   11  A    between atoms: C_29  and  C_32
REMARK                            x       y       z     vdW  Elec       q    Type
REMARK                         _______ _______ _______ _____ _____    ______ ____
ROOT
ATOM      1  C   UNL     1       5.099   3.844  12.726  0.00  0.00    +0.000 C 
ATOM      2  C   UNL     1       5.613   4.285  14.067  0.00  0.00    +0.000 A 
ATOM      3  C   UNL     1       6.989   4.384  14.302  0.00  0.00    +0.000 A 
ATOM      4  C   UNL     1       7.468   4.697  15.576  0.00  0.00    +0.000 A 
ATOM      5  C   UNL     1       6.581   4.934  16.629  0.00  0.00    +0.000 A 
ATOM      6  C   UNL     1       5.201   4.791  16.415  0.00  0.00    +0.000 A 
ATOM      7  C   UNL     1       4.720   4.483  15.133  0.00  0.00    +0.000 A 
ENDROOT
BRANCH   5   8
ATOM      8  N   UNL     1       7.140   5.186  17.898  0.00  0.00    +0.000 N 
ATOM      9  C   UNL     1       7.644   6.360  18.398  0.00  0.00    +0.000 C 
ATOM     10  O   UNL     1       8.278   6.305  19.454  0.00  0.00    +0.000 OA
ATOM     11  N   UNL     1       7.466   7.493  17.657  0.00  0.00    +0.000 N 
ATOM     12  H   UNL     1       7.568   4.402  18.376  0.00  0.00    +0.000 HD
ATOM     13  H   UNL     1       6.588   7.516  17.163  0.00  0.00    +0.000 HD
BRANCH  11  14
ATOM     14  C   UNL     1       8.042   8.744  17.982  0.00  0.00    +0.000 A 
ATOM     15  C   UNL     1       7.785   9.906  17.266  0.00  0.00    +0.000 A 
ATOM     16  C   UNL     1       8.371  11.122  17.654  0.00  0.00    +0.000 A 
ATOM     17  C   UNL     1       9.214  11.179  18.765  0.00  0.00    +0.000 A 
ATOM     18  C   UNL     1       9.507  10.008  19.448  0.00  0.00    +0.000 A 
ATOM     19  C   UNL     1       8.886   8.803  19.091  0.00  0.00    +0.000 A 
BRANCH  17  20
ATOM     20  O   UNL     1       9.725  12.414  19.036  0.00  0.00    +0.000 OA
BRANCH  20  21
ATOM     21  C   UNL     1      11.111  12.673  18.826  0.00  0.00    +0.000 C 
ATOM     22  F   UNL     1      11.415  13.972  18.606  0.00  0.00    +0.000 F 
ATOM     23  F   UNL     1      11.810  12.245  19.898  0.00  0.00    +0.000 F 
ATOM     24  F   UNL     1      11.521  11.972  17.750  0.00  0.00    +0.000 F 
ENDBRANCH  20  21
ENDBRANCH  17  20
ENDBRANCH  11  14
ENDBRANCH   5   8
BRANCH   6  25
ATOM     25  O   UNL     1       4.408   4.728  17.544  0.00  0.00    +0.000 OA
BRANCH  25  26
ATOM     26  C   UNL     1       3.582   5.766  17.907  0.00  0.00    +0.000 A 
ATOM     27  C   UNL     1       3.866   7.074  17.478  0.00  0.00    +0.000 A 
ATOM     28  C   UNL     1       3.122   8.150  17.944  0.00  0.00    +0.000 A 
ATOM     29  C   UNL     1       2.081   7.922  18.829  0.00  0.00    +0.000 A 
ATOM     30  C   UNL     1       1.790   6.624  19.261  0.00  0.00    +0.000 A 
ATOM     31  C   UNL     1       2.548   5.507  18.845  0.00  0.00    +0.000 A 
BRANCH  31  32
ATOM     32  C   UNL     1       2.262   4.101  19.437  0.00  0.00    +0.000 C 
ATOM     33  C   UNL     1       3.540   3.353  19.916  0.00  0.00    +0.000 C 
ATOM     34  C   UNL     1       1.337   4.200  20.670  0.00  0.00    +0.000 C 
ATOM     35  C   UNL     1       1.615   3.174  18.383  0.00  0.00    +0.000 C 
ENDBRANCH  31  32
ENDBRANCH  25  26
ENDBRANCH   6  25
TORSDOF 7
ENDMDL
MODEL 2
REMARK VINA RESULT:      -8.0      1.055      1.486
REMARK  Name = 
REMARK  11 active torsions:
REMARK  status: ('A' for Active; 'I' for Inactive)
REMARK    1  A    between atoms: C_1  and  C_2
REMARK    2  A    between atoms: C_5  and  N_6
REMARK    3  A    between atoms: N_9  and  C_10
REMARK    4  A    between atoms: C_13  and  O_14
REMARK    5  A    between atoms: O_14  and  C_15
REMARK    6  A    between atoms: C_21  and  O_22
REMARK    7  A    between atoms: O_22  and  C_23
REMARK    8  A    between atoms: C_28  and  C_29
REMARK    9  A    between atoms: C_29  and  C_30
REMARK   10  A    between atoms: C_29  and  C_31
REMARK   11  A    between atoms: C_29  and  C_32
REMARK                            x       y       z     vdW  Elec       q    Type
REMARK                         _______ _______ _______ _____ _____    ______ ____
ROOT
ATOM      1  C   UNL     1       5.431   3.750  12.604  0.00  0.00    +0.000 C 
ATOM      2  C   UNL     1       5.831   4.196  13.981  0.00  0.00    +0.000 A 
ATOM      3  C   UNL     1       7.149   4.584  14.246  0.00  0.00    +0.000 A 
ATOM      4  C   UNL     1       7.545   4.902  15.547  0.00  0.00    +0.000 A 
ATOM      5  C   UNL     1       6.627   4.857  16.599  0.00  0.00    +0.000 A 
ATOM      6  C   UNL     1       5.314   4.425  16.352  0.00  0.00    +0.000 A 
ATOM      7  C   UNL     1       4.916   4.111  15.044  0.00  0.00    +0.000 A 
ENDROOT
BRANCH   5   8
ATOM      8  N   UNL     1       7.114   5.134  17.893  0.00  0.00    +0.000 N 
ATOM      9  C   UNL     1       7.585   6.320  18.398  0.00  0.00    +0.000 C 
ATOM     10  O   UNL     1       8.160   6.287  19.488  0.00  0.00    +0.000 OA
ATOM     11  N   UNL     1       7.443   7.439  17.628  0.00  0.00    +0.000 N 
ATOM     12  H   UNL     1       7.519   4.362  18.407  0.00  0.00    +0.000 HD
ATOM     13  H   UNL     1       6.593   7.448  17.086  0.00  0.00    +0.000 HD
BRANCH  11  14
ATOM     14  C   UNL     1       7.995   8.698  17.962  0.00  0.00    +0.000 A 
ATOM     15  C   UNL     1       7.639   9.877  17.317  0.00  0.00    +0.000 A 
ATOM     16  C   UNL     1       8.208  11.099  17.711  0.00  0.00    +0.000 A 
ATOM     17  C   UNL     1       9.131  11.146  18.756  0.00  0.00    +0.000 A 
ATOM     18  C   UNL     1       9.520   9.961  19.365  0.00  0.00    +0.000 A 
ATOM     19  C   UNL     1       8.920   8.748  19.005  0.00  0.00    +0.000 A 
BRANCH  17  20
ATOM     20  O   UNL     1       9.614  12.390  19.041  0.00  0.00    +0.000 OA
BRANCH  20  21
ATOM     21  C   UNL     1       9.659  12.844  20.392  0.00  0.00    +0.000 C 
ATOM     22  F   UNL     1      10.692  12.356  21.116  0.00  0.00    +0.000 F 
ATOM     23  F   UNL     1       9.726  14.191  20.405  0.00  0.00    +0.000 F 
ATOM     24  F   UNL     1       8.519  12.473  21.008  0.00  0.00    +0.000 F 
ENDBRANCH  20  21
ENDBRANCH  17  20
ENDBRANCH  11  14
ENDBRANCH   5   8
BRANCH   6  25
ATOM     25  O   UNL     1       4.555   4.103  17.460  0.00  0.00    +0.000 OA
BRANCH  25  26
ATOM     26  C   UNL     1       3.732   5.025  18.066  0.00  0.00    +0.000 A 
ATOM     27  C   UNL     1       3.770   6.371  17.664  0.00  0.00    +0.000 A 
ATOM     28  C   UNL     1       3.047   7.337  18.353  0.00  0.00    +0.000 A 
ATOM     29  C   UNL     1       2.271   6.958  19.437  0.00  0.00    +0.000 A 
ATOM     30  C   UNL     1       2.227   5.620  19.843  0.00  0.00    +0.000 A 
ATOM     31  C   UNL     1       2.979   4.614  19.196  0.00  0.00    +0.000 A 
BRANCH  31  32
ATOM     32  C   UNL     1       2.988   3.164  19.751  0.00  0.00    +0.000 C 
ATOM     33  C   UNL     1       2.325   3.026  21.152  0.00  0.00    +0.000 C 
ATOM     34  C   UNL     1       2.212   2.212  18.814  0.00  0.00    +0.000 C 
ATOM     35  C   UNL     1       4.433   2.645  19.927  0.00  0.00    +0.000 C 
ENDBRANCH  31  32
ENDBRANCH  25  26
ENDBRANCH   6  25
TORSDOF 7
ENDMDL
MODEL 3
REMARK VINA RESULT:      -8.0      0.905      1.335
REMARK  Name = 
REMARK  11 active torsions:
REMARK  status: ('A' for Active; 'I' for Inactive)
REMARK    1  A    between atoms: C_1  and  C_2
REMARK    2  A    between atoms: C_5  and  N_6
REMARK    3  A    between atoms: N_9  and  C_10
REMARK    4  A    between atoms: C_13  and  O_14
REMARK    5  A    between atoms: O_14  and  C_15
REMARK    6  A    between atoms: C_21  and  O_22
REMARK    7  A    between atoms: O_22  and  C_23
REMARK    8  A    between atoms: C_28  and  C_29
REMARK    9  A    between atoms: C_29  and  C_30
REMARK   10  A    between atoms: C_29  and  C_31
REMARK   11  A    between atoms: C_29  and  C_32
REMARK                            x       y       z     vdW  Elec       q    Type
REMARK                         _______ _______ _______ _____ _____    ______ ____
ROOT
ATOM      1  C   UNL     1       5.249   3.785  12.761  0.00  0.00    +0.000 C 
ATOM      2  C   UNL     1       5.706   4.209  14.128  0.00  0.00    +0.000 A 
ATOM      3  C   UNL     1       7.050   4.525  14.360  0.00  0.00    +0.000 A 
ATOM      4  C   UNL     1       7.494   4.821  15.651  0.00  0.00    +0.000 A 
ATOM      5  C   UNL     1       6.600   4.826  16.725  0.00  0.00    +0.000 A 
ATOM      6  C   UNL     1       5.260   4.465  16.510  0.00  0.00    +0.000 A 
ATOM      7  C   UNL     1       4.814   4.173  15.212  0.00  0.00    +0.000 A 
ENDROOT
BRANCH   5   8
ATOM      8  N   UNL     1       7.132   5.076  18.006  0.00  0.00    +0.000 N 
ATOM      9  C   UNL     1       7.627   6.250  18.517  0.00  0.00    +0.000 C 
ATOM     10  O   UNL     1       8.239   6.193  19.586  0.00  0.00    +0.000 OA
ATOM     11  N   UNL     1       7.465   7.383  17.773  0.00  0.00    +0.000 N 
ATOM     12  H   UNL     1       7.550   4.292  18.491  0.00  0.00    +0.000 HD
ATOM     13  H   UNL     1       6.597   7.407  17.261  0.00  0.00    +0.000 HD
BRANCH  11  14
ATOM     14  C   UNL     1       8.035   8.634  18.112  0.00  0.00    +0.000 A 
ATOM     15  C   UNL     1       8.939   8.797  19.154  0.00  0.00    +0.000 A 
ATOM     16  C   UNL     1       9.486  10.062  19.426  0.00  0.00    +0.000 A 
ATOM     17  C   UNL     1       9.133  11.167  18.650  0.00  0.00    +0.000 A 
ATOM     18  C   UNL     1       8.193  11.010  17.642  0.00  0.00    +0.000 A 
ATOM     19  C   UNL     1       7.682   9.741  17.339  0.00  0.00    +0.000 A 
BRANCH  17  20
ATOM     20  O   UNL     1       9.727  12.339  19.016  0.00  0.00    +0.000 OA
BRANCH  20  21
ATOM     21  C   UNL     1       9.774  13.430  18.099  0.00  0.00    +0.000 C 
ATOM     22  F   UNL     1       8.573  13.788  17.589  0.00  0.00    +0.000 F 
ATOM     23  F   UNL     1      10.316  14.502  18.712  0.00  0.00    +0.000 F 
ATOM     24  F   UNL     1      10.570  13.089  17.066  0.00  0.00    +0.000 F 
ENDBRANCH  20  21
ENDBRANCH  17  20
ENDBRANCH  11  14
ENDBRANCH   5   8
BRANCH   6  25
ATOM     25  O   UNL     1       4.512   4.185  17.636  0.00  0.00    +0.000 OA
BRANCH  25  26
ATOM     26  C   UNL     1       3.691   5.127  18.212  0.00  0.00    +0.000 A 
ATOM     27  C   UNL     1       3.758   6.467  17.795  0.00  0.00    +0.000 A 
ATOM     28  C   UNL     1       3.036   7.452  18.456  0.00  0.00    +0.000 A 
ATOM     29  C   UNL     1       2.231   7.100  19.527  0.00  0.00    +0.000 A 
ATOM     30  C   UNL     1       2.157   5.768  19.949  0.00  0.00    +0.000 A 
ATOM     31  C   UNL     1       2.907   4.743  19.332  0.00  0.00    +0.000 A 
BRANCH  31  32
ATOM     32  C   UNL     1       2.882   3.300  19.904  0.00  0.00    +0.000 C 
ATOM     33  C   UNL     1       4.246   2.558  19.790  0.00  0.00    +0.000 C 
ATOM     34  C   UNL     1       2.525   3.310  21.407  0.00  0.00    +0.000 C 
ATOM     35  C   UNL     1       1.869   2.416  19.142  0.00  0.00    +0.000 C 
ENDBRANCH  31  32
ENDBRANCH  25  26
ENDBRANCH   6  25
TORSDOF 7
ENDMDL
MODEL 4
REMARK VINA RESULT:      -7.7      7.759     10.865
REMARK  Name = 
REMARK  11 active torsions:
REMARK  status: ('A' for Active; 'I' for Inactive)
REMARK    1  A    between atoms: C_1  and  C_2
REMARK    2  A    between atoms: C_5  and  N_6
REMARK    3  A    between atoms: N_9  and  C_10
REMARK    4  A    between atoms: C_13  and  O_14
REMARK    5  A    between atoms: O_14  and  C_15
REMARK    6  A    between atoms: C_21  and  O_22
REMARK    7  A    between atoms: O_22  and  C_23
REMARK    8  A    between atoms: C_28  and  C_29
REMARK    9  A    between atoms: C_29  and  C_30
REMARK   10  A    between atoms: C_29  and  C_31
REMARK   11  A    between atoms: C_29  and  C_32
REMARK                            x       y       z     vdW  Elec       q    Type
REMARK                         _______ _______ _______ _____ _____    ______ ____
ROOT
ATOM      1  C   UNL     1      -0.129  16.764  20.781  0.00  0.00    +0.000 C 
ATOM      2  C   UNL     1      -0.407  15.412  20.190  0.00  0.00    +0.000 A 
ATOM      3  C   UNL     1      -0.047  15.127  18.868  0.00  0.00    +0.000 A 
ATOM      4  C   UNL     1      -0.395  13.906  18.287  0.00  0.00    +0.000 A 
ATOM      5  C   UNL     1      -1.089  12.943  19.023  0.00  0.00    +0.000 A 
ATOM      6  C   UNL     1      -1.496  13.236  20.334  0.00  0.00    +0.000 A 
ATOM      7  C   UNL     1      -1.140  14.461  20.919  0.00  0.00    +0.000 A 
ENDROOT
BRANCH   5   8
ATOM      8  N   UNL     1      -1.457  11.759  18.352  0.00  0.00    +0.000 N 
ATOM      9  C   UNL     1      -0.784  10.565  18.282  0.00  0.00    +0.000 C 
ATOM     10  O   UNL     1      -1.182   9.732  17.465  0.00  0.00    +0.000 OA
ATOM     11  N   UNL     1       0.318  10.413  19.074  0.00  0.00    +0.000 N 
ATOM     12  H   UNL     1      -2.058  11.857  17.542  0.00  0.00    +0.000 HD
ATOM     13  H   UNL     1       0.237  10.870  19.969  0.00  0.00    +0.000 HD
BRANCH  11  14
ATOM     14  C   UNL     1       1.181   9.292  19.012  0.00  0.00    +0.000 A 
ATOM     15  C   UNL     1       1.308   8.375  20.048  0.00  0.00    +0.000 A 
ATOM     16  C   UNL     1       2.166   7.271  19.916  0.00  0.00    +0.000 A 
ATOM     17  C   UNL     1       2.896   7.079  18.742  0.00  0.00    +0.000 A 
ATOM     18  C   UNL     1       2.804   8.023  17.730  0.00  0.00    +0.000 A 
ATOM     19  C   UNL     1       1.914   9.099  17.841  0.00  0.00    +0.000 A 
BRANCH  17  20
ATOM     20  O   UNL     1       3.697   5.975  18.738  0.00  0.00    +0.000 OA
BRANCH  20  21
ATOM     21  C   UNL     1       3.161   4.708  18.361  0.00  0.00    +0.000 C 
ATOM     22  F   UNL     1       2.037   4.774  17.611  0.00  0.00    +0.000 F 
ATOM     23  F   UNL     1       4.094   4.018  17.673  0.00  0.00    +0.000 F 
ATOM     24  F   UNL     1       2.864   4.017  19.479  0.00  0.00    +0.000 F 
ENDBRANCH  20  21
ENDBRANCH  17  20
ENDBRANCH  11  14
ENDBRANCH   5   8
BRANCH   6  25
ATOM     25  O   UNL     1      -2.433  12.389  20.891  0.00  0.00    +0.000 OA
BRANCH  25  26
ATOM     26  C   UNL     1      -3.761  12.738  20.983  0.00  0.00    +0.000 A 
ATOM     27  C   UNL     1      -4.498  13.012  19.817  0.00  0.00    +0.000 A 
ATOM     28  C   UNL     1      -5.798  13.495  19.898  0.00  0.00    +0.000 A 
ATOM     29  C   UNL     1      -6.372  13.692  21.144  0.00  0.00    +0.000 A 
ATOM     30  C   UNL     1      -5.647  13.421  22.308  0.00  0.00    +0.000 A 
ATOM     31  C   UNL     1      -4.309  12.969  22.272  0.00  0.00    +0.000 A 
BRANCH  31  32
ATOM     32  C   UNL     1      -3.505  12.790  23.588  0.00  0.00    +0.000 C 
ATOM     33  C   UNL     1      -4.388  12.411  24.813  0.00  0.00    +0.000 C 
ATOM     34  C   UNL     1      -2.462  11.661  23.446  0.00  0.00    +0.000 C 
ATOM     35  C   UNL     1      -2.792  14.102  23.987  0.00  0.00    +0.000 C 
ENDBRANCH  31  32
ENDBRANCH  25  26
ENDBRANCH   6  25
TORSDOF 7
ENDMDL
MODEL 5
REMARK VINA RESULT:      -7.6      1.112      1.239
REMARK  Name = 
REMARK  11 active torsions:
REMARK  status: ('A' for Active; 'I' for Inactive)
REMARK    1  A    between atoms: C_1  and  C_2
REMARK    2  A    between atoms: C_5  and  N_6
REMARK    3  A    between atoms: N_9  and  C_10
REMARK    4  A    between atoms: C_13  and  O_14
REMARK    5  A    between atoms: O_14  and  C_15
REMARK    6  A    between atoms: C_21  and  O_22
REMARK    7  A    between atoms: O_22  and  C_23
REMARK    8  A    between atoms: C_28  and  C_29
REMARK    9  A    between atoms: C_29  and  C_30
REMARK   10  A    between atoms: C_29  and  C_31
REMARK   11  A    between atoms: C_29  and  C_32
REMARK                            x       y       z     vdW  Elec       q    Type
REMARK                         _______ _______ _______ _____ _____    ______ ____
ROOT
ATOM      1  C   UNL     1       5.207   3.875  12.651  0.00  0.00    +0.000 C 
ATOM      2  C   UNL     1       5.688   4.311  14.005  0.00  0.00    +0.000 A 
ATOM      3  C   UNL     1       7.037   4.621  14.212  0.00  0.00    +0.000 A 
ATOM      4  C   UNL     1       7.503   4.929  15.492  0.00  0.00    +0.000 A 
ATOM      5  C   UNL     1       6.626   4.954  16.580  0.00  0.00    +0.000 A 
ATOM      6  C   UNL     1       5.281   4.599  16.390  0.00  0.00    +0.000 A 
ATOM      7  C   UNL     1       4.813   4.295  15.103  0.00  0.00    +0.000 A 
ENDROOT
BRANCH   5   8
ATOM      8  N   UNL     1       7.180   5.215  17.849  0.00  0.00    +0.000 N 
ATOM      9  C   UNL     1       7.674   6.396  18.345  0.00  0.00    +0.000 C 
ATOM     10  O   UNL     1       8.306   6.350  19.402  0.00  0.00    +0.000 OA
ATOM     11  N   UNL     1       7.489   7.524  17.597  0.00  0.00    +0.000 N 
ATOM     12  H   UNL     1       7.613   4.437  18.331  0.00  0.00    +0.000 HD
ATOM     13  H   UNL     1       6.612   7.538  17.101  0.00  0.00    +0.000 HD
BRANCH  11  14
ATOM     14  C   UNL     1       8.055   8.781  17.918  0.00  0.00    +0.000 A 
ATOM     15  C   UNL     1       7.758   9.946  17.222  0.00  0.00    +0.000 A 
ATOM     16  C   UNL     1       8.337  11.167  17.604  0.00  0.00    +0.000 A 
ATOM     17  C   UNL     1       9.211  11.226  18.690  0.00  0.00    +0.000 A 
ATOM     18  C   UNL     1       9.543  10.053  19.352  0.00  0.00    +0.000 A 
ATOM     19  C   UNL     1       8.931   8.843  19.002  0.00  0.00    +0.000 A 
BRANCH  17  20
ATOM     20  O   UNL     1       9.711  12.467  18.959  0.00  0.00    +0.000 OA
BRANCH  20  21
ATOM     21  C   UNL     1       9.091  13.284  19.949  0.00  0.00    +0.000 C 
ATOM     22  F   UNL     1       7.795  13.584  19.701  0.00  0.00    +0.000 F 
ATOM     23  F   UNL     1       9.166  12.665  21.145  0.00  0.00    +0.000 F 
ATOM     24  F   UNL     1       9.768  14.447  20.033  0.00  0.00    +0.000 F 
ENDBRANCH  20  21
ENDBRANCH  17  20
ENDBRANCH  11  14
ENDBRANCH   5   8
BRANCH   6  25
ATOM     25  O   UNL     1       4.548   4.338  17.531  0.00  0.00    +0.000 OA
BRANCH  25  26
ATOM     26  C   UNL     1       3.664   5.256  18.050  0.00  0.00    +0.000 A 
ATOM     27  C   UNL     1       3.837   6.626  17.785  0.00  0.00    +0.000 A 
ATOM     28  C   UNL     1       3.037   7.575  18.408  0.00  0.00    +0.000 A 
ATOM     29  C   UNL     1       2.049   7.158  19.286  0.00  0.00    +0.000 A 
ATOM     30  C   UNL     1       1.869   5.797  19.554  0.00  0.00    +0.000 A 
ATOM     31  C   UNL     1       2.688   4.803  18.975  0.00  0.00    +0.000 A 
BRANCH  31  32
ATOM     32  C   UNL     1       2.526   3.315  19.388  0.00  0.00    +0.000 C 
ATOM     33  C   UNL     1       3.751   2.744  20.161  0.00  0.00    +0.000 C 
ATOM     34  C   UNL     1       1.308   3.132  20.320  0.00  0.00    +0.000 C 
ATOM     35  C   UNL     1       2.363   2.407  18.148  0.00  0.00    +0.000 C 
ENDBRANCH  31  32
ENDBRANCH  25  26
ENDBRANCH   6  25
TORSDOF 7
ENDMDL
MODEL 6
REMARK VINA RESULT:      -7.6      6.857     10.015
REMARK  Name = 
REMARK  11 active torsions:
REMARK  status: ('A' for Active; 'I' for Inactive)
REMARK    1  A    between atoms: C_1  and  C_2
REMARK    2  A    between atoms: C_5  and  N_6
REMARK    3  A    between atoms: N_9  and  C_10
REMARK    4  A    between atoms: C_13  and  O_14
REMARK    5  A    between atoms: O_14  and  C_15
REMARK    6  A    between atoms: C_21  and  O_22
REMARK    7  A    between atoms: O_22  and  C_23
REMARK    8  A    between atoms: C_28  and  C_29
REMARK    9  A    between atoms: C_29  and  C_30
REMARK   10  A    between atoms: C_29  and  C_31
REMARK   11  A    between atoms: C_29  and  C_32
REMARK                            x       y       z     vdW  Elec       q    Type
REMARK                         _______ _______ _______ _____ _____    ______ ____
ROOT
ATOM      1  C   UNL     1       3.261  16.249  19.888  0.00  0.00    +0.000 C 
ATOM      2  C   UNL     1       2.491  15.020  19.497  0.00  0.00    +0.000 A 
ATOM      3  C   UNL     1       2.734  14.390  18.272  0.00  0.00    +0.000 A 
ATOM      4  C   UNL     1       1.950  13.308  17.864  0.00  0.00    +0.000 A 
ATOM      5  C   UNL     1       0.926  12.826  18.684  0.00  0.00    +0.000 A 
ATOM      6  C   UNL     1       0.644  13.480  19.894  0.00  0.00    +0.000 A 
ATOM      7  C   UNL     1       1.436  14.564  20.304  0.00  0.00    +0.000 A 
ENDROOT
BRANCH   5   8
ATOM      8  N   UNL     1       0.140  11.770  18.180  0.00  0.00    +0.000 N 
ATOM      9  C   UNL     1       0.400  10.423  18.194  0.00  0.00    +0.000 C 
ATOM     10  O   UNL     1      -0.322   9.695  17.509  0.00  0.00    +0.000 OA
ATOM     11  N   UNL     1       1.480   9.993  18.912  0.00  0.00    +0.000 N 
ATOM     12  H   UNL     1      -0.485  11.987  17.414  0.00  0.00    +0.000 HD
ATOM     13  H   UNL     1       1.641  10.525  19.753  0.00  0.00    +0.000 HD
BRANCH  11  14
ATOM     14  C   UNL     1       1.942   8.655  18.910  0.00  0.00    +0.000 A 
ATOM     15  C   UNL     1       2.659   8.103  17.856  0.00  0.00    +0.000 A 
ATOM     16  C   UNL     1       3.109   6.774  17.925  0.00  0.00    +0.000 A 
ATOM     17  C   UNL     1       2.848   5.996  19.054  0.00  0.00    +0.000 A 
ATOM     18  C   UNL     1       2.089   6.535  20.082  0.00  0.00    +0.000 A 
ATOM     19  C   UNL     1       1.680   7.874  20.036  0.00  0.00    +0.000 A 
BRANCH  17  20
ATOM     20  O   UNL     1       3.332   4.722  18.998  0.00  0.00    +0.000 OA
BRANCH  20  21
ATOM     21  C   UNL     1       2.477   3.652  18.601  0.00  0.00    +0.000 C 
ATOM     22  F   UNL     1       1.436   4.023  17.820  0.00  0.00    +0.000 F 
ATOM     23  F   UNL     1       3.202   2.728  17.937  0.00  0.00    +0.000 F 
ATOM     24  F   UNL     1       1.969   3.074  19.707  0.00  0.00    +0.000 F 
ENDBRANCH  20  21
ENDBRANCH  17  20
ENDBRANCH  11  14
ENDBRANCH   5   8
BRANCH   6  25
ATOM     25  O   UNL     1      -0.556  13.164  20.497  0.00  0.00    +0.000 OA
BRANCH  25  26
ATOM     26  C   UNL     1      -0.639  12.219  21.495  0.00  0.00    +0.000 A 
ATOM     27  C   UNL     1       0.339  11.214  21.593  0.00  0.00    +0.000 A 
ATOM     28  C   UNL     1       0.199  10.177  22.506  0.00  0.00    +0.000 A 
ATOM     29  C   UNL     1      -0.910  10.149  23.336  0.00  0.00    +0.000 A 
ATOM     30  C   UNL     1      -1.887  11.145  23.246  0.00  0.00    +0.000 A 
ATOM     31  C   UNL     1      -1.805  12.193  22.304  0.00  0.00    +0.000 A 
BRANCH  31  32
ATOM     32  C   UNL     1      -2.968  13.213  22.162  0.00  0.00    +0.000 C 
ATOM     33  C   UNL     1      -2.501  14.698  22.166  0.00  0.00    +0.000 C 
ATOM     34  C   UNL     1      -3.722  13.006  20.831  0.00  0.00    +0.000 C 
ATOM     35  C   UNL     1      -3.961  13.092  23.339  0.00  0.00    +0.000 C 
ENDBRANCH  31  32
ENDBRANCH  25  26
ENDBRANCH   6  25
TORSDOF 7
ENDMDL
MODEL 7
REMARK VINA RESULT:      -7.5      7.083     10.256
REMARK  Name = 
REMARK  11 active torsions:
REMARK  status: ('A' for Active; 'I' for Inactive)
REMARK    1  A    between atoms: C_1  and  C_2
REMARK    2  A    between atoms: C_5  and  N_6
REMARK    3  A    between atoms: N_9  and  C_10
REMARK    4  A    between atoms: C_13  and  O_14
REMARK    5  A    between atoms: O_14  and  C_15
REMARK    6  A    between atoms: C_21  and  O_22
REMARK    7  A    between atoms: O_22  and  C_23
REMARK    8  A    between atoms: C_28  and  C_29
REMARK    9  A    between atoms: C_29  and  C_30
REMARK   10  A    between atoms: C_29  and  C_31
REMARK   11  A    between atoms: C_29  and  C_32
REMARK                            x       y       z     vdW  Elec       q    Type
REMARK                         _______ _______ _______ _____ _____    ______ ____
ROOT
ATOM      1  C   UNL     1       1.260  15.384  18.571  0.00  0.00    +0.000 C 
ATOM      2  C   UNL     1       0.866  14.226  19.443  0.00  0.00    +0.000 A 
ATOM      3  C   UNL     1       1.789  13.659  20.329  0.00  0.00    +0.000 A 
ATOM      4  C   UNL     1       1.454  12.520  21.065  0.00  0.00    +0.000 A 
ATOM      5  C   UNL     1       0.188  11.943  20.944  0.00  0.00    +0.000 A 
ATOM      6  C   UNL     1      -0.729  12.477  20.023  0.00  0.00    +0.000 A 
ATOM      7  C   UNL     1      -0.394  13.625  19.289  0.00  0.00    +0.000 A 
ENDROOT
BRANCH   5   8
ATOM      8  N   UNL     1      -0.056  10.763  21.673  0.00  0.00    +0.000 N 
ATOM      9  C   UNL     1       0.376   9.486  21.413  0.00  0.00    +0.000 C 
ATOM     10  O   UNL     1      -0.131   8.568  22.062  0.00  0.00    +0.000 OA
ATOM     11  N   UNL     1       1.287   9.318  20.410  0.00  0.00    +0.000 N 
ATOM     12  H   UNL     1      -0.909  10.727  22.219  0.00  0.00    +0.000 HD
ATOM     13  H   UNL     1       1.947  10.077  20.334  0.00  0.00    +0.000 HD
BRANCH  11  14
ATOM     14  C   UNL     1       1.722   8.053  19.947  0.00  0.00    +0.000 A 
ATOM     15  C   UNL     1       1.613   6.892  20.702  0.00  0.00    +0.000 A 
ATOM     16  C   UNL     1       2.044   5.662  20.176  0.00  0.00    +0.000 A 
ATOM     17  C   UNL     1       2.579   5.591  18.889  0.00  0.00    +0.000 A 
ATOM     18  C   UNL     1       2.731   6.760  18.158  0.00  0.00    +0.000 A 
ATOM     19  C   UNL     1       2.260   7.980  18.662  0.00  0.00    +0.000 A 
BRANCH  17  20
ATOM     20  O   UNL     1       2.964   4.344  18.495  0.00  0.00    +0.000 OA
BRANCH  20  21
ATOM     21  C   UNL     1       2.004   3.442  17.949  0.00  0.00    +0.000 C 
ATOM     22  F   UNL     1       2.458   2.694  16.917  0.00  0.00    +0.000 F 
ATOM     23  F   UNL     1       1.571   2.612  18.921  0.00  0.00    +0.000 F 
ATOM     24  F   UNL     1       0.950   4.154  17.503  0.00  0.00    +0.000 F 
ENDBRANCH  20  21
ENDBRANCH  17  20
ENDBRANCH  11  14
ENDBRANCH   5   8
BRANCH   6  25
ATOM     25  O   UNL     1      -1.824  11.692  19.723  0.00  0.00    +0.000 OA
BRANCH  25  26
ATOM     26  C   UNL     1      -3.096  12.214  19.669  0.00  0.00    +0.000 A 
ATOM     27  C   UNL     1      -3.604  12.940  20.761  0.00  0.00    +0.000 A 
ATOM     28  C   UNL     1      -4.929  13.357  20.780  0.00  0.00    +0.000 A 
ATOM     29  C   UNL     1      -5.747  13.064  19.701  0.00  0.00    +0.000 A 
ATOM     30  C   UNL     1      -5.251  12.344  18.610  0.00  0.00    +0.000 A 
ATOM     31  C   UNL     1      -3.923  11.865  18.569  0.00  0.00    +0.000 A 
BRANCH  31  32
ATOM     32  C   UNL     1      -3.447  10.972  17.391  0.00  0.00    +0.000 C 
ATOM     33  C   UNL     1      -4.476  10.871  16.228  0.00  0.00    +0.000 C 
ATOM     34  C   UNL     1      -2.149  11.530  16.767  0.00  0.00    +0.000 C 
ATOM     35  C   UNL     1      -3.208   9.517  17.856  0.00  0.00    +0.000 C 
ENDBRANCH  31  32
ENDBRANCH  25  26
ENDBRANCH   6  25
TORSDOF 7
ENDMDL
MODEL 8
REMARK VINA RESULT:      -7.4      7.222     10.592
REMARK  Name = 
REMARK  11 active torsions:
REMARK  status: ('A' for Active; 'I' for Inactive)
REMARK    1  A    between atoms: C_1  and  C_2
REMARK    2  A    between atoms: C_5  and  N_6
REMARK    3  A    between atoms: N_9  and  C_10
REMARK    4  A    between atoms: C_13  and  O_14
REMARK    5  A    between atoms: O_14  and  C_15
REMARK    6  A    between atoms: C_21  and  O_22
REMARK    7  A    between atoms: O_22  and  C_23
REMARK    8  A    between atoms: C_28  and  C_29
REMARK    9  A    between atoms: C_29  and  C_30
REMARK   10  A    between atoms: C_29  and  C_31
REMARK   11  A    between atoms: C_29  and  C_32
REMARK                            x       y       z     vdW  Elec       q    Type
REMARK                         _______ _______ _______ _____ _____    ______ ____
ROOT
ATOM      1  C   UNL     1      -3.937  12.454  24.373  0.00  0.00    +0.000 C 
ATOM      2  C   UNL     1      -2.984  12.325  23.220  0.00  0.00    +0.000 A 
ATOM      3  C   UNL     1      -1.603  12.278  23.442  0.00  0.00    +0.000 A 
ATOM      4  C   UNL     1      -0.713  12.260  22.365  0.00  0.00    +0.000 A 
ATOM      5  C   UNL     1      -1.189  12.268  21.052  0.00  0.00    +0.000 A 
ATOM      6  C   UNL     1      -2.571  12.363  20.818  0.00  0.00    +0.000 A 
ATOM      7  C   UNL     1      -3.463  12.375  21.901  0.00  0.00    +0.000 A 
ENDROOT
BRANCH   5   8
ATOM      8  N   UNL     1      -0.231  12.308  20.019  0.00  0.00    +0.000 N 
ATOM      9  C   UNL     1       0.575  11.300  19.555  0.00  0.00    +0.000 C 
ATOM     10  O   UNL     1       1.491  11.608  18.789  0.00  0.00    +0.000 OA
ATOM     11  N   UNL     1       0.347  10.038  20.026  0.00  0.00    +0.000 N 
ATOM     12  H   UNL     1       0.201  13.204  19.827  0.00  0.00    +0.000 HD
ATOM     13  H   UNL     1      -0.627   9.841  20.191  0.00  0.00    +0.000 HD
BRANCH  11  14
ATOM     14  C   UNL     1       1.178   8.930  19.737  0.00  0.00    +0.000 A 
ATOM     15  C   UNL     1       1.400   7.894  20.637  0.00  0.00    +0.000 A 
ATOM     16  C   UNL     1       2.219   6.810  20.282  0.00  0.00    +0.000 A 
ATOM     17  C   UNL     1       2.814   6.756  19.021  0.00  0.00    +0.000 A 
ATOM     18  C   UNL     1       2.630   7.815  18.143  0.00  0.00    +0.000 A 
ATOM     19  C   UNL     1       1.776   8.874  18.479  0.00  0.00    +0.000 A 
BRANCH  17  20
ATOM     20  O   UNL     1       3.590   5.656  18.797  0.00  0.00    +0.000 OA
BRANCH  20  21
ATOM     21  C   UNL     1       3.252   4.748  17.751  0.00  0.00    +0.000 C 
ATOM     22  F   UNL     1       3.551   3.455  18.010  0.00  0.00    +0.000 F 
ATOM     23  F   UNL     1       1.931   4.839  17.494  0.00  0.00    +0.000 F 
ATOM     24  F   UNL     1       3.923   5.106  16.638  0.00  0.00    +0.000 F 
ENDBRANCH  20  21
ENDBRANCH  17  20
ENDBRANCH  11  14
ENDBRANCH   5   8
BRANCH   6  25
ATOM     25  O   UNL     1      -2.955  12.682  19.531  0.00  0.00    +0.000 OA
BRANCH  25  26
ATOM     26  C   UNL     1      -4.206  12.370  19.050  0.00  0.00    +0.000 A 
ATOM     27  C   UNL     1      -5.352  12.818  19.731  0.00  0.00    +0.000 A 
ATOM     28  C   UNL     1      -6.617  12.402  19.338  0.00  0.00    +0.000 A 
ATOM     29  C   UNL     1      -6.744  11.548  18.254  0.00  0.00    +0.000 A 
ATOM     30  C   UNL     1      -5.610  11.098  17.571  0.00  0.00    +0.000 A 
ATOM     31  C   UNL     1      -4.304  11.463  17.963  0.00  0.00    +0.000 A 
BRANCH  31  32
ATOM     32  C   UNL     1      -3.070  10.850  17.246  0.00  0.00    +0.000 C 
ATOM     33  C   UNL     1      -2.431   9.656  18.014  0.00  0.00    +0.000 C 
ATOM     34  C   UNL     1      -3.456  10.306  15.854  0.00  0.00    +0.000 C 
ATOM     35  C   UNL     1      -1.939  11.893  17.095  0.00  0.00    +0.000 C 
ENDBRANCH  31  32
ENDBRANCH  25  26
ENDBRANCH   6  25
TORSDOF 7
ENDMDL
MODEL 9
REMARK VINA RESULT:      -7.4      5.942      8.516
REMARK  Name = 
REMARK  11 active torsions:
REMARK  status: ('A' for Active; 'I' for Inactive)
REMARK    1  A    between atoms: C_1  and  C_2
REMARK    2  A    between atoms: C_5  and  N_6
REMARK    3  A    between atoms: N_9  and  C_10
REMARK    4  A    between atoms: C_13  and  O_14
REMARK    5  A    between atoms: O_14  and  C_15
REMARK    6  A    between atoms: C_21  and  O_22
REMARK    7  A    between atoms: O_22  and  C_23
REMARK    8  A    between atoms: C_28  and  C_29
REMARK    9  A    between atoms: C_29  and  C_30
REMARK   10  A    between atoms: C_29  and  C_31
REMARK   11  A    between atoms: C_29  and  C_32
REMARK                            x       y       z     vdW  Elec       q    Type
REMARK                         _______ _______ _______ _____ _____    ______ ____
ROOT
ATOM      1  C   UNL     1       2.849   2.265  21.281  0.00  0.00    +0.000 C 
ATOM      2  C   UNL     1       2.706   3.655  20.730  0.00  0.00    +0.000 A 
ATOM      3  C   UNL     1       1.462   4.295  20.733  0.00  0.00    +0.000 A 
ATOM      4  C   UNL     1       1.308   5.546  20.131  0.00  0.00    +0.000 A 
ATOM      5  C   UNL     1       2.399   6.185  19.535  0.00  0.00    +0.000 A 
ATOM      6  C   UNL     1       3.640   5.531  19.486  0.00  0.00    +0.000 A 
ATOM      7  C   UNL     1       3.794   4.277  20.096  0.00  0.00    +0.000 A 
ENDROOT
BRANCH   5   8
ATOM      8  N   UNL     1       2.154   7.417  18.897  0.00  0.00    +0.000 N 
ATOM      9  C   UNL     1       1.560   8.546  19.404  0.00  0.00    +0.000 C 
ATOM     10  O   UNL     1       1.253   9.437  18.609  0.00  0.00    +0.000 OA
ATOM     11  N   UNL     1       1.290   8.572  20.743  0.00  0.00    +0.000 N 
ATOM     12  H   UNL     1       2.044   7.400  17.890  0.00  0.00    +0.000 HD
ATOM     13  H   UNL     1       1.981   8.097  21.302  0.00  0.00    +0.000 HD
BRANCH  11  14
ATOM     14  C   UNL     1       0.566   9.610  21.378  0.00  0.00    +0.000 A 
ATOM     15  C   UNL     1      -0.263   9.395  22.472  0.00  0.00    +0.000 A 
ATOM     16  C   UNL     1      -0.937  10.471  23.072  0.00  0.00    +0.000 A 
ATOM     17  C   UNL     1      -0.779  11.768  22.581  0.00  0.00    +0.000 A 
ATOM     18  C   UNL     1       0.011  11.971  21.459  0.00  0.00    +0.000 A 
ATOM     19  C   UNL     1       0.721  10.906  20.888  0.00  0.00    +0.000 A 
BRANCH  17  20
ATOM     20  O   UNL     1      -1.489  12.725  23.245  0.00  0.00    +0.000 OA
BRANCH  20  21
ATOM     21  C   UNL     1      -2.633  13.316  22.630  0.00  0.00    +0.000 C 
ATOM     22  F   UNL     1      -2.355  14.338  21.790  0.00  0.00    +0.000 F 
ATOM     23  F   UNL     1      -3.307  12.369  21.945  0.00  0.00    +0.000 F 
ATOM     24  F   UNL     1      -3.442  13.792  23.597  0.00  0.00    +0.000 F 
ENDBRANCH  20  21
ENDBRANCH  17  20
ENDBRANCH  11  14
ENDBRANCH   5   8
BRANCH   6  25
ATOM     25  O   UNL     1       4.579   6.062  18.624  0.00  0.00    +0.000 OA
BRANCH  25  26
ATOM     26  C   UNL     1       5.843   5.529  18.513  0.00  0.00    +0.000 A 
ATOM     27  C   UNL     1       6.770   5.696  19.556  0.00  0.00    +0.000 A 
ATOM     28  C   UNL     1       8.088   5.283  19.406  0.00  0.00    +0.000 A 
ATOM     29  C   UNL     1       8.480   4.686  18.218  0.00  0.00    +0.000 A 
ATOM     30  C   UNL     1       7.564   4.515  17.175  0.00  0.00    +0.000 A 
ATOM     31  C   UNL     1       6.227   4.959  17.271  0.00  0.00    +0.000 A 
BRANCH  31  32
ATOM     32  C   UNL     1       5.275   4.851  16.048  0.00  0.00    +0.000 C 
ATOM     33  C   UNL     1       5.906   4.117  14.829  0.00  0.00    +0.000 C 
ATOM     34  C   UNL     1       4.000   4.060  16.412  0.00  0.00    +0.000 C 
ATOM     35  C   UNL     1       4.880   6.251  15.526  0.00  0.00    +0.000 C 
ENDBRANCH  31  32
ENDBRANCH  25  26
ENDBRANCH   6  25
TORSDOF 7
ENDMDL
