MODEL 1
REMARK VINA RESULT:      -6.5      0.000      0.000
REMARK  Name = 
REMARK  7 active torsions:
REMARK  status: ('A' for Active; 'I' for Inactive)
REMARK    1  A    between atoms: C_1  and  C_2
REMARK    2  A    between atoms: C_5  and  S_6
REMARK    3  A    between atoms: S_6  and  O_9
REMARK    4  A    between atoms: O_9  and  I_10
REMARK    5  A    between atoms: I_10  and  O_11
REMARK    6  A    between atoms: I_10  and  C_12
REMARK    7  A    between atoms: C_12  and  C_13
REMARK                            x       y       z     vdW  Elec       q    Type
REMARK                         _______ _______ _______ _____ _____    ______ ____
ROOT
ATOM      1  S   UNL     1       5.261   4.838  17.998  0.00  0.00    +0.000 S 
ATOM      2  O   UNL     1       6.430   5.291  17.110  0.00  0.00    +0.000 OA
ATOM      3  O   UNL     1       5.951   4.451  19.319  0.00  0.00    +0.000 OA
ENDROOT
BRANCH   1   8
ATOM      4  C   UNL     1       1.171   9.217  18.952  0.00  0.00    +0.000 C 
ATOM      5  C   UNL     1       2.189   8.149  18.724  0.00  0.00    +0.000 A 
ATOM      6  C   UNL     1       2.343   7.095  19.644  0.00  0.00    +0.000 A 
ATOM      7  C   UNL     1       3.293   6.100  19.412  0.00  0.00    +0.000 A 
ATOM      8  C   UNL     1       4.084   6.138  18.262  0.00  0.00    +0.000 A 
ATOM      9  C   UNL     1       3.949   7.178  17.344  0.00  0.00    +0.000 A 
ATOM     10  C   UNL     1       2.998   8.188  17.568  0.00  0.00    +0.000 A 
ENDBRANCH   1   8
BRANCH   1  11
ATOM     11  O   UNL     1       4.631   3.398  17.287  0.00  0.00    +0.000 OA
BRANCH  11  12
ATOM     12  I   UNL     1       3.266   2.703  18.604  0.00  0.00    +0.000 I 
BRANCH  12  13
ATOM     13  O   UNL     1       4.774   1.851  19.698  0.00  0.00    +0.000 OA
ATOM     14  H   UNL     1       5.524   1.690  19.071  0.00  0.00    +0.000 HD
ENDBRANCH  12  13
BRANCH  12  15
ATOM     15  C   UNL     1       1.786   2.014  19.964  0.00  0.00    +0.000 C 
BRANCH  15  16
ATOM     16  C   UNL     1       1.497   3.065  21.039  0.00  0.00    +0.000 C 
ATOM     17  F   UNL     1       0.672   4.065  20.554  0.00  0.00    +0.000 F 
ATOM     18  F   UNL     1       0.882   2.472  22.127  0.00  0.00    +0.000 F 
ATOM     19  F   UNL     1       2.684   3.641  21.451  0.00  0.00    +0.000 F 
ENDBRANCH  15  16
ENDBRANCH  12  15
ENDBRANCH  11  12
ENDBRANCH   1  11
TORSDOF 6
ENDMDL
MODEL 2
REMARK VINA RESULT:      -6.5      3.488      4.696
REMARK  Name = 
REMARK  7 active torsions:
REMARK  status: ('A' for Active; 'I' for Inactive)
REMARK    1  A    between atoms: C_1  and  C_2
REMARK    2  A    between atoms: C_5  and  S_6
REMARK    3  A    between atoms: S_6  and  O_9
REMARK    4  A    between atoms: O_9  and  I_10
REMARK    5  A    between atoms: I_10  and  O_11
REMARK    6  A    between atoms: I_10  and  C_12
REMARK    7  A    between atoms: C_12  and  C_13
REMARK                            x       y       z     vdW  Elec       q    Type
REMARK                         _______ _______ _______ _____ _____    ______ ____
ROOT
ATOM      1  S   UNL     1       6.039   5.478  17.830  0.00  0.00    +0.000 S 
ATOM      2  O   UNL     1       7.112   6.534  18.137  0.00  0.00    +0.000 OA
ATOM      3  O   UNL     1       4.720   6.241  18.053  0.00  0.00    +0.000 OA
ENDROOT
BRANCH   1   8
ATOM      4  C   UNL     1       6.457   3.544  12.094  0.00  0.00    +0.000 C 
ATOM      5  C   UNL     1       6.361   4.005  13.511  0.00  0.00    +0.000 A 
ATOM      6  C   UNL     1       7.378   4.794  14.081  0.00  0.00    +0.000 A 
ATOM      7  C   UNL     1       7.269   5.224  15.402  0.00  0.00    +0.000 A 
ATOM      8  C   UNL     1       6.146   4.887  16.161  0.00  0.00    +0.000 A 
ATOM      9  C   UNL     1       5.132   4.102  15.614  0.00  0.00    +0.000 A 
ATOM     10  C   UNL     1       5.232   3.660  14.285  0.00  0.00    +0.000 A 
ENDBRANCH   1   8
BRANCH   1  11
ATOM     11  O   UNL     1       6.169   4.271  19.056  0.00  0.00    +0.000 OA
BRANCH  11  12
ATOM     12  I   UNL     1       4.285   3.606  19.354  0.00  0.00    +0.000 I 
BRANCH  12  13
ATOM     13  O   UNL     1       5.029   1.777  19.898  0.00  0.00    +0.000 OA
ATOM     14  H   UNL     1       4.782   1.144  19.177  0.00  0.00    +0.000 HD
ENDBRANCH  12  13
BRANCH  12  15
ATOM     15  C   UNL     1       2.282   2.969  19.668  0.00  0.00    +0.000 C 
BRANCH  15  16
ATOM     16  C   UNL     1       1.560   2.750  18.336  0.00  0.00    +0.000 C 
ATOM     17  F   UNL     1       2.334   2.004  17.463  0.00  0.00    +0.000 F 
ATOM     18  F   UNL     1       0.366   2.086  18.549  0.00  0.00    +0.000 F 
ATOM     19  F   UNL     1       1.298   3.974  17.749  0.00  0.00    +0.000 F 
ENDBRANCH  15  16
ENDBRANCH  12  15
ENDBRANCH  11  12
ENDBRANCH   1  11
TORSDOF 6
ENDMDL
MODEL 3
REMARK VINA RESULT:      -6.5      0.434      1.017
REMARK  Name = 
REMARK  7 active torsions:
REMARK  status: ('A' for Active; 'I' for Inactive)
REMARK    1  A    between atoms: C_1  and  C_2
REMARK    2  A    between atoms: C_5  and  S_6
REMARK    3  A    between atoms: S_6  and  O_9
REMARK    4  A    between atoms: O_9  and  I_10
REMARK    5  A    between atoms: I_10  and  O_11
REMARK    6  A    between atoms: I_10  and  C_12
REMARK    7  A    between atoms: C_12  and  C_13
REMARK                            x       y       z     vdW  Elec       q    Type
REMARK                         _______ _______ _______ _____ _____    ______ ____
ROOT
ATOM      1  S   UNL     1       5.246   4.734  17.935  0.00  0.00    +0.000 S 
ATOM      2  O   UNL     1       6.447   5.179  17.087  0.00  0.00    +0.000 OA
ATOM      3  O   UNL     1       5.893   4.295  19.261  0.00  0.00    +0.000 OA
ENDROOT
BRANCH   1   8
ATOM      4  C   UNL     1       1.251   9.195  18.914  0.00  0.00    +0.000 C 
ATOM      5  C   UNL     1       2.246   8.107  18.681  0.00  0.00    +0.000 A 
ATOM      6  C   UNL     1       2.393   7.056  19.605  0.00  0.00    +0.000 A 
ATOM      7  C   UNL     1       3.320   6.042  19.367  0.00  0.00    +0.000 A 
ATOM      8  C   UNL     1       4.097   6.058  18.207  0.00  0.00    +0.000 A 
ATOM      9  C   UNL     1       3.969   7.095  17.283  0.00  0.00    +0.000 A 
ATOM     10  C   UNL     1       3.040   8.123  17.513  0.00  0.00    +0.000 A 
ENDBRANCH   1   8
BRANCH   1  11
ATOM     11  O   UNL     1       4.595   3.330  17.171  0.00  0.00    +0.000 OA
BRANCH  11  12
ATOM     12  I   UNL     1       3.149   2.665  18.415  0.00  0.00    +0.000 I 
BRANCH  12  13
ATOM     13  O   UNL     1       4.063   0.834  18.481  0.00  0.00    +0.000 OA
ATOM     14  H   UNL     1       3.535   0.232  17.897  0.00  0.00    +0.000 HD
ENDBRANCH  12  13
BRANCH  12  15
ATOM     15  C   UNL     1       1.609   2.029  19.734  0.00  0.00    +0.000 C 
BRANCH  15  16
ATOM     16  C   UNL     1       1.448   3.006  20.902  0.00  0.00    +0.000 C 
ATOM     17  F   UNL     1       0.880   2.385  22.001  0.00  0.00    +0.000 F 
ATOM     18  F   UNL     1       2.681   3.514  21.268  0.00  0.00    +0.000 F 
ATOM     19  F   UNL     1       0.626   4.049  20.518  0.00  0.00    +0.000 F 
ENDBRANCH  15  16
ENDBRANCH  12  15
ENDBRANCH  11  12
ENDBRANCH   1  11
TORSDOF 6
ENDMDL
MODEL 4
REMARK VINA RESULT:      -6.5      3.119      4.323
REMARK  Name = 
REMARK  7 active torsions:
REMARK  status: ('A' for Active; 'I' for Inactive)
REMARK    1  A    between atoms: C_1  and  C_2
REMARK    2  A    between atoms: C_5  and  S_6
REMARK    3  A    between atoms: S_6  and  O_9
REMARK    4  A    between atoms: O_9  and  I_10
REMARK    5  A    between atoms: I_10  and  O_11
REMARK    6  A    between atoms: I_10  and  C_12
REMARK    7  A    between atoms: C_12  and  C_13
REMARK                            x       y       z     vdW  Elec       q    Type
REMARK                         _______ _______ _______ _____ _____    ______ ____
ROOT
ATOM      1  S   UNL     1       5.983   5.461  18.007  0.00  0.00    +0.000 S 
ATOM      2  O   UNL     1       7.027   6.530  18.365  0.00  0.00    +0.000 OA
ATOM      3  O   UNL     1       4.644   6.186  18.238  0.00  0.00    +0.000 OA
ENDROOT
BRANCH   1   8
ATOM      4  C   UNL     1       6.413   3.561  12.261  0.00  0.00    +0.000 C 
ATOM      5  C   UNL     1       6.301   4.043  13.669  0.00  0.00    +0.000 A 
ATOM      6  C   UNL     1       5.162   3.748  14.442  0.00  0.00    +0.000 A 
ATOM      7  C   UNL     1       5.077   4.198  15.759  0.00  0.00    +0.000 A 
ATOM      8  C   UNL     1       6.125   4.931  16.321  0.00  0.00    +0.000 A 
ATOM      9  C   UNL     1       7.257   5.237  15.567  0.00  0.00    +0.000 A 
ATOM     10  C   UNL     1       7.353   4.792  14.238  0.00  0.00    +0.000 A 
ENDBRANCH   1   8
BRANCH   1  11
ATOM     11  O   UNL     1       6.124   4.216  19.192  0.00  0.00    +0.000 OA
BRANCH  11  12
ATOM     12  I   UNL     1       4.252   3.498  19.442  0.00  0.00    +0.000 I 
BRANCH  12  13
ATOM     13  O   UNL     1       5.030   1.771  20.220  0.00  0.00    +0.000 OA
ATOM     14  H   UNL     1       4.370   1.055  20.036  0.00  0.00    +0.000 HD
ENDBRANCH  12  13
BRANCH  12  15
ATOM     15  C   UNL     1       2.260   2.806  19.697  0.00  0.00    +0.000 C 
BRANCH  15  16
ATOM     16  C   UNL     1       1.570   3.531  20.856  0.00  0.00    +0.000 C 
ATOM     17  F   UNL     1       1.151   2.638  21.827  0.00  0.00    +0.000 F 
ATOM     18  F   UNL     1       2.441   4.437  21.432  0.00  0.00    +0.000 F 
ATOM     19  F   UNL     1       0.462   4.208  20.380  0.00  0.00    +0.000 F 
ENDBRANCH  15  16
ENDBRANCH  12  15
ENDBRANCH  11  12
ENDBRANCH   1  11
TORSDOF 6
ENDMDL
MODEL 5
REMARK VINA RESULT:      -6.5      3.456      4.603
REMARK  Name = 
REMARK  7 active torsions:
REMARK  status: ('A' for Active; 'I' for Inactive)
REMARK    1  A    between atoms: C_1  and  C_2
REMARK    2  A    between atoms: C_5  and  S_6
REMARK    3  A    between atoms: S_6  and  O_9
REMARK    4  A    between atoms: O_9  and  I_10
REMARK    5  A    between atoms: I_10  and  O_11
REMARK    6  A    between atoms: I_10  and  C_12
REMARK    7  A    between atoms: C_12  and  C_13
REMARK                            x       y       z     vdW  Elec       q    Type
REMARK                         _______ _______ _______ _____ _____    ______ ____
ROOT
ATOM      1  S   UNL     1       6.024   5.549  17.881  0.00  0.00    +0.000 S 
ATOM      2  O   UNL     1       7.096   6.603  18.196  0.00  0.00    +0.000 OA
ATOM      3  O   UNL     1       4.705   6.314  18.099  0.00  0.00    +0.000 OA
ENDROOT
BRANCH   1   8
ATOM      4  C   UNL     1       6.357   3.459  12.195  0.00  0.00    +0.000 C 
ATOM      5  C   UNL     1       6.270   3.989  13.587  0.00  0.00    +0.000 A 
ATOM      6  C   UNL     1       5.111   3.788  14.362  0.00  0.00    +0.000 A 
ATOM      7  C   UNL     1       5.049   4.281  15.664  0.00  0.00    +0.000 A 
ATOM      8  C   UNL     1       6.139   4.963  16.211  0.00  0.00    +0.000 A 
ATOM      9  C   UNL     1       7.292   5.175  15.456  0.00  0.00    +0.000 A 
ATOM     10  C   UNL     1       7.365   4.686  14.141  0.00  0.00    +0.000 A 
ENDBRANCH   1   8
BRANCH   1  11
ATOM     11  O   UNL     1       6.144   4.339  19.104  0.00  0.00    +0.000 OA
BRANCH  11  12
ATOM     12  I   UNL     1       4.258   3.675  19.389  0.00  0.00    +0.000 I 
BRANCH  12  13
ATOM     13  O   UNL     1       4.998   1.842  19.929  0.00  0.00    +0.000 OA
ATOM     14  H   UNL     1       4.455   1.165  19.450  0.00  0.00    +0.000 HD
ENDBRANCH  12  13
BRANCH  12  15
ATOM     15  C   UNL     1       2.253   3.039  19.689  0.00  0.00    +0.000 C 
BRANCH  15  16
ATOM     16  C   UNL     1       1.561   2.754  18.354  0.00  0.00    +0.000 C 
ATOM     17  F   UNL     1       0.385   2.047  18.539  0.00  0.00    +0.000 F 
ATOM     18  F   UNL     1       1.268   3.942  17.710  0.00  0.00    +0.000 F 
ATOM     19  F   UNL     1       2.400   2.001  17.553  0.00  0.00    +0.000 F 
ENDBRANCH  15  16
ENDBRANCH  12  15
ENDBRANCH  11  12
ENDBRANCH   1  11
TORSDOF 6
ENDMDL
MODEL 6
REMARK VINA RESULT:      -6.4      3.156      4.402
REMARK  Name = 
REMARK  7 active torsions:
REMARK  status: ('A' for Active; 'I' for Inactive)
REMARK    1  A    between atoms: C_1  and  C_2
REMARK    2  A    between atoms: C_5  and  S_6
REMARK    3  A    between atoms: S_6  and  O_9
REMARK    4  A    between atoms: O_9  and  I_10
REMARK    5  A    between atoms: I_10  and  O_11
REMARK    6  A    between atoms: I_10  and  C_12
REMARK    7  A    between atoms: C_12  and  C_13
REMARK                            x       y       z     vdW  Elec       q    Type
REMARK                         _______ _______ _______ _____ _____    ______ ____
ROOT
ATOM      1  S   UNL     1       5.696   4.844  18.836  0.00  0.00    +0.000 S 
ATOM      2  O   UNL     1       5.120   3.605  19.539  0.00  0.00    +0.000 OA
ATOM      3  O   UNL     1       7.056   5.042  19.530  0.00  0.00    +0.000 OA
ENDROOT
BRANCH   1   8
ATOM      4  C   UNL     1       6.374   3.861  12.888  0.00  0.00    +0.000 C 
ATOM      5  C   UNL     1       6.202   4.119  14.348  0.00  0.00    +0.000 A 
ATOM      6  C   UNL     1       5.009   3.762  15.006  0.00  0.00    +0.000 A 
ATOM      7  C   UNL     1       4.868   4.001  16.372  0.00  0.00    +0.000 A 
ATOM      8  C   UNL     1       5.912   4.582  17.096  0.00  0.00    +0.000 A 
ATOM      9  C   UNL     1       7.097   4.947  16.459  0.00  0.00    +0.000 A 
ATOM     10  C   UNL     1       7.250   4.714  15.082  0.00  0.00    +0.000 A 
ENDBRANCH   1   8
BRANCH   1  11
ATOM     11  O   UNL     1       4.683   6.173  19.268  0.00  0.00    +0.000 OA
BRANCH  11  12
ATOM     12  I   UNL     1       2.911   5.350  19.783  0.00  0.00    +0.000 I 
BRANCH  12  13
ATOM     13  O   UNL     1       2.295   7.163  20.511  0.00  0.00    +0.000 OA
ATOM     14  H   UNL     1       2.629   7.223  21.443  0.00  0.00    +0.000 HD
ENDBRANCH  12  13
BRANCH  12  15
ATOM     15  C   UNL     1       1.061   4.434  20.285  0.00  0.00    +0.000 C 
BRANCH  15  16
ATOM     16  C   UNL     1       1.201   2.911  20.348  0.00  0.00    +0.000 C 
ATOM     17  F   UNL     1       0.905   2.432  21.613  0.00  0.00    +0.000 F 
ATOM     18  F   UNL     1       0.346   2.318  19.437  0.00  0.00    +0.000 F 
ATOM     19  F   UNL     1       2.502   2.556  20.042  0.00  0.00    +0.000 F 
ENDBRANCH  15  16
ENDBRANCH  12  15
ENDBRANCH  11  12
ENDBRANCH   1  11
TORSDOF 6
ENDMDL
MODEL 7
REMARK VINA RESULT:      -6.4      1.291      1.698
REMARK  Name = 
REMARK  7 active torsions:
REMARK  status: ('A' for Active; 'I' for Inactive)
REMARK    1  A    between atoms: C_1  and  C_2
REMARK    2  A    between atoms: C_5  and  S_6
REMARK    3  A    between atoms: S_6  and  O_9
REMARK    4  A    between atoms: O_9  and  I_10
REMARK    5  A    between atoms: I_10  and  O_11
REMARK    6  A    between atoms: I_10  and  C_12
REMARK    7  A    between atoms: C_12  and  C_13
REMARK                            x       y       z     vdW  Elec       q    Type
REMARK                         _______ _______ _______ _____ _____    ______ ____
ROOT
ATOM      1  S   UNL     1       3.950   6.111  18.075  0.00  0.00    +0.000 S 
ATOM      2  O   UNL     1       5.089   6.684  17.218  0.00  0.00    +0.000 OA
ATOM      3  O   UNL     1       4.687   5.524  19.293  0.00  0.00    +0.000 OA
ENDROOT
BRANCH   1   8
ATOM      4  C   UNL     1      -0.022  10.331  19.869  0.00  0.00    +0.000 C 
ATOM      5  C   UNL     1       0.968   9.303  19.432  0.00  0.00    +0.000 A 
ATOM      6  C   UNL     1       1.359   8.267  20.300  0.00  0.00    +0.000 A 
ATOM      7  C   UNL     1       2.278   7.309  19.874  0.00  0.00    +0.000 A 
ATOM      8  C   UNL     1       2.803   7.365  18.581  0.00  0.00    +0.000 A 
ATOM      9  C   UNL     1       2.431   8.388  17.710  0.00  0.00    +0.000 A 
ATOM     10  C   UNL     1       1.508   9.361  18.129  0.00  0.00    +0.000 A 
ENDBRANCH   1   8
BRANCH   1  11
ATOM     11  O   UNL     1       3.271   4.800  17.182  0.00  0.00    +0.000 OA
BRANCH  11  12
ATOM     12  I   UNL     1       2.472   3.565  18.567  0.00  0.00    +0.000 I 
BRANCH  12  13
ATOM     13  O   UNL     1       4.267   2.589  18.716  0.00  0.00    +0.000 OA
ATOM     14  H   UNL     1       4.522   2.324  17.796  0.00  0.00    +0.000 HD
ENDBRANCH  12  13
BRANCH  12  15
ATOM     15  C   UNL     1       1.582   2.309  20.032  0.00  0.00    +0.000 C 
BRANCH  15  16
ATOM     16  C   UNL     1       1.849   2.837  21.444  0.00  0.00    +0.000 C 
ATOM     17  F   UNL     1       0.832   2.481  22.313  0.00  0.00    +0.000 F 
ATOM     18  F   UNL     1       3.041   2.326  21.922  0.00  0.00    +0.000 F 
ATOM     19  F   UNL     1       1.929   4.217  21.411  0.00  0.00    +0.000 F 
ENDBRANCH  15  16
ENDBRANCH  12  15
ENDBRANCH  11  12
ENDBRANCH   1  11
TORSDOF 6
ENDMDL
MODEL 8
REMARK VINA RESULT:      -6.4      0.848      1.459
REMARK  Name = 
REMARK  7 active torsions:
REMARK  status: ('A' for Active; 'I' for Inactive)
REMARK    1  A    between atoms: C_1  and  C_2
REMARK    2  A    between atoms: C_5  and  S_6
REMARK    3  A    between atoms: S_6  and  O_9
REMARK    4  A    between atoms: O_9  and  I_10
REMARK    5  A    between atoms: I_10  and  O_11
REMARK    6  A    between atoms: I_10  and  C_12
REMARK    7  A    between atoms: C_12  and  C_13
REMARK                            x       y       z     vdW  Elec       q    Type
REMARK                         _______ _______ _______ _____ _____    ______ ____
ROOT
ATOM      1  S   UNL     1       4.545   5.658  17.628  0.00  0.00    +0.000 S 
ATOM      2  O   UNL     1       5.531   6.300  16.641  0.00  0.00    +0.000 OA
ATOM      3  O   UNL     1       5.460   5.147  18.756  0.00  0.00    +0.000 OA
ENDROOT
BRANCH   1   8
ATOM      4  C   UNL     1       0.580   9.746  19.719  0.00  0.00    +0.000 C 
ATOM      5  C   UNL     1       1.542   8.731  19.199  0.00  0.00    +0.000 A 
ATOM      6  C   UNL     1       2.100   8.861  17.913  0.00  0.00    +0.000 A 
ATOM      7  C   UNL     1       3.005   7.908  17.446  0.00  0.00    +0.000 A 
ATOM      8  C   UNL     1       3.372   6.830  18.255  0.00  0.00    +0.000 A 
ATOM      9  C   UNL     1       2.825   6.684  19.529  0.00  0.00    +0.000 A 
ATOM     10  C   UNL     1       1.910   7.635  20.010  0.00  0.00    +0.000 A 
ENDBRANCH   1   8
BRANCH   1  11
ATOM     11  O   UNL     1       3.870   4.285  16.829  0.00  0.00    +0.000 OA
BRANCH  11  12
ATOM     12  I   UNL     1       2.833   3.294  18.251  0.00  0.00    +0.000 I 
BRANCH  12  13
ATOM     13  O   UNL     1       4.556   2.353  18.836  0.00  0.00    +0.000 OA
ATOM     14  H   UNL     1       5.285   3.019  18.752  0.00  0.00    +0.000 HD
ENDBRANCH  12  13
BRANCH  12  15
ATOM     15  C   UNL     1       1.693   2.294  19.740  0.00  0.00    +0.000 C 
BRANCH  15  16
ATOM     16  C   UNL     1       1.398   3.223  20.921  0.00  0.00    +0.000 C 
ATOM     17  F   UNL     1       0.493   4.209  20.570  0.00  0.00    +0.000 F 
ATOM     18  F   UNL     1       0.875   2.496  21.975  0.00  0.00    +0.000 F 
ATOM     19  F   UNL     1       2.570   3.832  21.330  0.00  0.00    +0.000 F 
ENDBRANCH  15  16
ENDBRANCH  12  15
ENDBRANCH  11  12
ENDBRANCH   1  11
TORSDOF 6
ENDMDL
MODEL 9
REMARK VINA RESULT:      -6.4      0.734      1.803
REMARK  Name = 
REMARK  7 active torsions:
REMARK  status: ('A' for Active; 'I' for Inactive)
REMARK    1  A    between atoms: C_1  and  C_2
REMARK    2  A    between atoms: C_5  and  S_6
REMARK    3  A    between atoms: S_6  and  O_9
REMARK    4  A    between atoms: O_9  and  I_10
REMARK    5  A    between atoms: I_10  and  O_11
REMARK    6  A    between atoms: I_10  and  C_12
REMARK    7  A    between atoms: C_12  and  C_13
REMARK                            x       y       z     vdW  Elec       q    Type
REMARK                         _______ _______ _______ _____ _____    ______ ____
ROOT
ATOM      1  S   UNL     1       5.128   4.839  17.878  0.00  0.00    +0.000 S 
ATOM      2  O   UNL     1       6.231   5.328  16.927  0.00  0.00    +0.000 OA
ATOM      3  O   UNL     1       5.908   4.428  19.140  0.00  0.00    +0.000 OA
ENDROOT
BRANCH   1   8
ATOM      4  C   UNL     1       1.184   9.281  19.110  0.00  0.00    +0.000 C 
ATOM      5  C   UNL     1       2.142   8.179  18.800  0.00  0.00    +0.000 A 
ATOM      6  C   UNL     1       2.883   8.185  17.603  0.00  0.00    +0.000 A 
ATOM      7  C   UNL     1       3.780   7.153  17.333  0.00  0.00    +0.000 A 
ATOM      8  C   UNL     1       3.958   6.117  18.253  0.00  0.00    +0.000 A 
ATOM      9  C   UNL     1       3.228   6.093  19.440  0.00  0.00    +0.000 A 
ATOM     10  C   UNL     1       2.318   7.125  19.722  0.00  0.00    +0.000 A 
ENDBRANCH   1   8
BRANCH   1  11
ATOM     11  O   UNL     1       4.468   3.409  17.173  0.00  0.00    +0.000 OA
BRANCH  11  12
ATOM     12  I   UNL     1       3.027   2.798  18.450  0.00  0.00    +0.000 I 
BRANCH  12  13
ATOM     13  O   UNL     1       1.613   3.674  17.256  0.00  0.00    +0.000 OA
ATOM     14  H   UNL     1       1.726   4.654  17.354  0.00  0.00    +0.000 HD
ENDBRANCH  12  13
BRANCH  12  15
ATOM     15  C   UNL     1       1.555   2.113  19.820  0.00  0.00    +0.000 C 
BRANCH  15  16
ATOM     16  C   UNL     1       1.393   3.091  20.987  0.00  0.00    +0.000 C 
ATOM     17  F   UNL     1       2.616   3.598  21.390  0.00  0.00    +0.000 F 
ATOM     18  F   UNL     1       0.578   4.143  20.613  0.00  0.00    +0.000 F 
ATOM     19  F   UNL     1       0.819   2.435  22.060  0.00  0.00    +0.000 F 
ENDBRANCH  15  16
ENDBRANCH  12  15
ENDBRANCH  11  12
ENDBRANCH   1  11
TORSDOF 6
ENDMDL
