MODEL 1
REMARK VINA RESULT:      -8.3      0.000      0.000
REMARK  Name = 
REMARK  3 active torsions:
REMARK  status: ('A' for Active; 'I' for Inactive)
REMARK    1  A    between atoms: C_2  and  C_16
REMARK    2  A    between atoms: C_7  and  C_8
REMARK    3  A    between atoms: C_20  and  N_21
REMARK                            x       y       z     vdW  Elec       q    Type
REMARK                         _______ _______ _______ _____ _____    ______ ____
ROOT
ATOM      1  O   UNL     1       2.013   6.293  19.273  0.00  0.00    +0.000 OA
ATOM      2  C   UNL     1       2.764   6.671  18.384  0.00  0.00    +0.000 C 
ATOM      3  N   UNL     1       2.821   7.922  17.828  0.00  0.00    +0.000 N 
ATOM      4  C   UNL     1       2.067   8.976  18.254  0.00  0.00    +0.000 A 
ATOM      5  N   UNL     1       1.963  10.131  17.635  0.00  0.00    +0.000 NA
ATOM      6  N   UNL     1       1.145  10.918  18.414  0.00  0.00    +0.000 NA
ATOM      7  C   UNL     1       0.829  10.195  19.472  0.00  0.00    +0.000 A 
ATOM      8  O   UNL     1       1.378   8.937  19.430  0.00  0.00    +0.000 OA
ATOM      9  H   UNL     1       3.339   8.099  16.980  0.00  0.00    +0.000 HD
ENDROOT
BRANCH   7  10
ATOM     10  C   UNL     1       0.034  10.564  20.637  0.00  0.00    +0.000 A 
ATOM     11  C   UNL     1      -0.798  11.698  20.573  0.00  0.00    +0.000 A 
ATOM     12  C   UNL     1      -1.570  12.086  21.671  0.00  0.00    +0.000 A 
ATOM     13  C   UNL     1      -1.515  11.341  22.841  0.00  0.00    +0.000 A 
ATOM     14  F   UNL     1      -2.256  11.708  23.893  0.00  0.00    +0.000 F 
ATOM     15  C   UNL     1      -0.698  10.218  22.933  0.00  0.00    +0.000 A 
ATOM     16  C   UNL     1       0.075   9.831  21.834  0.00  0.00    +0.000 A 
ENDBRANCH   7  10
BRANCH   2  17
ATOM     17  C   UNL     1       3.691   5.685  17.760  0.00  0.00    +0.000 A 
ATOM     18  C   UNL     1       3.358   4.322  17.690  0.00  0.00    +0.000 A 
ATOM     19  C   UNL     1       4.246   3.409  17.120  0.00  0.00    +0.000 A 
ATOM     20  C   UNL     1       5.470   3.847  16.611  0.00  0.00    +0.000 A 
ATOM     21  C   UNL     1       5.794   5.211  16.665  0.00  0.00    +0.000 A 
ATOM     22  C   UNL     1       4.907   6.137  17.232  0.00  0.00    +0.000 A 
BRANCH  21  23
ATOM     23  N   UNL     1       7.085   5.667  16.132  0.00  0.00    +0.000 N 
ATOM     24  O   UNL     1       7.560   6.712  16.595  0.00  0.00    +0.000 OA
ATOM     25  O   UNL     1       7.614   4.983  15.245  0.00  0.00    +0.000 OA
ENDBRANCH  21  23
ENDBRANCH   2  17
TORSDOF 3
ENDMDL
MODEL 2
REMARK VINA RESULT:      -8.3      0.501      1.187
REMARK  Name = 
REMARK  3 active torsions:
REMARK  status: ('A' for Active; 'I' for Inactive)
REMARK    1  A    between atoms: C_2  and  C_16
REMARK    2  A    between atoms: C_7  and  C_8
REMARK    3  A    between atoms: C_20  and  N_21
REMARK                            x       y       z     vdW  Elec       q    Type
REMARK                         _______ _______ _______ _____ _____    ______ ____
ROOT
ATOM      1  O   UNL     1       1.907   6.229  19.358  0.00  0.00    +0.000 OA
ATOM      2  C   UNL     1       2.701   6.565  18.490  0.00  0.00    +0.000 C 
ATOM      3  N   UNL     1       2.828   7.805  17.921  0.00  0.00    +0.000 N 
ATOM      4  C   UNL     1       2.107   8.894  18.312  0.00  0.00    +0.000 A 
ATOM      5  N   UNL     1       2.070  10.045  17.676  0.00  0.00    +0.000 NA
ATOM      6  N   UNL     1       1.262  10.875  18.420  0.00  0.00    +0.000 NA
ATOM      7  C   UNL     1       0.883  10.179  19.476  0.00  0.00    +0.000 A 
ATOM      8  O   UNL     1       1.380   8.899  19.465  0.00  0.00    +0.000 OA
ATOM      9  H   UNL     1       3.380   7.949  17.089  0.00  0.00    +0.000 HD
ENDROOT
BRANCH   7  10
ATOM     10  C   UNL     1       0.068  10.595  20.611  0.00  0.00    +0.000 A 
ATOM     11  C   UNL     1       0.153   9.880  21.821  0.00  0.00    +0.000 A 
ATOM     12  C   UNL     1      -0.617  10.246  22.928  0.00  0.00    +0.000 A 
ATOM     13  C   UNL     1      -1.477  11.331  22.832  0.00  0.00    +0.000 A 
ATOM     14  F   UNL     1      -2.213  11.687  23.892  0.00  0.00    +0.000 F 
ATOM     15  C   UNL     1      -1.584  12.053  21.647  0.00  0.00    +0.000 A 
ATOM     16  C   UNL     1      -0.814  11.686  20.539  0.00  0.00    +0.000 A 
ENDBRANCH   7  10
BRANCH   2  17
ATOM     17  C   UNL     1       3.606   5.533  17.906  0.00  0.00    +0.000 A 
ATOM     18  C   UNL     1       3.141   4.236  17.631  0.00  0.00    +0.000 A 
ATOM     19  C   UNL     1       4.006   3.276  17.103  0.00  0.00    +0.000 A 
ATOM     20  C   UNL     1       5.337   3.602  16.841  0.00  0.00    +0.000 A 
ATOM     21  C   UNL     1       5.795   4.903  17.100  0.00  0.00    +0.000 A 
ATOM     22  C   UNL     1       4.934   5.875  17.626  0.00  0.00    +0.000 A 
BRANCH  21  23
ATOM     23  N   UNL     1       7.199   5.240  16.826  0.00  0.00    +0.000 N 
ATOM     24  O   UNL     1       8.061   4.409  17.141  0.00  0.00    +0.000 OA
ATOM     25  O   UNL     1       7.435   6.340  16.308  0.00  0.00    +0.000 OA
ENDBRANCH  21  23
ENDBRANCH   2  17
TORSDOF 3
ENDMDL
MODEL 3
REMARK VINA RESULT:      -8.3      7.267      9.783
REMARK  Name = 
REMARK  3 active torsions:
REMARK  status: ('A' for Active; 'I' for Inactive)
REMARK    1  A    between atoms: C_2  and  C_16
REMARK    2  A    between atoms: C_7  and  C_8
REMARK    3  A    between atoms: C_20  and  N_21
REMARK                            x       y       z     vdW  Elec       q    Type
REMARK                         _______ _______ _______ _____ _____    ______ ____
ROOT
ATOM      1  O   UNL     1       7.938   9.471  17.229  0.00  0.00    +0.000 OA
ATOM      2  C   UNL     1       8.555   9.276  18.267  0.00  0.00    +0.000 C 
ATOM      3  N   UNL     1       8.652   8.099  18.963  0.00  0.00    +0.000 N 
ATOM      4  C   UNL     1       8.110   6.922  18.538  0.00  0.00    +0.000 A 
ATOM      5  N   UNL     1       8.027   5.824  19.257  0.00  0.00    +0.000 NA
ATOM      6  N   UNL     1       7.455   4.870  18.446  0.00  0.00    +0.000 NA
ATOM      7  C   UNL     1       7.255   5.446  17.275  0.00  0.00    +0.000 A 
ATOM      8  O   UNL     1       7.642   6.763  17.267  0.00  0.00    +0.000 OA
ATOM      9  H   UNL     1       9.027   8.070  19.899  0.00  0.00    +0.000 HD
ENDROOT
BRANCH   7  10
ATOM     10  C   UNL     1       6.728   4.872  16.043  0.00  0.00    +0.000 A 
ATOM     11  C   UNL     1       7.394   5.118  14.828  0.00  0.00    +0.000 A 
ATOM     12  C   UNL     1       6.915   4.590  13.626  0.00  0.00    +0.000 A 
ATOM     13  C   UNL     1       5.766   3.811  13.633  0.00  0.00    +0.000 A 
ATOM     14  F   UNL     1       5.307   3.300  12.484  0.00  0.00    +0.000 F 
ATOM     15  C   UNL     1       5.086   3.556  14.820  0.00  0.00    +0.000 A 
ATOM     16  C   UNL     1       5.565   4.085  16.022  0.00  0.00    +0.000 A 
ENDBRANCH   7  10
BRANCH   2  17
ATOM     17  C   UNL     1       9.240  10.428  18.923  0.00  0.00    +0.000 A 
ATOM     18  C   UNL     1       9.281  10.543  20.322  0.00  0.00    +0.000 A 
ATOM     19  C   UNL     1       9.909  11.637  20.919  0.00  0.00    +0.000 A 
ATOM     20  C   UNL     1      10.503  12.621  20.127  0.00  0.00    +0.000 A 
ATOM     21  C   UNL     1      10.476  12.496  18.730  0.00  0.00    +0.000 A 
ATOM     22  C   UNL     1       9.852  11.399  18.121  0.00  0.00    +0.000 A 
BRANCH  21  23
ATOM     23  N   UNL     1      11.099  13.536  17.901  0.00  0.00    +0.000 N 
ATOM     24  O   UNL     1      11.809  13.169  16.956  0.00  0.00    +0.000 OA
ATOM     25  O   UNL     1      10.884  14.718  18.204  0.00  0.00    +0.000 OA
ENDBRANCH  21  23
ENDBRANCH   2  17
TORSDOF 3
ENDMDL
MODEL 4
REMARK VINA RESULT:      -8.2      3.346      4.954
REMARK  Name = 
REMARK  3 active torsions:
REMARK  status: ('A' for Active; 'I' for Inactive)
REMARK    1  A    between atoms: C_2  and  C_16
REMARK    2  A    between atoms: C_7  and  C_8
REMARK    3  A    between atoms: C_20  and  N_21
REMARK                            x       y       z     vdW  Elec       q    Type
REMARK                         _______ _______ _______ _____ _____    ______ ____
ROOT
ATOM      1  O   UNL     1       5.168   6.758  15.510  0.00  0.00    +0.000 OA
ATOM      2  C   UNL     1       5.262   5.541  15.438  0.00  0.00    +0.000 C 
ATOM      3  N   UNL     1       4.832   4.622  16.359  0.00  0.00    +0.000 N 
ATOM      4  C   UNL     1       4.150   4.951  17.494  0.00  0.00    +0.000 A 
ATOM      5  N   UNL     1       3.882   4.126  18.482  0.00  0.00    +0.000 NA
ATOM      6  N   UNL     1       3.151   4.843  19.401  0.00  0.00    +0.000 NA
ATOM      7  C   UNL     1       2.999   6.053  18.896  0.00  0.00    +0.000 A 
ATOM      8  O   UNL     1       3.622   6.195  17.681  0.00  0.00    +0.000 OA
ATOM      9  H   UNL     1       5.110   3.654  16.308  0.00  0.00    +0.000 HD
ENDROOT
BRANCH   7  10
ATOM     10  C   UNL     1       2.260   7.190  19.431  0.00  0.00    +0.000 A 
ATOM     11  C   UNL     1       2.019   8.305  18.607  0.00  0.00    +0.000 A 
ATOM     12  C   UNL     1       1.319   9.415  19.086  0.00  0.00    +0.000 A 
ATOM     13  C   UNL     1       0.856   9.417  20.395  0.00  0.00    +0.000 A 
ATOM     14  F   UNL     1       0.182  10.477  20.856  0.00  0.00    +0.000 F 
ATOM     15  C   UNL     1       1.085   8.330  21.233  0.00  0.00    +0.000 A 
ATOM     16  C   UNL     1       1.785   7.219  20.752  0.00  0.00    +0.000 A 
ENDBRANCH   7  10
BRANCH   2  17
ATOM     17  C   UNL     1       5.973   4.943  14.271  0.00  0.00    +0.000 A 
ATOM     18  C   UNL     1       7.285   5.329  13.949  0.00  0.00    +0.000 A 
ATOM     19  C   UNL     1       7.930   4.774  12.842  0.00  0.00    +0.000 A 
ATOM     20  C   UNL     1       7.274   3.829  12.051  0.00  0.00    +0.000 A 
ATOM     21  C   UNL     1       5.970   3.432  12.385  0.00  0.00    +0.000 A 
ATOM     22  C   UNL     1       5.316   3.979  13.496  0.00  0.00    +0.000 A 
BRANCH  21  23
ATOM     23  N   UNL     1       5.283   2.440  11.546  0.00  0.00    +0.000 N 
ATOM     24  O   UNL     1       5.875   1.379  11.309  0.00  0.00    +0.000 OA
ATOM     25  O   UNL     1       4.157   2.731  11.119  0.00  0.00    +0.000 OA
ENDBRANCH  21  23
ENDBRANCH   2  17
TORSDOF 3
ENDMDL
MODEL 5
REMARK VINA RESULT:      -8.1      1.448      1.723
REMARK  Name = 
REMARK  3 active torsions:
REMARK  status: ('A' for Active; 'I' for Inactive)
REMARK    1  A    between atoms: C_2  and  C_16
REMARK    2  A    between atoms: C_7  and  C_8
REMARK    3  A    between atoms: C_20  and  N_21
REMARK                            x       y       z     vdW  Elec       q    Type
REMARK                         _______ _______ _______ _____ _____    ______ ____
ROOT
ATOM      1  O   UNL     1       3.648   6.126  19.465  0.00  0.00    +0.000 OA
ATOM      2  C   UNL     1       4.089   6.508  18.390  0.00  0.00    +0.000 C 
ATOM      3  N   UNL     1       3.606   7.530  17.615  0.00  0.00    +0.000 N 
ATOM      4  C   UNL     1       2.571   8.336  17.985  0.00  0.00    +0.000 A 
ATOM      5  N   UNL     1       1.966   9.200  17.199  0.00  0.00    +0.000 NA
ATOM      6  N   UNL     1       1.014   9.828  17.970  0.00  0.00    +0.000 NA
ATOM      7  C   UNL     1       1.123   9.321  19.184  0.00  0.00    +0.000 A 
ATOM      8  O   UNL     1       2.093   8.353  19.262  0.00  0.00    +0.000 OA
ATOM      9  H   UNL     1       3.914   7.660  16.663  0.00  0.00    +0.000 HD
ENDROOT
BRANCH   7  10
ATOM     10  C   UNL     1       0.395   9.670  20.398  0.00  0.00    +0.000 A 
ATOM     11  C   UNL     1      -0.183  10.948  20.512  0.00  0.00    +0.000 A 
ATOM     12  C   UNL     1      -0.883  11.321  21.662  0.00  0.00    +0.000 A 
ATOM     13  C   UNL     1      -1.011  10.415  22.706  0.00  0.00    +0.000 A 
ATOM     14  F   UNL     1      -1.684  10.768  23.808  0.00  0.00    +0.000 F 
ATOM     15  C   UNL     1      -0.446   9.146  22.622  0.00  0.00    +0.000 A 
ATOM     16  C   UNL     1       0.255   8.774  21.471  0.00  0.00    +0.000 A 
ENDBRANCH   7  10
BRANCH   2  17
ATOM     17  C   UNL     1       5.236   5.774  17.782  0.00  0.00    +0.000 A 
ATOM     18  C   UNL     1       6.279   5.274  18.580  0.00  0.00    +0.000 A 
ATOM     19  C   UNL     1       7.355   4.605  17.993  0.00  0.00    +0.000 A 
ATOM     20  C   UNL     1       7.397   4.427  16.609  0.00  0.00    +0.000 A 
ATOM     21  C   UNL     1       6.346   4.912  15.816  0.00  0.00    +0.000 A 
ATOM     22  C   UNL     1       5.259   5.580  16.396  0.00  0.00    +0.000 A 
BRANCH  21  23
ATOM     23  N   UNL     1       6.398   4.725  14.359  0.00  0.00    +0.000 N 
ATOM     24  O   UNL     1       7.338   5.247  13.746  0.00  0.00    +0.000 OA
ATOM     25  O   UNL     1       5.491   4.066  13.832  0.00  0.00    +0.000 OA
ENDBRANCH  21  23
ENDBRANCH   2  17
TORSDOF 3
ENDMDL
MODEL 6
REMARK VINA RESULT:      -8.1      3.320      4.962
REMARK  Name = 
REMARK  3 active torsions:
REMARK  status: ('A' for Active; 'I' for Inactive)
REMARK    1  A    between atoms: C_2  and  C_16
REMARK    2  A    between atoms: C_7  and  C_8
REMARK    3  A    between atoms: C_20  and  N_21
REMARK                            x       y       z     vdW  Elec       q    Type
REMARK                         _______ _______ _______ _____ _____    ______ ____
ROOT
ATOM      1  O   UNL     1       5.144   6.803  15.493  0.00  0.00    +0.000 OA
ATOM      2  C   UNL     1       5.242   5.585  15.441  0.00  0.00    +0.000 C 
ATOM      3  N   UNL     1       4.817   4.681  16.379  0.00  0.00    +0.000 N 
ATOM      4  C   UNL     1       4.137   5.026  17.509  0.00  0.00    +0.000 A 
ATOM      5  N   UNL     1       3.875   4.216  18.512  0.00  0.00    +0.000 NA
ATOM      6  N   UNL     1       3.144   4.947  19.421  0.00  0.00    +0.000 NA
ATOM      7  C   UNL     1       2.987   6.147  18.896  0.00  0.00    +0.000 A 
ATOM      8  O   UNL     1       3.606   6.271  17.677  0.00  0.00    +0.000 OA
ATOM      9  H   UNL     1       5.098   3.713  16.343  0.00  0.00    +0.000 HD
ENDROOT
BRANCH   7  10
ATOM     10  C   UNL     1       2.245   7.291  19.414  0.00  0.00    +0.000 A 
ATOM     11  C   UNL     1       1.765   7.259  20.737  0.00  0.00    +0.000 A 
ATOM     12  C   UNL     1       1.046   8.333  21.267  0.00  0.00    +0.000 A 
ATOM     13  C   UNL     1       0.802   9.447  20.476  0.00  0.00    +0.000 A 
ATOM     14  F   UNL     1       0.116  10.480  20.982  0.00  0.00    +0.000 F 
ATOM     15  C   UNL     1       1.261   9.503  19.163  0.00  0.00    +0.000 A 
ATOM     16  C   UNL     1       1.980   8.428  18.634  0.00  0.00    +0.000 A 
ENDBRANCH   7  10
BRANCH   2  17
ATOM     17  C   UNL     1       5.952   4.971  14.282  0.00  0.00    +0.000 A 
ATOM     18  C   UNL     1       7.271   5.335  13.967  0.00  0.00    +0.000 A 
ATOM     19  C   UNL     1       7.915   4.765  12.868  0.00  0.00    +0.000 A 
ATOM     20  C   UNL     1       7.250   3.825  12.077  0.00  0.00    +0.000 A 
ATOM     21  C   UNL     1       5.939   3.450  12.404  0.00  0.00    +0.000 A 
ATOM     22  C   UNL     1       5.285   4.013  13.508  0.00  0.00    +0.000 A 
BRANCH  21  23
ATOM     23  N   UNL     1       5.242   2.464  11.566  0.00  0.00    +0.000 N 
ATOM     24  O   UNL     1       4.117   2.762  11.143  0.00  0.00    +0.000 OA
ATOM     25  O   UNL     1       5.817   1.390  11.345  0.00  0.00    +0.000 OA
ENDBRANCH  21  23
ENDBRANCH   2  17
TORSDOF 3
ENDMDL
MODEL 7
REMARK VINA RESULT:      -8.1      3.992      9.065
REMARK  Name = 
REMARK  3 active torsions:
REMARK  status: ('A' for Active; 'I' for Inactive)
REMARK    1  A    between atoms: C_2  and  C_16
REMARK    2  A    between atoms: C_7  and  C_8
REMARK    3  A    between atoms: C_20  and  N_21
REMARK                            x       y       z     vdW  Elec       q    Type
REMARK                         _______ _______ _______ _____ _____    ______ ____
ROOT
ATOM      1  O   UNL     1       1.874   8.620  18.966  0.00  0.00    +0.000 OA
ATOM      2  C   UNL     1       1.585   8.224  20.086  0.00  0.00    +0.000 C 
ATOM      3  N   UNL     1       1.883   7.004  20.634  0.00  0.00    +0.000 N 
ATOM      4  C   UNL     1       2.634   6.056  20.005  0.00  0.00    +0.000 A 
ATOM      5  N   UNL     1       2.788   4.816  20.418  0.00  0.00    +0.000 NA
ATOM      6  N   UNL     1       3.645   4.213  19.525  0.00  0.00    +0.000 NA
ATOM      7  C   UNL     1       3.977   5.137  18.643  0.00  0.00    +0.000 A 
ATOM      8  O   UNL     1       3.357   6.338  18.884  0.00  0.00    +0.000 OA
ATOM      9  H   UNL     1       1.452   6.692  21.491  0.00  0.00    +0.000 HD
ENDROOT
BRANCH   7  10
ATOM     10  C   UNL     1       4.900   5.048  17.518  0.00  0.00    +0.000 A 
ATOM     11  C   UNL     1       6.037   5.877  17.492  0.00  0.00    +0.000 A 
ATOM     12  C   UNL     1       6.941   5.825  16.428  0.00  0.00    +0.000 A 
ATOM     13  C   UNL     1       6.713   4.941  15.382  0.00  0.00    +0.000 A 
ATOM     14  F   UNL     1       7.579   4.886  14.363  0.00  0.00    +0.000 F 
ATOM     15  C   UNL     1       5.595   4.114  15.380  0.00  0.00    +0.000 A 
ATOM     16  C   UNL     1       4.690   4.167  16.444  0.00  0.00    +0.000 A 
ENDBRANCH   7  10
BRANCH   2  17
ATOM     17  C   UNL     1       0.761   9.101  20.968  0.00  0.00    +0.000 A 
ATOM     18  C   UNL     1       0.708   8.887  22.355  0.00  0.00    +0.000 A 
ATOM     19  C   UNL     1      -0.083   9.705  23.164  0.00  0.00    +0.000 A 
ATOM     20  C   UNL     1      -0.823  10.744  22.597  0.00  0.00    +0.000 A 
ATOM     21  C   UNL     1      -0.755  10.968  21.213  0.00  0.00    +0.000 A 
ATOM     22  C   UNL     1       0.040  10.155  20.393  0.00  0.00    +0.000 A 
BRANCH  21  23
ATOM     23  N   UNL     1      -1.539  12.060  20.621  0.00  0.00    +0.000 N 
ATOM     24  O   UNL     1      -1.426  12.253  19.403  0.00  0.00    +0.000 OA
ATOM     25  O   UNL     1      -2.257  12.728  21.377  0.00  0.00    +0.000 OA
ENDBRANCH  21  23
ENDBRANCH   2  17
TORSDOF 3
ENDMDL
MODEL 8
REMARK VINA RESULT:      -8.1      3.940      9.063
REMARK  Name = 
REMARK  3 active torsions:
REMARK  status: ('A' for Active; 'I' for Inactive)
REMARK    1  A    between atoms: C_2  and  C_16
REMARK    2  A    between atoms: C_7  and  C_8
REMARK    3  A    between atoms: C_20  and  N_21
REMARK                            x       y       z     vdW  Elec       q    Type
REMARK                         _______ _______ _______ _____ _____    ______ ____
ROOT
ATOM      1  O   UNL     1       1.716   9.072  17.688  0.00  0.00    +0.000 OA
ATOM      2  C   UNL     1       1.520   8.972  18.891  0.00  0.00    +0.000 C 
ATOM      3  N   UNL     1       1.862   7.919  19.699  0.00  0.00    +0.000 N 
ATOM      4  C   UNL     1       2.556   6.828  19.268  0.00  0.00    +0.000 A 
ATOM      5  N   UNL     1       2.743   5.726  19.962  0.00  0.00    +0.000 NA
ATOM      6  N   UNL     1       3.521   4.902  19.181  0.00  0.00    +0.000 NA
ATOM      7  C   UNL     1       3.780   5.571  18.073  0.00  0.00    +0.000 A 
ATOM      8  O   UNL     1       3.185   6.808  18.057  0.00  0.00    +0.000 OA
ATOM      9  H   UNL     1       1.503   7.838  20.639  0.00  0.00    +0.000 HD
ENDROOT
BRANCH   7  10
ATOM     10  C   UNL     1       4.607   5.187  16.935  0.00  0.00    +0.000 A 
ATOM     11  C   UNL     1       5.088   6.183  16.065  0.00  0.00    +0.000 A 
ATOM     12  C   UNL     1       5.878   5.852  14.961  0.00  0.00    +0.000 A 
ATOM     13  C   UNL     1       6.192   4.521  14.721  0.00  0.00    +0.000 A 
ATOM     14  F   UNL     1       6.951   4.201  13.666  0.00  0.00    +0.000 F 
ATOM     15  C   UNL     1       5.725   3.516  15.563  0.00  0.00    +0.000 A 
ATOM     16  C   UNL     1       4.934   3.848  16.667  0.00  0.00    +0.000 A 
ENDBRANCH   7  10
BRANCH   2  17
ATOM     17  C   UNL     1       0.774  10.058  19.590  0.00  0.00    +0.000 A 
ATOM     18  C   UNL     1       0.490  11.272  18.943  0.00  0.00    +0.000 A 
ATOM     19  C   UNL     1      -0.193  12.285  19.618  0.00  0.00    +0.000 A 
ATOM     20  C   UNL     1      -0.601  12.095  20.939  0.00  0.00    +0.000 A 
ATOM     21  C   UNL     1      -0.331  10.875  21.578  0.00  0.00    +0.000 A 
ATOM     22  C   UNL     1       0.350   9.850  20.908  0.00  0.00    +0.000 A 
BRANCH  21  23
ATOM     23  N   UNL     1      -0.758  10.681  22.971  0.00  0.00    +0.000 N 
ATOM     24  O   UNL     1      -1.821  11.209  23.324  0.00  0.00    +0.000 OA
ATOM     25  O   UNL     1      -0.023  10.011  23.709  0.00  0.00    +0.000 OA
ENDBRANCH  21  23
ENDBRANCH   2  17
TORSDOF 3
ENDMDL
MODEL 9
REMARK VINA RESULT:      -8.1      4.003      9.076
REMARK  Name = 
REMARK  3 active torsions:
REMARK  status: ('A' for Active; 'I' for Inactive)
REMARK    1  A    between atoms: C_2  and  C_16
REMARK    2  A    between atoms: C_7  and  C_8
REMARK    3  A    between atoms: C_20  and  N_21
REMARK                            x       y       z     vdW  Elec       q    Type
REMARK                         _______ _______ _______ _____ _____    ______ ____
ROOT
ATOM      1  O   UNL     1       1.839   8.749  19.078  0.00  0.00    +0.000 OA
ATOM      2  C   UNL     1       1.503   8.336  20.178  0.00  0.00    +0.000 C 
ATOM      3  N   UNL     1       1.760   7.100  20.711  0.00  0.00    +0.000 N 
ATOM      4  C   UNL     1       2.517   6.150  20.090  0.00  0.00    +0.000 A 
ATOM      5  N   UNL     1       2.634   4.901  20.483  0.00  0.00    +0.000 NA
ATOM      6  N   UNL     1       3.513   4.300  19.609  0.00  0.00    +0.000 NA
ATOM      7  C   UNL     1       3.892   5.235  18.759  0.00  0.00    +0.000 A 
ATOM      8  O   UNL     1       3.285   6.442  19.003  0.00  0.00    +0.000 OA
ATOM      9  H   UNL     1       1.293   6.778  21.546  0.00  0.00    +0.000 HD
ENDROOT
BRANCH   7  10
ATOM     10  C   UNL     1       4.854   5.152  17.667  0.00  0.00    +0.000 A 
ATOM     11  C   UNL     1       4.618   4.258  16.606  0.00  0.00    +0.000 A 
ATOM     12  C   UNL     1       5.520   4.147  15.544  0.00  0.00    +0.000 A 
ATOM     13  C   UNL     1       6.665   4.931  15.538  0.00  0.00    +0.000 A 
ATOM     14  F   UNL     1       7.529   4.830  14.520  0.00  0.00    +0.000 F 
ATOM     15  C   UNL     1       6.926   5.820  16.576  0.00  0.00    +0.000 A 
ATOM     16  C   UNL     1       6.024   5.930  17.638  0.00  0.00    +0.000 A 
ENDBRANCH   7  10
BRANCH   2  17
ATOM     17  C   UNL     1       0.663   9.209  21.048  0.00  0.00    +0.000 A 
ATOM     18  C   UNL     1       0.567   8.977  22.429  0.00  0.00    +0.000 A 
ATOM     19  C   UNL     1      -0.239   9.792  23.226  0.00  0.00    +0.000 A 
ATOM     20  C   UNL     1      -0.951  10.847  22.652  0.00  0.00    +0.000 A 
ATOM     21  C   UNL     1      -0.840  11.089  21.274  0.00  0.00    +0.000 A 
ATOM     22  C   UNL     1      -0.030  10.279  20.467  0.00  0.00    +0.000 A 
BRANCH  21  23
ATOM     23  N   UNL     1      -1.594  12.198  20.674  0.00  0.00    +0.000 N 
ATOM     24  O   UNL     1      -1.184  12.657  19.600  0.00  0.00    +0.000 OA
ATOM     25  O   UNL     1      -2.589  12.613  21.285  0.00  0.00    +0.000 OA
ENDBRANCH  21  23
ENDBRANCH   2  17
TORSDOF 3
ENDMDL
