MODEL 1
REMARK VINA RESULT:      -5.6      0.000      0.000
REMARK  Name = 
REMARK  2 active torsions:
REMARK  status: ('A' for Active; 'I' for Inactive)
REMARK    1  A    between atoms: C_1  and  N_2
REMARK    2  A    between atoms: C_6  and  C_7
REMARK                            x       y       z     vdW  Elec       q    Type
REMARK                         _______ _______ _______ _____ _____    ______ ____
ROOT
ATOM      1  C   UNL     1       2.762   2.703  21.348  0.00  0.00    +0.000 C 
ATOM      2  N   UNL     1       1.801   2.438  20.266  0.00  0.00    +0.000 NA
ATOM      3  C   UNL     1       0.931   3.617  20.082  0.00  0.00    +0.000 C 
ATOM      4  C   UNL     1       1.722   4.505  19.168  0.00  0.00    +0.000 C 
ATOM      5  C   UNL     1       1.566   4.367  17.695  0.00  0.00    +0.000 C 
ATOM      6  C   UNL     1       2.706   3.653  18.430  0.00  0.00    +0.000 C 
ATOM      7  C   UNL     1       2.511   2.249  18.970  0.00  0.00    +0.000 C 
ENDROOT
BRANCH   6   8
ATOM      8  C   UNL     1       4.103   4.106  17.977  0.00  0.00    +0.000 A 
ATOM      9  C   UNL     1       4.669   3.834  16.750  0.00  0.00    +0.000 A 
ATOM     10  C   UNL     1       6.018   4.296  16.668  0.00  0.00    +0.000 A 
ATOM     11  C   UNL     1       6.434   4.882  17.842  0.00  0.00    +0.000 A 
ATOM     12  S   UNL     1       5.182   4.947  19.002  0.00  0.00    +0.000 S 
ENDBRANCH   6   8
TORSDOF 1
ENDMDL
MODEL 2
REMARK VINA RESULT:      -5.5      0.923      1.238
REMARK  Name = 
REMARK  2 active torsions:
REMARK  status: ('A' for Active; 'I' for Inactive)
REMARK    1  A    between atoms: C_1  and  N_2
REMARK    2  A    between atoms: C_6  and  C_7
REMARK                            x       y       z     vdW  Elec       q    Type
REMARK                         _______ _______ _______ _____ _____    ______ ____
ROOT
ATOM      1  C   UNL     1       2.526   2.712  21.500  0.00  0.00    +0.000 C 
ATOM      2  N   UNL     1       1.684   2.476  20.319  0.00  0.00    +0.000 NA
ATOM      3  C   UNL     1       0.844   3.665  20.067  0.00  0.00    +0.000 C 
ATOM      4  C   UNL     1       1.732   4.563  19.259  0.00  0.00    +0.000 C 
ATOM      5  C   UNL     1       1.732   4.455  17.776  0.00  0.00    +0.000 C 
ATOM      6  C   UNL     1       2.784   3.718  18.612  0.00  0.00    +0.000 C 
ATOM      7  C   UNL     1       2.525   2.305  19.101  0.00  0.00    +0.000 C 
ENDROOT
BRANCH   6   8
ATOM      8  C   UNL     1       4.224   4.169  18.318  0.00  0.00    +0.000 A 
ATOM      9  C   UNL     1       5.047   4.832  19.204  0.00  0.00    +0.000 A 
ATOM     10  C   UNL     1       6.284   5.212  18.602  0.00  0.00    +0.000 A 
ATOM     11  C   UNL     1       6.349   4.843  17.278  0.00  0.00    +0.000 A 
ATOM     12  S   UNL     1       4.962   3.974  16.788  0.00  0.00    +0.000 S 
ENDBRANCH   6   8
TORSDOF 1
ENDMDL
MODEL 3
REMARK VINA RESULT:      -5.4      1.477      1.498
REMARK  Name = 
REMARK  2 active torsions:
REMARK  status: ('A' for Active; 'I' for Inactive)
REMARK    1  A    between atoms: C_1  and  N_2
REMARK    2  A    between atoms: C_6  and  C_7
REMARK                            x       y       z     vdW  Elec       q    Type
REMARK                         _______ _______ _______ _____ _____    ______ ____
ROOT
ATOM      1  C   UNL     1       4.316   2.268  20.074  0.00  0.00    +0.000 C 
ATOM      2  N   UNL     1       3.118   1.959  19.279  0.00  0.00    +0.000 NA
ATOM      3  C   UNL     1       1.993   2.799  19.738  0.00  0.00    +0.000 C 
ATOM      4  C   UNL     1       2.172   4.080  18.978  0.00  0.00    +0.000 C 
ATOM      5  C   UNL     1       1.531   4.239  17.647  0.00  0.00    +0.000 C 
ATOM      6  C   UNL     1       2.991   3.788  17.761  0.00  0.00    +0.000 C 
ATOM      7  C   UNL     1       3.335   2.313  17.848  0.00  0.00    +0.000 C 
ENDROOT
BRANCH   6   8
ATOM      8  C   UNL     1       3.985   4.764  17.109  0.00  0.00    +0.000 A 
ATOM      9  C   UNL     1       4.868   4.444  16.100  0.00  0.00    +0.000 A 
ATOM     10  C   UNL     1       5.734   5.533  15.782  0.00  0.00    +0.000 A 
ATOM     11  C   UNL     1       5.491   6.633  16.573  0.00  0.00    +0.000 A 
ATOM     12  S   UNL     1       4.177   6.379  17.635  0.00  0.00    +0.000 S 
ENDBRANCH   6   8
TORSDOF 1
ENDMDL
MODEL 4
REMARK VINA RESULT:      -5.3      1.230      1.540
REMARK  Name = 
REMARK  2 active torsions:
REMARK  status: ('A' for Active; 'I' for Inactive)
REMARK    1  A    between atoms: C_1  and  N_2
REMARK    2  A    between atoms: C_6  and  C_7
REMARK                            x       y       z     vdW  Elec       q    Type
REMARK                         _______ _______ _______ _____ _____    ______ ____
ROOT
ATOM      1  C   UNL     1       2.673   2.167  19.303  0.00  0.00    +0.000 C 
ATOM      2  N   UNL     1       1.802   3.154  18.649  0.00  0.00    +0.000 NA
ATOM      3  C   UNL     1       1.684   4.351  19.507  0.00  0.00    +0.000 C 
ATOM      4  C   UNL     1       2.888   5.169  19.145  0.00  0.00    +0.000 C 
ATOM      5  C   UNL     1       2.799   6.158  18.038  0.00  0.00    +0.000 C 
ATOM      6  C   UNL     1       3.344   4.748  17.783  0.00  0.00    +0.000 C 
ATOM      7  C   UNL     1       2.410   3.626  17.372  0.00  0.00    +0.000 C 
ENDROOT
BRANCH   6   8
ATOM      8  C   UNL     1       4.805   4.735  17.304  0.00  0.00    +0.000 A 
ATOM      9  C   UNL     1       5.214   4.535  16.004  0.00  0.00    +0.000 A 
ATOM     10  C   UNL     1       6.636   4.470  15.894  0.00  0.00    +0.000 A 
ATOM     11  C   UNL     1       7.254   4.602  17.116  0.00  0.00    +0.000 A 
ATOM     12  S   UNL     1       6.131   4.884  18.373  0.00  0.00    +0.000 S 
ENDBRANCH   6   8
TORSDOF 1
ENDMDL
MODEL 5
REMARK VINA RESULT:      -5.3      2.411      4.659
REMARK  Name = 
REMARK  2 active torsions:
REMARK  status: ('A' for Active; 'I' for Inactive)
REMARK    1  A    between atoms: C_1  and  N_2
REMARK    2  A    between atoms: C_6  and  C_7
REMARK                            x       y       z     vdW  Elec       q    Type
REMARK                         _______ _______ _______ _____ _____    ______ ____
ROOT
ATOM      1  C   UNL     1       6.602   5.470  19.218  0.00  0.00    +0.000 C 
ATOM      2  N   UNL     1       6.440   6.039  17.872  0.00  0.00    +0.000 NA
ATOM      3  C   UNL     1       7.068   5.143  16.879  0.00  0.00    +0.000 C 
ATOM      4  C   UNL     1       5.998   4.133  16.585  0.00  0.00    +0.000 C 
ATOM      5  C   UNL     1       5.025   4.392  15.491  0.00  0.00    +0.000 C 
ATOM      6  C   UNL     1       4.677   4.738  16.943  0.00  0.00    +0.000 C 
ATOM      7  C   UNL     1       4.998   6.110  17.504  0.00  0.00    +0.000 C 
ENDROOT
BRANCH   6   8
ATOM      8  C   UNL     1       3.466   3.960  17.482  0.00  0.00    +0.000 A 
ATOM      9  C   UNL     1       2.204   4.482  17.669  0.00  0.00    +0.000 A 
ATOM     10  C   UNL     1       1.322   3.543  18.285  0.00  0.00    +0.000 A 
ATOM     11  C   UNL     1       1.951   2.351  18.564  0.00  0.00    +0.000 A 
ATOM     12  S   UNL     1       3.568   2.337  18.012  0.00  0.00    +0.000 S 
ENDBRANCH   6   8
TORSDOF 1
ENDMDL
MODEL 6
REMARK VINA RESULT:      -5.3      1.526      2.110
REMARK  Name = 
REMARK  2 active torsions:
REMARK  status: ('A' for Active; 'I' for Inactive)
REMARK    1  A    between atoms: C_1  and  N_2
REMARK    2  A    between atoms: C_6  and  C_7
REMARK                            x       y       z     vdW  Elec       q    Type
REMARK                         _______ _______ _______ _____ _____    ______ ____
ROOT
ATOM      1  C   UNL     1       2.239   2.176  18.163  0.00  0.00    +0.000 C 
ATOM      2  N   UNL     1       1.248   3.213  18.484  0.00  0.00    +0.000 NA
ATOM      3  C   UNL     1       1.218   3.430  19.945  0.00  0.00    +0.000 C 
ATOM      4  C   UNL     1       2.327   4.412  20.182  0.00  0.00    +0.000 C 
ATOM      5  C   UNL     1       2.041   5.870  20.127  0.00  0.00    +0.000 C 
ATOM      6  C   UNL     1       2.589   5.135  18.898  0.00  0.00    +0.000 C 
ATOM      7  C   UNL     1       1.643   4.519  17.886  0.00  0.00    +0.000 C 
ENDROOT
BRANCH   6   8
ATOM      8  C   UNL     1       3.962   5.653  18.440  0.00  0.00    +0.000 A 
ATOM      9  C   UNL     1       4.167   6.616  17.475  0.00  0.00    +0.000 A 
ATOM     10  C   UNL     1       5.554   6.803  17.193  0.00  0.00    +0.000 A 
ATOM     11  C   UNL     1       6.350   5.963  17.937  0.00  0.00    +0.000 A 
ATOM     12  S   UNL     1       5.436   5.015  19.025  0.00  0.00    +0.000 S 
ENDBRANCH   6   8
TORSDOF 1
ENDMDL
MODEL 7
REMARK VINA RESULT:      -5.3      2.045      4.367
REMARK  Name = 
REMARK  2 active torsions:
REMARK  status: ('A' for Active; 'I' for Inactive)
REMARK    1  A    between atoms: C_1  and  N_2
REMARK    2  A    between atoms: C_6  and  C_7
REMARK                            x       y       z     vdW  Elec       q    Type
REMARK                         _______ _______ _______ _____ _____    ______ ____
ROOT
ATOM      1  C   UNL     1       6.005   5.470  18.611  0.00  0.00    +0.000 C 
ATOM      2  N   UNL     1       5.014   5.694  17.548  0.00  0.00    +0.000 NA
ATOM      3  C   UNL     1       5.056   4.570  16.590  0.00  0.00    +0.000 C 
ATOM      4  C   UNL     1       4.161   3.539  17.213  0.00  0.00    +0.000 C 
ATOM      5  C   UNL     1       2.709   3.539  16.894  0.00  0.00    +0.000 C 
ATOM      6  C   UNL     1       3.231   4.237  18.155  0.00  0.00    +0.000 C 
ATOM      7  C   UNL     1       3.634   5.699  18.112  0.00  0.00    +0.000 C 
ENDROOT
BRANCH   6   8
ATOM      8  C   UNL     1       2.680   3.638  19.458  0.00  0.00    +0.000 A 
ATOM      9  C   UNL     1       1.455   3.939  20.016  0.00  0.00    +0.000 A 
ATOM     10  C   UNL     1       1.275   3.305  21.283  0.00  0.00    +0.000 A 
ATOM     11  C   UNL     1       2.375   2.565  21.651  0.00  0.00    +0.000 A 
ATOM     12  S   UNL     1       3.581   2.569  20.441  0.00  0.00    +0.000 S 
ENDBRANCH   6   8
TORSDOF 1
ENDMDL
MODEL 8
REMARK VINA RESULT:      -5.3      1.637      1.923
REMARK  Name = 
REMARK  2 active torsions:
REMARK  status: ('A' for Active; 'I' for Inactive)
REMARK    1  A    between atoms: C_1  and  N_2
REMARK    2  A    between atoms: C_6  and  C_7
REMARK                            x       y       z     vdW  Elec       q    Type
REMARK                         _______ _______ _______ _____ _____    ______ ____
ROOT
ATOM      1  C   UNL     1       1.856   5.179  20.772  0.00  0.00    +0.000 C 
ATOM      2  N   UNL     1       2.050   3.746  20.505  0.00  0.00    +0.000 NA
ATOM      3  C   UNL     1       1.020   3.279  19.555  0.00  0.00    +0.000 C 
ATOM      4  C   UNL     1       1.599   3.611  18.211  0.00  0.00    +0.000 C 
ATOM      5  C   UNL     1       2.456   2.615  17.515  0.00  0.00    +0.000 C 
ATOM      6  C   UNL     1       3.083   3.729  18.361  0.00  0.00    +0.000 C 
ATOM      7  C   UNL     1       3.360   3.510  19.836  0.00  0.00    +0.000 C 
ENDROOT
BRANCH   6   8
ATOM      8  C   UNL     1       3.980   4.679  17.551  0.00  0.00    +0.000 A 
ATOM      9  C   UNL     1       3.876   6.054  17.538  0.00  0.00    +0.000 A 
ATOM     10  C   UNL     1       4.778   6.650  16.605  0.00  0.00    +0.000 A 
ATOM     11  C   UNL     1       5.519   5.707  15.930  0.00  0.00    +0.000 A 
ATOM     12  S   UNL     1       5.187   4.123  16.475  0.00  0.00    +0.000 S 
ENDBRANCH   6   8
TORSDOF 1
ENDMDL
MODEL 9
REMARK VINA RESULT:      -5.3      2.559      4.608
REMARK  Name = 
REMARK  2 active torsions:
REMARK  status: ('A' for Active; 'I' for Inactive)
REMARK    1  A    between atoms: C_1  and  N_2
REMARK    2  A    between atoms: C_6  and  C_7
REMARK                            x       y       z     vdW  Elec       q    Type
REMARK                         _______ _______ _______ _____ _____    ______ ____
ROOT
ATOM      1  C   UNL     1       5.670   4.432  17.321  0.00  0.00    +0.000 C 
ATOM      2  N   UNL     1       5.604   5.704  18.056  0.00  0.00    +0.000 NA
ATOM      3  C   UNL     1       4.856   6.696  17.257  0.00  0.00    +0.000 C 
ATOM      4  C   UNL     1       3.422   6.420  17.598  0.00  0.00    +0.000 C 
ATOM      5  C   UNL     1       2.794   7.121  18.750  0.00  0.00    +0.000 C 
ATOM      6  C   UNL     1       3.385   5.717  18.919  0.00  0.00    +0.000 C 
ATOM      7  C   UNL     1       4.836   5.538  19.323  0.00  0.00    +0.000 C 
ENDROOT
BRANCH   6   8
ATOM      8  C   UNL     1       2.346   4.661  19.329  0.00  0.00    +0.000 A 
ATOM      9  C   UNL     1       1.964   4.383  20.624  0.00  0.00    +0.000 A 
ATOM     10  C   UNL     1       1.062   3.278  20.690  0.00  0.00    +0.000 A 
ATOM     11  C   UNL     1       0.808   2.744  19.447  0.00  0.00    +0.000 A 
ATOM     12  S   UNL     1       1.588   3.620  18.204  0.00  0.00    +0.000 S 
ENDBRANCH   6   8
TORSDOF 1
ENDMDL
