MODEL 1
REMARK VINA RESULT:      -8.7      0.000      0.000
REMARK  Name = 
REMARK  8 active torsions:
REMARK  status: ('A' for Active; 'I' for Inactive)
REMARK    1  A    between atoms: C_2  and  C_3
REMARK    2  A    between atoms: C_8  and  N_9
REMARK    3  A    between atoms: C_11  and  C_12
REMARK    4  A    between atoms: C_13  and  C_14
REMARK    5  A    between atoms: C_16  and  O_17
REMARK    6  A    between atoms: O_17  and  C_18
REMARK    7  A    between atoms: C_20  and  O_21
REMARK    8  A    between atoms: O_21  and  C_22
REMARK                            x       y       z     vdW  Elec       q    Type
REMARK                         _______ _______ _______ _____ _____    ______ ____
ROOT
ATOM      1  N   UNL     1      -0.699  10.686  18.756  0.00  0.00    +0.000 N 
ATOM      2  C   UNL     1       0.183   9.857  18.084  0.00  0.00    +0.000 A 
ATOM      3  C   UNL     1       0.996   9.235  19.012  0.00  0.00    +0.000 A 
ATOM      4  C   UNL     1       0.607   9.701  20.302  0.00  0.00    +0.000 A 
ATOM      5  C   UNL     1       1.021   9.490  21.628  0.00  0.00    +0.000 A 
ATOM      6  N   UNL     1       2.086   8.686  21.997  0.00  0.00    +0.000 N 
ATOM      7  N   UNL     1       0.363  10.118  22.623  0.00  0.00    +0.000 NA
ATOM      8  C   UNL     1      -0.642  10.953  22.297  0.00  0.00    +0.000 A 
ATOM      9  N   UNL     1      -1.113  11.251  21.073  0.00  0.00    +0.000 NA
ATOM     10  C   UNL     1      -0.448  10.593  20.107  0.00  0.00    +0.000 A 
ATOM     11  H   UNL     1       2.398   7.987  21.339  0.00  0.00    +0.000 HD
ATOM     12  H   UNL     1       2.090   8.452  22.981  0.00  0.00    +0.000 HD
ENDROOT
BRANCH   1  18
ATOM     13  C   UNL     1      -5.266  12.045  19.112  0.00  0.00    +0.000 C 
ATOM     14  O   UNL     1      -5.289  12.531  20.240  0.00  0.00    +0.000 OA
ATOM     15  N   UNL     1      -4.098  11.861  18.406  0.00  0.00    +0.000 N 
ATOM     16  C   UNL     1      -3.913  11.412  17.041  0.00  0.00    +0.000 C 
ATOM     17  C   UNL     1      -2.596  10.656  17.100  0.00  0.00    +0.000 C 
ATOM     18  C   UNL     1      -1.755  11.456  18.111  0.00  0.00    +0.000 C 
ATOM     19  C   UNL     1      -2.804  12.115  19.035  0.00  0.00    +0.000 C 
BRANCH  13  21
ATOM     20  C   UNL     1      -7.053  10.389  18.746  0.00  0.00    +0.000 C 
ATOM     21  C   UNL     1      -6.525  11.585  18.462  0.00  0.00    +0.000 C 
ENDBRANCH  13  21
ENDBRANCH   1  18
BRANCH   3  22
ATOM     22  C   UNL     1       2.039   8.289  18.707  0.00  0.00    +0.000 C 
ATOM     23  C   UNL     1       2.878   7.490  18.391  0.00  0.00    +0.000 C 
BRANCH  23  24
ATOM     24  C   UNL     1       3.867   6.527  17.975  0.00  0.00    +0.000 A 
ATOM     25  C   UNL     1       4.129   5.402  18.770  0.00  0.00    +0.000 A 
ATOM     26  C   UNL     1       5.081   4.454  18.373  0.00  0.00    +0.000 A 
ATOM     27  C   UNL     1       5.773   4.642  17.177  0.00  0.00    +0.000 A 
ATOM     28  C   UNL     1       5.530   5.766  16.381  0.00  0.00    +0.000 A 
ATOM     29  C   UNL     1       4.580   6.709  16.782  0.00  0.00    +0.000 A 
BRANCH  26  30
ATOM     30  O   UNL     1       5.247   3.397  19.227  0.00  0.00    +0.000 OA
ATOM     31  C   UNL     1       4.068   2.869  19.830  0.00  0.00    +0.000 C 
ENDBRANCH  26  30
BRANCH  28  32
ATOM     32  O   UNL     1       6.291   5.804  15.244  0.00  0.00    +0.000 OA
ATOM     33  C   UNL     1       6.736   4.565  14.711  0.00  0.00    +0.000 C 
ENDBRANCH  28  32
ENDBRANCH  23  24
ENDBRANCH   3  22
TORSDOF 6
ENDMDL
MODEL 2
REMARK VINA RESULT:      -8.7      0.256      2.171
REMARK  Name = 
REMARK  8 active torsions:
REMARK  status: ('A' for Active; 'I' for Inactive)
REMARK    1  A    between atoms: C_2  and  C_3
REMARK    2  A    between atoms: C_8  and  N_9
REMARK    3  A    between atoms: C_11  and  C_12
REMARK    4  A    between atoms: C_13  and  C_14
REMARK    5  A    between atoms: C_16  and  O_17
REMARK    6  A    between atoms: O_17  and  C_18
REMARK    7  A    between atoms: C_20  and  O_21
REMARK    8  A    between atoms: O_21  and  C_22
REMARK                            x       y       z     vdW  Elec       q    Type
REMARK                         _______ _______ _______ _____ _____    ______ ____
ROOT
ATOM      1  N   UNL     1      -0.788  10.712  18.868  0.00  0.00    +0.000 N 
ATOM      2  C   UNL     1       0.094   9.884  18.196  0.00  0.00    +0.000 A 
ATOM      3  C   UNL     1       0.927   9.285  19.122  0.00  0.00    +0.000 A 
ATOM      4  C   UNL     1       0.550   9.765  20.410  0.00  0.00    +0.000 A 
ATOM      5  C   UNL     1       0.984   9.577  21.733  0.00  0.00    +0.000 A 
ATOM      6  N   UNL     1       2.064   8.791  22.098  0.00  0.00    +0.000 N 
ATOM      7  N   UNL     1       0.333  10.211  22.728  0.00  0.00    +0.000 NA
ATOM      8  C   UNL     1      -0.687  11.030  22.404  0.00  0.00    +0.000 A 
ATOM      9  N   UNL     1      -1.178  11.305  21.183  0.00  0.00    +0.000 NA
ATOM     10  C   UNL     1      -0.518  10.641  20.217  0.00  0.00    +0.000 A 
ATOM     11  H   UNL     1       2.375   8.086  21.446  0.00  0.00    +0.000 HD
ATOM     12  H   UNL     1       2.083   8.571  23.085  0.00  0.00    +0.000 HD
ENDROOT
BRANCH   1  18
ATOM     13  C   UNL     1      -5.374  12.001  19.254  0.00  0.00    +0.000 C 
ATOM     14  O   UNL     1      -5.395  12.495  20.379  0.00  0.00    +0.000 OA
ATOM     15  N   UNL     1      -4.209  11.830  18.540  0.00  0.00    +0.000 N 
ATOM     16  C   UNL     1      -4.028  11.375  17.176  0.00  0.00    +0.000 C 
ATOM     17  C   UNL     1      -2.699  10.640  17.229  0.00  0.00    +0.000 C 
ATOM     18  C   UNL     1      -1.862  11.460  18.227  0.00  0.00    +0.000 C 
ATOM     19  C   UNL     1      -2.914  12.109  19.156  0.00  0.00    +0.000 C 
BRANCH  13  21
ATOM     20  C   UNL     1      -7.076  10.271  18.826  0.00  0.00    +0.000 C 
ATOM     21  C   UNL     1      -6.630  11.517  18.619  0.00  0.00    +0.000 C 
ENDBRANCH  13  21
ENDBRANCH   1  18
BRANCH   3  22
ATOM     22  C   UNL     1       1.976   8.346  18.815  0.00  0.00    +0.000 C 
ATOM     23  C   UNL     1       2.802   7.517  18.548  0.00  0.00    +0.000 C 
BRANCH  23  24
ATOM     24  C   UNL     1       3.764   6.494  18.219  0.00  0.00    +0.000 A 
ATOM     25  C   UNL     1       4.579   6.634  17.088  0.00  0.00    +0.000 A 
ATOM     26  C   UNL     1       5.524   5.652  16.762  0.00  0.00    +0.000 A 
ATOM     27  C   UNL     1       5.645   4.527  17.575  0.00  0.00    +0.000 A 
ATOM     28  C   UNL     1       4.829   4.368  18.700  0.00  0.00    +0.000 A 
ATOM     29  C   UNL     1       3.888   5.350  19.020  0.00  0.00    +0.000 A 
BRANCH  26  30
ATOM     30  O   UNL     1       6.264   5.902  15.638  0.00  0.00    +0.000 OA
ATOM     31  C   UNL     1       6.290   4.879  14.646  0.00  0.00    +0.000 C 
ENDBRANCH  26  30
BRANCH  28  32
ATOM     32  O   UNL     1       5.069   3.210  19.389  0.00  0.00    +0.000 OA
ATOM     33  C   UNL     1       3.968   2.595  20.042  0.00  0.00    +0.000 C 
ENDBRANCH  28  32
ENDBRANCH  23  24
ENDBRANCH   3  22
TORSDOF 6
ENDMDL
MODEL 3
REMARK VINA RESULT:      -8.6      1.141      2.173
REMARK  Name = 
REMARK  8 active torsions:
REMARK  status: ('A' for Active; 'I' for Inactive)
REMARK    1  A    between atoms: C_2  and  C_3
REMARK    2  A    between atoms: C_8  and  N_9
REMARK    3  A    between atoms: C_11  and  C_12
REMARK    4  A    between atoms: C_13  and  C_14
REMARK    5  A    between atoms: C_16  and  O_17
REMARK    6  A    between atoms: O_17  and  C_18
REMARK    7  A    between atoms: C_20  and  O_21
REMARK    8  A    between atoms: O_21  and  C_22
REMARK                            x       y       z     vdW  Elec       q    Type
REMARK                         _______ _______ _______ _____ _____    ______ ____
ROOT
ATOM      1  N   UNL     1      -1.023  11.001  19.240  0.00  0.00    +0.000 N 
ATOM      2  C   UNL     1      -0.216  10.228  18.425  0.00  0.00    +0.000 A 
ATOM      3  C   UNL     1       0.663   9.518  19.221  0.00  0.00    +0.000 A 
ATOM      4  C   UNL     1       0.393   9.872  20.575  0.00  0.00    +0.000 A 
ATOM      5  C   UNL     1       0.915   9.541  21.838  0.00  0.00    +0.000 A 
ATOM      6  N   UNL     1       1.993   8.698  22.041  0.00  0.00    +0.000 N 
ATOM      7  N   UNL     1       0.354  10.084  22.936  0.00  0.00    +0.000 NA
ATOM      8  C   UNL     1      -0.661  10.955  22.773  0.00  0.00    +0.000 A 
ATOM      9  N   UNL     1      -1.229  11.363  21.624  0.00  0.00    +0.000 NA
ATOM     10  C   UNL     1      -0.660  10.787  20.551  0.00  0.00    +0.000 A 
ATOM     11  H   UNL     1       2.236   8.056  21.301  0.00  0.00    +0.000 HD
ATOM     12  H   UNL     1       2.076   8.378  22.997  0.00  0.00    +0.000 HD
ENDROOT
BRANCH   1  18
ATOM     13  C   UNL     1      -5.603  12.168  19.949  0.00  0.00    +0.000 C 
ATOM     14  O   UNL     1      -5.596  12.471  21.140  0.00  0.00    +0.000 OA
ATOM     15  N   UNL     1      -4.456  12.128  19.187  0.00  0.00    +0.000 N 
ATOM     16  C   UNL     1      -4.310  11.904  17.763  0.00  0.00    +0.000 C 
ATOM     17  C   UNL     1      -2.977  11.182  17.660  0.00  0.00    +0.000 C 
ATOM     18  C   UNL     1      -2.117  11.835  18.758  0.00  0.00    +0.000 C 
ATOM     19  C   UNL     1      -3.147  12.314  19.807  0.00  0.00    +0.000 C 
BRANCH  13  21
ATOM     20  C   UNL     1      -7.595  12.682  18.594  0.00  0.00    +0.000 C 
ATOM     21  C   UNL     1      -6.873  11.784  19.276  0.00  0.00    +0.000 C 
ENDBRANCH  13  21
ENDBRANCH   1  18
BRANCH   3  22
ATOM     22  C   UNL     1       1.659   8.593  18.746  0.00  0.00    +0.000 C 
ATOM     23  C   UNL     1       2.442   7.772  18.353  0.00  0.00    +0.000 C 
BRANCH  23  24
ATOM     24  C   UNL     1       3.353   6.758  17.882  0.00  0.00    +0.000 A 
ATOM     25  C   UNL     1       4.612   7.121  17.383  0.00  0.00    +0.000 A 
ATOM     26  C   UNL     1       5.510   6.145  16.932  0.00  0.00    +0.000 A 
ATOM     27  C   UNL     1       5.138   4.803  16.979  0.00  0.00    +0.000 A 
ATOM     28  C   UNL     1       3.880   4.427  17.463  0.00  0.00    +0.000 A 
ATOM     29  C   UNL     1       2.988   5.404  17.911  0.00  0.00    +0.000 A 
BRANCH  26  30
ATOM     30  O   UNL     1       6.709   6.621  16.472  0.00  0.00    +0.000 OA
ATOM     31  C   UNL     1       7.514   7.338  17.404  0.00  0.00    +0.000 C 
ENDBRANCH  26  30
BRANCH  28  32
ATOM     32  O   UNL     1       3.668   3.075  17.439  0.00  0.00    +0.000 OA
ATOM     33  C   UNL     1       2.372   2.608  17.782  0.00  0.00    +0.000 C 
ENDBRANCH  28  32
ENDBRANCH  23  24
ENDBRANCH   3  22
TORSDOF 6
ENDMDL
MODEL 4
REMARK VINA RESULT:      -8.4      1.145      1.276
REMARK  Name = 
REMARK  8 active torsions:
REMARK  status: ('A' for Active; 'I' for Inactive)
REMARK    1  A    between atoms: C_2  and  C_3
REMARK    2  A    between atoms: C_8  and  N_9
REMARK    3  A    between atoms: C_11  and  C_12
REMARK    4  A    between atoms: C_13  and  C_14
REMARK    5  A    between atoms: C_16  and  O_17
REMARK    6  A    between atoms: O_17  and  C_18
REMARK    7  A    between atoms: C_20  and  O_21
REMARK    8  A    between atoms: O_21  and  C_22
REMARK                            x       y       z     vdW  Elec       q    Type
REMARK                         _______ _______ _______ _____ _____    ______ ____
ROOT
ATOM      1  N   UNL     1      -0.951  10.877  19.135  0.00  0.00    +0.000 N 
ATOM      2  C   UNL     1      -0.156  10.032  18.381  0.00  0.00    +0.000 A 
ATOM      3  C   UNL     1       0.686   9.344  19.233  0.00  0.00    +0.000 A 
ATOM      4  C   UNL     1       0.406   9.784  20.559  0.00  0.00    +0.000 A 
ATOM      5  C   UNL     1       0.896   9.511  21.848  0.00  0.00    +0.000 A 
ATOM      6  N   UNL     1       1.943   8.648  22.119  0.00  0.00    +0.000 N 
ATOM      7  N   UNL     1       0.335  10.135  22.902  0.00  0.00    +0.000 NA
ATOM      8  C   UNL     1      -0.649  11.025  22.670  0.00  0.00    +0.000 A 
ATOM      9  N   UNL     1      -1.185  11.384  21.490  0.00  0.00    +0.000 NA
ATOM     10  C   UNL     1      -0.617  10.728  20.463  0.00  0.00    +0.000 A 
ATOM     11  H   UNL     1       2.178   7.957  21.422  0.00  0.00    +0.000 HD
ATOM     12  H   UNL     1       2.000   8.382  23.094  0.00  0.00    +0.000 HD
ENDROOT
BRANCH   1  18
ATOM     13  C   UNL     1      -5.534  12.140  19.624  0.00  0.00    +0.000 C 
ATOM     14  O   UNL     1      -5.570  12.476  20.806  0.00  0.00    +0.000 OA
ATOM     15  N   UNL     1      -4.359  12.058  18.911  0.00  0.00    +0.000 N 
ATOM     16  C   UNL     1      -4.160  11.791  17.500  0.00  0.00    +0.000 C 
ATOM     17  C   UNL     1      -2.837  11.045  17.473  0.00  0.00    +0.000 C 
ATOM     18  C   UNL     1      -2.010  11.714  18.585  0.00  0.00    +0.000 C 
ATOM     19  C   UNL     1      -3.072  12.240  19.578  0.00  0.00    +0.000 C 
BRANCH  13  21
ATOM     20  C   UNL     1      -7.586  12.685  18.374  0.00  0.00    +0.000 C 
ATOM     21  C   UNL     1      -6.783  11.757  18.910  0.00  0.00    +0.000 C 
ENDBRANCH  13  21
ENDBRANCH   1  18
BRANCH   3  22
ATOM     22  C   UNL     1       1.660   8.362  18.830  0.00  0.00    +0.000 C 
ATOM     23  C   UNL     1       2.421   7.499  18.486  0.00  0.00    +0.000 C 
BRANCH  23  24
ATOM     24  C   UNL     1       3.302   6.437  18.067  0.00  0.00    +0.000 A 
ATOM     25  C   UNL     1       2.797   5.147  17.856  0.00  0.00    +0.000 A 
ATOM     26  C   UNL     1       3.640   4.109  17.440  0.00  0.00    +0.000 A 
ATOM     27  C   UNL     1       4.995   4.370  17.240  0.00  0.00    +0.000 A 
ATOM     28  C   UNL     1       5.515   5.650  17.458  0.00  0.00    +0.000 A 
ATOM     29  C   UNL     1       4.670   6.681  17.873  0.00  0.00    +0.000 A 
BRANCH  26  30
ATOM     30  O   UNL     1       3.032   2.895  17.264  0.00  0.00    +0.000 OA
ATOM     31  C   UNL     1       3.424   1.846  18.146  0.00  0.00    +0.000 C 
ENDBRANCH  26  30
BRANCH  28  32
ATOM     32  O   UNL     1       6.860   5.740  17.220  0.00  0.00    +0.000 OA
ATOM     33  C   UNL     1       7.458   7.024  17.314  0.00  0.00    +0.000 C 
ENDBRANCH  28  32
ENDBRANCH  23  24
ENDBRANCH   3  22
TORSDOF 6
ENDMDL
MODEL 5
REMARK VINA RESULT:      -8.4      2.328      3.874
REMARK  Name = 
REMARK  8 active torsions:
REMARK  status: ('A' for Active; 'I' for Inactive)
REMARK    1  A    between atoms: C_2  and  C_3
REMARK    2  A    between atoms: C_8  and  N_9
REMARK    3  A    between atoms: C_11  and  C_12
REMARK    4  A    between atoms: C_13  and  C_14
REMARK    5  A    between atoms: C_16  and  O_17
REMARK    6  A    between atoms: O_17  and  C_18
REMARK    7  A    between atoms: C_20  and  O_21
REMARK    8  A    between atoms: O_21  and  C_22
REMARK                            x       y       z     vdW  Elec       q    Type
REMARK                         _______ _______ _______ _____ _____    ______ ____
ROOT
ATOM      1  N   UNL     1      -0.366  11.128  21.188  0.00  0.00    +0.000 N 
ATOM      2  C   UNL     1       0.665  10.228  20.985  0.00  0.00    +0.000 A 
ATOM      3  C   UNL     1       0.571   9.734  19.698  0.00  0.00    +0.000 A 
ATOM      4  C   UNL     1      -0.563  10.345  19.087  0.00  0.00    +0.000 A 
ATOM      5  C   UNL     1      -1.210  10.275  17.841  0.00  0.00    +0.000 A 
ATOM      6  N   UNL     1      -0.831   9.434  16.810  0.00  0.00    +0.000 N 
ATOM      7  N   UNL     1      -2.284  11.058  17.622  0.00  0.00    +0.000 NA
ATOM      8  C   UNL     1      -2.716  11.848  18.624  0.00  0.00    +0.000 A 
ATOM      9  N   UNL     1      -2.197  11.986  19.857  0.00  0.00    +0.000 NA
ATOM     10  C   UNL     1      -1.116  11.206  20.035  0.00  0.00    +0.000 A 
ATOM     11  H   UNL     1       0.110   9.071  16.819  0.00  0.00    +0.000 HD
ATOM     12  H   UNL     1      -1.238   9.685  15.919  0.00  0.00    +0.000 HD
ENDROOT
BRANCH   1  18
ATOM     13  C   UNL     1      -3.634  13.090  24.071  0.00  0.00    +0.000 C 
ATOM     14  O   UNL     1      -4.366  12.129  24.300  0.00  0.00    +0.000 OA
ATOM     15  N   UNL     1      -2.347  12.947  23.601  0.00  0.00    +0.000 N 
ATOM     16  C   UNL     1      -1.331  13.959  23.391  0.00  0.00    +0.000 C 
ATOM     17  C   UNL     1      -0.554  13.427  22.199  0.00  0.00    +0.000 C 
ATOM     18  C   UNL     1      -0.551  11.903  22.409  0.00  0.00    +0.000 C 
ATOM     19  C   UNL     1      -1.838  11.632  23.221  0.00  0.00    +0.000 C 
BRANCH  13  21
ATOM     20  C   UNL     1      -4.769  15.124  23.268  0.00  0.00    +0.000 C 
ATOM     21  C   UNL     1      -4.134  14.480  24.255  0.00  0.00    +0.000 C 
ENDBRANCH  13  21
ENDBRANCH   1  18
BRANCH   3  22
ATOM     22  C   UNL     1       1.470   8.778  19.103  0.00  0.00    +0.000 C 
ATOM     23  C   UNL     1       2.168   7.935  18.609  0.00  0.00    +0.000 C 
BRANCH  23  24
ATOM     24  C   UNL     1       2.975   6.897  18.017  0.00  0.00    +0.000 A 
ATOM     25  C   UNL     1       2.575   5.557  18.111  0.00  0.00    +0.000 A 
ATOM     26  C   UNL     1       3.344   4.540  17.533  0.00  0.00    +0.000 A 
ATOM     27  C   UNL     1       4.520   4.872  16.862  0.00  0.00    +0.000 A 
ATOM     28  C   UNL     1       4.938   6.204  16.771  0.00  0.00    +0.000 A 
ATOM     29  C   UNL     1       4.167   7.215  17.351  0.00  0.00    +0.000 A 
BRANCH  26  30
ATOM     30  O   UNL     1       2.850   3.272  17.686  0.00  0.00    +0.000 OA
ATOM     31  C   UNL     1       1.565   3.153  18.292  0.00  0.00    +0.000 C 
ENDBRANCH  26  30
BRANCH  28  32
ATOM     32  O   UNL     1       6.112   6.362  16.086  0.00  0.00    +0.000 OA
ATOM     33  C   UNL     1       6.844   5.189  15.759  0.00  0.00    +0.000 C 
ENDBRANCH  28  32
ENDBRANCH  23  24
ENDBRANCH   3  22
TORSDOF 6
ENDMDL
MODEL 6
REMARK VINA RESULT:      -8.3      2.400      4.327
REMARK  Name = 
REMARK  8 active torsions:
REMARK  status: ('A' for Active; 'I' for Inactive)
REMARK    1  A    between atoms: C_2  and  C_3
REMARK    2  A    between atoms: C_8  and  N_9
REMARK    3  A    between atoms: C_11  and  C_12
REMARK    4  A    between atoms: C_13  and  C_14
REMARK    5  A    between atoms: C_16  and  O_17
REMARK    6  A    between atoms: O_17  and  C_18
REMARK    7  A    between atoms: C_20  and  O_21
REMARK    8  A    between atoms: O_21  and  C_22
REMARK                            x       y       z     vdW  Elec       q    Type
REMARK                         _______ _______ _______ _____ _____    ______ ____
ROOT
ATOM      1  N   UNL     1      -0.447  11.226  21.222  0.00  0.00    +0.000 N 
ATOM      2  C   UNL     1       0.588  10.329  21.028  0.00  0.00    +0.000 A 
ATOM      3  C   UNL     1       0.493   9.817  19.748  0.00  0.00    +0.000 A 
ATOM      4  C   UNL     1      -0.645  10.415  19.132  0.00  0.00    +0.000 A 
ATOM      5  C   UNL     1      -1.294  10.326  17.888  0.00  0.00    +0.000 A 
ATOM      6  N   UNL     1      -0.914   9.472  16.867  0.00  0.00    +0.000 N 
ATOM      7  N   UNL     1      -2.372  11.101  17.661  0.00  0.00    +0.000 NA
ATOM      8  C   UNL     1      -2.805  11.902  18.653  0.00  0.00    +0.000 A 
ATOM      9  N   UNL     1      -2.284  12.058  19.883  0.00  0.00    +0.000 NA
ATOM     10  C   UNL     1      -1.200  11.286  20.069  0.00  0.00    +0.000 A 
ATOM     11  H   UNL     1       0.030   9.113  16.879  0.00  0.00    +0.000 HD
ATOM     12  H   UNL     1      -1.323   9.710  15.974  0.00  0.00    +0.000 HD
ENDROOT
BRANCH   1  18
ATOM     13  C   UNL     1      -3.719  13.172  24.111  0.00  0.00    +0.000 C 
ATOM     14  O   UNL     1      -4.430  12.202  24.363  0.00  0.00    +0.000 OA
ATOM     15  N   UNL     1      -2.435  13.046  23.629  0.00  0.00    +0.000 N 
ATOM     16  C   UNL     1      -1.440  14.073  23.392  0.00  0.00    +0.000 C 
ATOM     17  C   UNL     1      -0.667  13.537  22.199  0.00  0.00    +0.000 C 
ATOM     18  C   UNL     1      -0.633  12.016  22.433  0.00  0.00    +0.000 C 
ATOM     19  C   UNL     1      -1.905  11.735  23.263  0.00  0.00    +0.000 C 
BRANCH  13  21
ATOM     20  C   UNL     1      -5.355  14.956  23.652  0.00  0.00    +0.000 C 
ATOM     21  C   UNL     1      -4.242  14.555  24.280  0.00  0.00    +0.000 C 
ENDBRANCH  13  21
ENDBRANCH   1  18
BRANCH   3  22
ATOM     22  C   UNL     1       1.395   8.857  19.164  0.00  0.00    +0.000 C 
ATOM     23  C   UNL     1       2.094   8.013  18.673  0.00  0.00    +0.000 C 
BRANCH  23  24
ATOM     24  C   UNL     1       2.900   6.975  18.081  0.00  0.00    +0.000 A 
ATOM     25  C   UNL     1       4.122   7.296  17.472  0.00  0.00    +0.000 A 
ATOM     26  C   UNL     1       4.919   6.296  16.901  0.00  0.00    +0.000 A 
ATOM     27  C   UNL     1       4.484   4.972  16.939  0.00  0.00    +0.000 A 
ATOM     28  C   UNL     1       3.261   4.639  17.531  0.00  0.00    +0.000 A 
ATOM     29  C   UNL     1       2.469   5.641  18.099  0.00  0.00    +0.000 A 
BRANCH  26  30
ATOM     30  O   UNL     1       6.091   6.730  16.341  0.00  0.00    +0.000 OA
ATOM     31  C   UNL     1       7.269   6.593  17.131  0.00  0.00    +0.000 C 
ENDBRANCH  26  30
BRANCH  28  32
ATOM     32  O   UNL     1       2.978   3.301  17.483  0.00  0.00    +0.000 OA
ATOM     33  C   UNL     1       1.816   2.852  18.164  0.00  0.00    +0.000 C 
ENDBRANCH  28  32
ENDBRANCH  23  24
ENDBRANCH   3  22
TORSDOF 6
ENDMDL
MODEL 7
REMARK VINA RESULT:      -7.9      2.469      4.426
REMARK  Name = 
REMARK  8 active torsions:
REMARK  status: ('A' for Active; 'I' for Inactive)
REMARK    1  A    between atoms: C_2  and  C_3
REMARK    2  A    between atoms: C_8  and  N_9
REMARK    3  A    between atoms: C_11  and  C_12
REMARK    4  A    between atoms: C_13  and  C_14
REMARK    5  A    between atoms: C_16  and  O_17
REMARK    6  A    between atoms: O_17  and  C_18
REMARK    7  A    between atoms: C_20  and  O_21
REMARK    8  A    between atoms: O_21  and  C_22
REMARK                            x       y       z     vdW  Elec       q    Type
REMARK                         _______ _______ _______ _____ _____    ______ ____
ROOT
ATOM      1  N   UNL     1      -0.800  11.204  21.909  0.00  0.00    +0.000 N 
ATOM      2  C   UNL     1       0.024  10.096  21.993  0.00  0.00    +0.000 A 
ATOM      3  C   UNL     1       0.276   9.637  20.714  0.00  0.00    +0.000 A 
ATOM      4  C   UNL     1      -0.422  10.488  19.809  0.00  0.00    +0.000 A 
ATOM      5  C   UNL     1      -0.600  10.568  18.417  0.00  0.00    +0.000 A 
ATOM      6  N   UNL     1      -0.077   9.664  17.509  0.00  0.00    +0.000 N 
ATOM      7  N   UNL     1      -1.342  11.573  17.913  0.00  0.00    +0.000 NA
ATOM      8  C   UNL     1      -1.915  12.439  18.771  0.00  0.00    +0.000 A 
ATOM      9  N   UNL     1      -1.836  12.454  20.114  0.00  0.00    +0.000 NA
ATOM     10  C   UNL     1      -1.073  11.451  20.581  0.00  0.00    +0.000 A 
ATOM     11  H   UNL     1       0.705   9.098  17.804  0.00  0.00    +0.000 HD
ATOM     12  H   UNL     1      -0.090  10.001  16.556  0.00  0.00    +0.000 HD
ENDROOT
BRANCH   1  18
ATOM     13  C   UNL     1      -4.493  13.542  23.841  0.00  0.00    +0.000 C 
ATOM     14  O   UNL     1      -5.363  12.674  23.833  0.00  0.00    +0.000 OA
ATOM     15  N   UNL     1      -3.151  13.249  23.739  0.00  0.00    +0.000 N 
ATOM     16  C   UNL     1      -2.009  14.136  23.844  0.00  0.00    +0.000 C 
ATOM     17  C   UNL     1      -0.999  13.513  22.895  0.00  0.00    +0.000 C 
ATOM     18  C   UNL     1      -1.225  11.999  23.054  0.00  0.00    +0.000 C 
ATOM     19  C   UNL     1      -2.708  11.883  23.475  0.00  0.00    +0.000 C 
BRANCH  13  21
ATOM     20  C   UNL     1      -6.139  15.375  23.809  0.00  0.00    +0.000 C 
ATOM     21  C   UNL     1      -4.864  14.981  23.922  0.00  0.00    +0.000 C 
ENDBRANCH  13  21
ENDBRANCH   1  18
BRANCH   3  22
ATOM     22  C   UNL     1       1.101   8.504  20.381  0.00  0.00    +0.000 C 
ATOM     23  C   UNL     1       1.784   7.578  20.038  0.00  0.00    +0.000 C 
BRANCH  23  24
ATOM     24  C   UNL     1       2.601   6.478  19.587  0.00  0.00    +0.000 A 
ATOM     25  C   UNL     1       3.424   6.630  18.463  0.00  0.00    +0.000 A 
ATOM     26  C   UNL     1       4.230   5.573  18.020  0.00  0.00    +0.000 A 
ATOM     27  C   UNL     1       4.203   4.361  18.708  0.00  0.00    +0.000 A 
ATOM     28  C   UNL     1       3.377   4.192  19.824  0.00  0.00    +0.000 A 
ATOM     29  C   UNL     1       2.575   5.249  20.261  0.00  0.00    +0.000 A 
BRANCH  26  30
ATOM     30  O   UNL     1       4.993   5.842  16.916  0.00  0.00    +0.000 OA
ATOM     31  C   UNL     1       6.011   6.829  17.064  0.00  0.00    +0.000 C 
ENDBRANCH  26  30
BRANCH  28  32
ATOM     32  O   UNL     1       3.464   2.945  20.382  0.00  0.00    +0.000 OA
ATOM     33  C   UNL     1       4.430   2.052  19.847  0.00  0.00    +0.000 C 
ENDBRANCH  28  32
ENDBRANCH  23  24
ENDBRANCH   3  22
TORSDOF 6
ENDMDL
MODEL 8
REMARK VINA RESULT:      -7.9      0.868      1.016
REMARK  Name = 
REMARK  8 active torsions:
REMARK  status: ('A' for Active; 'I' for Inactive)
REMARK    1  A    between atoms: C_2  and  C_3
REMARK    2  A    between atoms: C_8  and  N_9
REMARK    3  A    between atoms: C_11  and  C_12
REMARK    4  A    between atoms: C_13  and  C_14
REMARK    5  A    between atoms: C_16  and  O_17
REMARK    6  A    between atoms: O_17  and  C_18
REMARK    7  A    between atoms: C_20  and  O_21
REMARK    8  A    between atoms: O_21  and  C_22
REMARK                            x       y       z     vdW  Elec       q    Type
REMARK                         _______ _______ _______ _____ _____    ______ ____
ROOT
ATOM      1  N   UNL     1      -0.702  10.704  18.647  0.00  0.00    +0.000 N 
ATOM      2  C   UNL     1       0.185   9.977  17.873  0.00  0.00    +0.000 A 
ATOM      3  C   UNL     1       1.033   9.280  18.712  0.00  0.00    +0.000 A 
ATOM      4  C   UNL     1       0.661   9.594  20.052  0.00  0.00    +0.000 A 
ATOM      5  C   UNL     1       1.109   9.251  21.340  0.00  0.00    +0.000 A 
ATOM      6  N   UNL     1       2.201   8.441  21.598  0.00  0.00    +0.000 N 
ATOM      7  N   UNL     1       0.457   9.750  22.408  0.00  0.00    +0.000 NA
ATOM      8  C   UNL     1      -0.575  10.589  22.195  0.00  0.00    +0.000 A 
ATOM      9  N   UNL     1      -1.080  11.004  21.019  0.00  0.00    +0.000 NA
ATOM     10  C   UNL     1      -0.420  10.472  19.975  0.00  0.00    +0.000 A 
ATOM     11  H   UNL     1       2.515   7.825  20.863  0.00  0.00    +0.000 HD
ATOM     12  H   UNL     1       2.231   8.103  22.551  0.00  0.00    +0.000 HD
ENDROOT
BRANCH   1  18
ATOM     13  C   UNL     1      -5.284  11.920  19.253  0.00  0.00    +0.000 C 
ATOM     14  O   UNL     1      -5.285  12.291  20.425  0.00  0.00    +0.000 OA
ATOM     15  N   UNL     1      -4.132  11.833  18.504  0.00  0.00    +0.000 N 
ATOM     16  C   UNL     1      -3.976  11.526  17.096  0.00  0.00    +0.000 C 
ATOM     17  C   UNL     1      -2.644  10.797  17.045  0.00  0.00    +0.000 C 
ATOM     18  C   UNL     1      -1.791  11.511  18.109  0.00  0.00    +0.000 C 
ATOM     19  C   UNL     1      -2.826  12.051  19.121  0.00  0.00    +0.000 C 
BRANCH  13  21
ATOM     20  C   UNL     1      -7.074  10.286  18.810  0.00  0.00    +0.000 C 
ATOM     21  C   UNL     1      -6.550  11.499  18.594  0.00  0.00    +0.000 C 
ENDBRANCH  13  21
ENDBRANCH   1  18
BRANCH   3  22
ATOM     22  C   UNL     1       2.091   8.401  18.286  0.00  0.00    +0.000 C 
ATOM     23  C   UNL     1       3.013   7.695  17.979  0.00  0.00    +0.000 C 
BRANCH  23  24
ATOM     24  C   UNL     1       4.143   6.865  17.641  0.00  0.00    +0.000 A 
ATOM     25  C   UNL     1       4.883   6.240  18.654  0.00  0.00    +0.000 A 
ATOM     26  C   UNL     1       5.977   5.424  18.339  0.00  0.00    +0.000 A 
ATOM     27  C   UNL     1       6.328   5.240  17.002  0.00  0.00    +0.000 A 
ATOM     28  C   UNL     1       5.606   5.868  15.982  0.00  0.00    +0.000 A 
ATOM     29  C   UNL     1       4.516   6.682  16.302  0.00  0.00    +0.000 A 
BRANCH  26  30
ATOM     30  O   UNL     1       6.619   4.864  19.411  0.00  0.00    +0.000 OA
ATOM     31  C   UNL     1       7.854   5.459  19.802  0.00  0.00    +0.000 C 
ENDBRANCH  26  30
BRANCH  28  32
ATOM     32  O   UNL     1       6.078   5.589  14.728  0.00  0.00    +0.000 OA
ATOM     33  C   UNL     1       6.345   4.230  14.414  0.00  0.00    +0.000 C 
ENDBRANCH  28  32
ENDBRANCH  23  24
ENDBRANCH   3  22
TORSDOF 6
ENDMDL
MODEL 9
REMARK VINA RESULT:      -7.9      3.235      4.719
REMARK  Name = 
REMARK  8 active torsions:
REMARK  status: ('A' for Active; 'I' for Inactive)
REMARK    1  A    between atoms: C_2  and  C_3
REMARK    2  A    between atoms: C_8  and  N_9
REMARK    3  A    between atoms: C_11  and  C_12
REMARK    4  A    between atoms: C_13  and  C_14
REMARK    5  A    between atoms: C_16  and  O_17
REMARK    6  A    between atoms: O_17  and  C_18
REMARK    7  A    between atoms: C_20  and  O_21
REMARK    8  A    between atoms: O_21  and  C_22
REMARK                            x       y       z     vdW  Elec       q    Type
REMARK                         _______ _______ _______ _____ _____    ______ ____
ROOT
ATOM      1  N   UNL     1       0.657  11.445  19.196  0.00  0.00    +0.000 N 
ATOM      2  C   UNL     1       1.424  10.683  18.334  0.00  0.00    +0.000 A 
ATOM      3  C   UNL     1       1.629   9.442  18.907  0.00  0.00    +0.000 A 
ATOM      4  C   UNL     1       0.969   9.441  20.170  0.00  0.00    +0.000 A 
ATOM      5  C   UNL     1       0.803   8.534  21.231  0.00  0.00    +0.000 A 
ATOM      6  N   UNL     1       1.373   7.273  21.279  0.00  0.00    +0.000 N 
ATOM      7  N   UNL     1       0.058   8.903  22.292  0.00  0.00    +0.000 NA
ATOM      8  C   UNL     1      -0.464  10.145  22.306  0.00  0.00    +0.000 A 
ATOM      9  N   UNL     1      -0.359  11.102  21.367  0.00  0.00    +0.000 NA
ATOM     10  C   UNL     1       0.373  10.693  20.315  0.00  0.00    +0.000 A 
ATOM     11  H   UNL     1       1.670   6.857  20.409  0.00  0.00    +0.000 HD
ATOM     12  H   UNL     1       0.957   6.673  21.979  0.00  0.00    +0.000 HD
ENDROOT
BRANCH   1  18
ATOM     13  C   UNL     1       2.019  15.987  18.606  0.00  0.00    +0.000 C 
ATOM     14  O   UNL     1       2.904  15.869  17.761  0.00  0.00    +0.000 OA
ATOM     15  N   UNL     1       1.068  15.016  18.825  0.00  0.00    +0.000 N 
ATOM     16  C   UNL     1      -0.094  15.049  19.691  0.00  0.00    +0.000 C 
ATOM     17  C   UNL     1      -0.234  13.604  20.139  0.00  0.00    +0.000 C 
ATOM     18  C   UNL     1       0.182  12.791  18.900  0.00  0.00    +0.000 C 
ATOM     19  C   UNL     1       1.155  13.726  18.146  0.00  0.00    +0.000 C 
BRANCH  13  21
ATOM     20  C   UNL     1       2.852  17.383  20.458  0.00  0.00    +0.000 C 
ATOM     21  C   UNL     1       1.962  17.195  19.475  0.00  0.00    +0.000 C 
ENDBRANCH  13  21
ENDBRANCH   1  18
BRANCH   3  22
ATOM     22  C   UNL     1       2.374   8.361  18.313  0.00  0.00    +0.000 C 
ATOM     23  C   UNL     1       2.995   7.430  17.880  0.00  0.00    +0.000 C 
BRANCH  23  24
ATOM     24  C   UNL     1       3.741   6.294  17.397  0.00  0.00    +0.000 A 
ATOM     25  C   UNL     1       4.836   6.484  16.542  0.00  0.00    +0.000 A 
ATOM     26  C   UNL     1       5.574   5.390  16.073  0.00  0.00    +0.000 A 
ATOM     27  C   UNL     1       5.206   4.103  16.461  0.00  0.00    +0.000 A 
ATOM     28  C   UNL     1       4.108   3.897  17.303  0.00  0.00    +0.000 A 
ATOM     29  C   UNL     1       3.375   4.992  17.768  0.00  0.00    +0.000 A 
BRANCH  26  30
ATOM     30  O   UNL     1       6.622   5.701  15.249  0.00  0.00    +0.000 OA
ATOM     31  C   UNL     1       6.909   4.780  14.199  0.00  0.00    +0.000 C 
ENDBRANCH  26  30
BRANCH  28  32
ATOM     32  O   UNL     1       3.877   2.578  17.587  0.00  0.00    +0.000 OA
ATOM     33  C   UNL     1       2.560   2.210  17.966  0.00  0.00    +0.000 C 
ENDBRANCH  28  32
ENDBRANCH  23  24
ENDBRANCH   3  22
TORSDOF 6
ENDMDL
