MODEL 1
REMARK VINA RESULT:      -7.5      0.000      0.000
REMARK  Name = 
REMARK  7 active torsions:
REMARK  status: ('A' for Active; 'I' for Inactive)
REMARK    1  A    between atoms: C_1  and  O_2
REMARK    2  A    between atoms: O_2  and  C_3
REMARK    3  A    between atoms: C_3  and  C_5
REMARK    4  A    between atoms: C_5  and  C_6
REMARK    5  A    between atoms: C_6  and  N_7
REMARK    6  A    between atoms: C_8  and  C_10
REMARK    7  A    between atoms: C_10  and  C_11
REMARK                            x       y       z     vdW  Elec       q    Type
REMARK                         _______ _______ _______ _____ _____    ______ ____
ROOT
ATOM      1  N   UNL     1       5.217   5.875  17.895  0.00  0.00    +0.000 N 
ATOM      2  C   UNL     1       4.195   6.738  17.542  0.00  0.00    +0.000 C 
ATOM      3  O   UNL     1       4.258   7.505  16.583  0.00  0.00    +0.000 OA
ATOM      4  H   UNL     1       4.989   5.126  18.534  0.00  0.00    +0.000 HD
ENDROOT
BRANCH   1   5
ATOM      5  C   UNL     1       6.511   5.807  17.186  0.00  0.00    +0.000 C 
ATOM      6  C   UNL     1       7.477   4.836  17.894  0.00  0.00    +0.000 C 
ATOM      7  C   UNL     1       8.050   5.624  19.069  0.00  0.00    +0.000 C 
ATOM      8  C   UNL     1       8.031   7.085  18.647  0.00  0.00    +0.000 C 
ATOM      9  C   UNL     1       7.272   7.145  17.325  0.00  0.00    +0.000 C 
BRANCH   5  10
ATOM     10  C   UNL     1       6.331   5.433  15.701  0.00  0.00    +0.000 C 
BRANCH  10  11
ATOM     11  C   UNL     1       5.700   4.072  15.532  0.00  0.00    +0.000 C 
ATOM     12  O   UNL     1       4.960   3.547  16.356  0.00  0.00    +0.000 OA
BRANCH  11  14
ATOM     13  C   UNL     1       6.825   4.370  13.505  0.00  0.00    +0.000 C 
ATOM     14  O   UNL     1       6.053   3.510  14.344  0.00  0.00    +0.000 OA
ENDBRANCH  11  14
ENDBRANCH  10  11
ENDBRANCH   5  10
ENDBRANCH   1   5
BRANCH   2  15
ATOM     15  C   UNL     1       2.993   6.711  18.469  0.00  0.00    +0.000 C 
BRANCH  15  16
ATOM     16  C   UNL     1       2.343   5.369  18.519  0.00  0.00    +0.000 A 
ATOM     17  C   UNL     1       1.758   4.704  17.458  0.00  0.00    +0.000 A 
ATOM     18  N   UNL     1       1.249   3.520  17.917  0.00  0.00    +0.000 N 
ATOM     19  C   UNL     1       1.489   3.393  19.265  0.00  0.00    +0.000 A 
ATOM     20  C   UNL     1       1.147   2.360  20.147  0.00  0.00    +0.000 A 
ATOM     21  C   UNL     1       1.515   2.504  21.488  0.00  0.00    +0.000 A 
ATOM     22  C   UNL     1       2.192   3.637  21.927  0.00  0.00    +0.000 A 
ATOM     23  C   UNL     1       2.522   4.663  21.034  0.00  0.00    +0.000 A 
ATOM     24  C   UNL     1       2.170   4.540  19.673  0.00  0.00    +0.000 A 
ATOM     25  H   UNL     1       0.760   2.838  17.354  0.00  0.00    +0.000 HD
ENDBRANCH  15  16
ENDBRANCH   2  15
TORSDOF 6
ENDMDL
MODEL 2
REMARK VINA RESULT:      -7.3      1.828      6.041
REMARK  Name = 
REMARK  7 active torsions:
REMARK  status: ('A' for Active; 'I' for Inactive)
REMARK    1  A    between atoms: C_1  and  O_2
REMARK    2  A    between atoms: O_2  and  C_3
REMARK    3  A    between atoms: C_3  and  C_5
REMARK    4  A    between atoms: C_5  and  C_6
REMARK    5  A    between atoms: C_6  and  N_7
REMARK    6  A    between atoms: C_8  and  C_10
REMARK    7  A    between atoms: C_10  and  C_11
REMARK                            x       y       z     vdW  Elec       q    Type
REMARK                         _______ _______ _______ _____ _____    ______ ____
ROOT
ATOM      1  N   UNL     1       3.106   4.239  18.949  0.00  0.00    +0.000 N 
ATOM      2  C   UNL     1       2.997   3.759  17.656  0.00  0.00    +0.000 C 
ATOM      3  O   UNL     1       1.921   3.578  17.091  0.00  0.00    +0.000 OA
ATOM      4  H   UNL     1       4.013   4.580  19.241  0.00  0.00    +0.000 HD
ENDROOT
BRANCH   1   5
ATOM      5  C   UNL     1       1.945   4.550  19.807  0.00  0.00    +0.000 C 
ATOM      6  C   UNL     1       2.338   4.526  21.297  0.00  0.00    +0.000 C 
ATOM      7  C   UNL     1       2.356   3.050  21.686  0.00  0.00    +0.000 C 
ATOM      8  C   UNL     1       1.350   2.362  20.777  0.00  0.00    +0.000 C 
ATOM      9  C   UNL     1       0.912   3.402  19.750  0.00  0.00    +0.000 C 
BRANCH   5  10
ATOM     10  C   UNL     1       1.292   5.892  19.423  0.00  0.00    +0.000 C 
BRANCH  10  11
ATOM     11  C   UNL     1       2.171   7.070  19.768  0.00  0.00    +0.000 C 
ATOM     12  O   UNL     1       1.901   7.905  20.623  0.00  0.00    +0.000 OA
BRANCH  11  14
ATOM     13  C   UNL     1       3.129   7.654  17.717  0.00  0.00    +0.000 C 
ATOM     14  O   UNL     1       3.302   7.077  19.012  0.00  0.00    +0.000 OA
ENDBRANCH  11  14
ENDBRANCH  10  11
ENDBRANCH   5  10
ENDBRANCH   1   5
BRANCH   2  15
ATOM     15  C   UNL     1       4.319   3.413  16.995  0.00  0.00    +0.000 C 
BRANCH  15  16
ATOM     16  C   UNL     1       5.132   4.624  16.679  0.00  0.00    +0.000 A 
ATOM     17  C   UNL     1       5.118   5.333  15.493  0.00  0.00    +0.000 A 
ATOM     18  N   UNL     1       6.022   6.355  15.588  0.00  0.00    +0.000 N 
ATOM     19  C   UNL     1       6.635   6.332  16.819  0.00  0.00    +0.000 A 
ATOM     20  C   UNL     1       7.620   7.172  17.350  0.00  0.00    +0.000 A 
ATOM     21  C   UNL     1       8.073   6.904  18.646  0.00  0.00    +0.000 A 
ATOM     22  C   UNL     1       7.561   5.836  19.375  0.00  0.00    +0.000 A 
ATOM     23  C   UNL     1       6.580   5.001  18.828  0.00  0.00    +0.000 A 
ATOM     24  C   UNL     1       6.100   5.254  17.526  0.00  0.00    +0.000 A 
ATOM     25  H   UNL     1       6.222   7.026  14.860  0.00  0.00    +0.000 HD
ENDBRANCH  15  16
ENDBRANCH   2  15
TORSDOF 6
ENDMDL
MODEL 3
REMARK VINA RESULT:      -7.3      1.814      3.382
REMARK  Name = 
REMARK  7 active torsions:
REMARK  status: ('A' for Active; 'I' for Inactive)
REMARK    1  A    between atoms: C_1  and  O_2
REMARK    2  A    between atoms: O_2  and  C_3
REMARK    3  A    between atoms: C_3  and  C_5
REMARK    4  A    between atoms: C_5  and  C_6
REMARK    5  A    between atoms: C_6  and  N_7
REMARK    6  A    between atoms: C_8  and  C_10
REMARK    7  A    between atoms: C_10  and  C_11
REMARK                            x       y       z     vdW  Elec       q    Type
REMARK                         _______ _______ _______ _____ _____    ______ ____
ROOT
ATOM      1  N   UNL     1       4.819   5.304  16.618  0.00  0.00    +0.000 N 
ATOM      2  C   UNL     1       4.686   6.628  16.997  0.00  0.00    +0.000 C 
ATOM      3  O   UNL     1       5.640   7.392  17.133  0.00  0.00    +0.000 OA
ATOM      4  H   UNL     1       3.985   4.828  16.302  0.00  0.00    +0.000 HD
ENDROOT
BRANCH   1   5
ATOM      5  C   UNL     1       6.120   4.651  16.372  0.00  0.00    +0.000 C 
ATOM      6  C   UNL     1       6.975   5.476  15.390  0.00  0.00    +0.000 C 
ATOM      7  C   UNL     1       6.433   5.140  14.004  0.00  0.00    +0.000 C 
ATOM      8  C   UNL     1       5.876   3.727  14.099  0.00  0.00    +0.000 C 
ATOM      9  C   UNL     1       5.923   3.342  15.574  0.00  0.00    +0.000 C 
BRANCH   5  10
ATOM     10  C   UNL     1       6.882   4.380  17.685  0.00  0.00    +0.000 C 
BRANCH  10  11
ATOM     11  C   UNL     1       5.962   4.371  18.882  0.00  0.00    +0.000 C 
ATOM     12  O   UNL     1       5.080   3.541  19.068  0.00  0.00    +0.000 OA
BRANCH  11  14
ATOM     13  C   UNL     1       7.598   5.854  19.651  0.00  0.00    +0.000 C 
ATOM     14  O   UNL     1       6.247   5.397  19.728  0.00  0.00    +0.000 OA
ENDBRANCH  11  14
ENDBRANCH  10  11
ENDBRANCH   5  10
ENDBRANCH   1   5
BRANCH   2  15
ATOM     15  C   UNL     1       3.262   7.063  17.293  0.00  0.00    +0.000 C 
BRANCH  15  16
ATOM     16  C   UNL     1       2.735   6.466  18.556  0.00  0.00    +0.000 A 
ATOM     17  C   UNL     1       2.779   7.040  19.812  0.00  0.00    +0.000 A 
ATOM     18  N   UNL     1       2.221   6.168  20.706  0.00  0.00    +0.000 N 
ATOM     19  C   UNL     1       1.809   5.027  20.059  0.00  0.00    +0.000 A 
ATOM     20  C   UNL     1       1.196   3.876  20.568  0.00  0.00    +0.000 A 
ATOM     21  C   UNL     1       0.892   2.850  19.667  0.00  0.00    +0.000 A 
ATOM     22  C   UNL     1       1.193   2.974  18.315  0.00  0.00    +0.000 A 
ATOM     23  C   UNL     1       1.811   4.129  17.823  0.00  0.00    +0.000 A 
ATOM     24  C   UNL     1       2.121   5.182  18.708  0.00  0.00    +0.000 A 
ATOM     25  H   UNL     1       2.130   6.330  21.699  0.00  0.00    +0.000 HD
ENDBRANCH  15  16
ENDBRANCH   2  15
TORSDOF 6
ENDMDL
MODEL 4
REMARK VINA RESULT:      -7.2      1.977      3.409
REMARK  Name = 
REMARK  7 active torsions:
REMARK  status: ('A' for Active; 'I' for Inactive)
REMARK    1  A    between atoms: C_1  and  O_2
REMARK    2  A    between atoms: O_2  and  C_3
REMARK    3  A    between atoms: C_3  and  C_5
REMARK    4  A    between atoms: C_5  and  C_6
REMARK    5  A    between atoms: C_6  and  N_7
REMARK    6  A    between atoms: C_8  and  C_10
REMARK    7  A    between atoms: C_10  and  C_11
REMARK                            x       y       z     vdW  Elec       q    Type
REMARK                         _______ _______ _______ _____ _____    ______ ____
ROOT
ATOM      1  N   UNL     1       5.378   5.450  17.081  0.00  0.00    +0.000 N 
ATOM      2  C   UNL     1       4.578   4.553  17.766  0.00  0.00    +0.000 C 
ATOM      3  O   UNL     1       5.016   3.561  18.344  0.00  0.00    +0.000 OA
ATOM      4  H   UNL     1       4.972   6.347  16.847  0.00  0.00    +0.000 HD
ENDROOT
BRANCH   1   5
ATOM      5  C   UNL     1       6.840   5.296  16.934  0.00  0.00    +0.000 C 
ATOM      6  C   UNL     1       7.484   4.861  18.264  0.00  0.00    +0.000 C 
ATOM      7  C   UNL     1       7.602   6.138  19.092  0.00  0.00    +0.000 C 
ATOM      8  C   UNL     1       7.741   7.277  18.094  0.00  0.00    +0.000 C 
ATOM      9  C   UNL     1       7.506   6.674  16.713  0.00  0.00    +0.000 C 
BRANCH   5  10
ATOM     10  C   UNL     1       7.201   4.325  15.793  0.00  0.00    +0.000 C 
BRANCH  10  11
ATOM     11  C   UNL     1       6.491   4.672  14.507  0.00  0.00    +0.000 C 
ATOM     12  O   UNL     1       5.299   4.477  14.304  0.00  0.00    +0.000 OA
BRANCH  11  14
ATOM     13  C   UNL     1       7.311   4.622  12.319  0.00  0.00    +0.000 C 
ATOM     14  O   UNL     1       7.345   5.233  13.609  0.00  0.00    +0.000 OA
ENDBRANCH  11  14
ENDBRANCH  10  11
ENDBRANCH   5  10
ENDBRANCH   1   5
BRANCH   2  15
ATOM     15  C   UNL     1       3.091   4.854  17.704  0.00  0.00    +0.000 C 
BRANCH  15  16
ATOM     16  C   UNL     1       2.639   5.722  18.831  0.00  0.00    +0.000 A 
ATOM     17  C   UNL     1       2.502   5.341  20.152  0.00  0.00    +0.000 A 
ATOM     18  N   UNL     1       2.036   6.411  20.866  0.00  0.00    +0.000 N 
ATOM     19  C   UNL     1       1.864   7.494  20.036  0.00  0.00    +0.000 A 
ATOM     20  C   UNL     1       1.406   8.785  20.324  0.00  0.00    +0.000 A 
ATOM     21  C   UNL     1       1.320   9.694  19.265  0.00  0.00    +0.000 A 
ATOM     22  C   UNL     1       1.676   9.323  17.973  0.00  0.00    +0.000 A 
ATOM     23  C   UNL     1       2.126   8.026  17.700  0.00  0.00    +0.000 A 
ATOM     24  C   UNL     1       2.230   7.091  18.751  0.00  0.00    +0.000 A 
ATOM     25  H   UNL     1       1.838   6.410  21.857  0.00  0.00    +0.000 HD
ENDBRANCH  15  16
ENDBRANCH   2  15
TORSDOF 6
ENDMDL
MODEL 5
REMARK VINA RESULT:      -7.1      1.156      1.778
REMARK  Name = 
REMARK  7 active torsions:
REMARK  status: ('A' for Active; 'I' for Inactive)
REMARK    1  A    between atoms: C_1  and  O_2
REMARK    2  A    between atoms: O_2  and  C_3
REMARK    3  A    between atoms: C_3  and  C_5
REMARK    4  A    between atoms: C_5  and  C_6
REMARK    5  A    between atoms: C_6  and  N_7
REMARK    6  A    between atoms: C_8  and  C_10
REMARK    7  A    between atoms: C_10  and  C_11
REMARK                            x       y       z     vdW  Elec       q    Type
REMARK                         _______ _______ _______ _____ _____    ______ ____
ROOT
ATOM      1  N   UNL     1       5.381   5.889  17.494  0.00  0.00    +0.000 N 
ATOM      2  C   UNL     1       4.553   6.721  16.762  0.00  0.00    +0.000 C 
ATOM      3  O   UNL     1       4.908   7.295  15.735  0.00  0.00    +0.000 OA
ATOM      4  H   UNL     1       4.943   5.281  18.173  0.00  0.00    +0.000 HD
ENDROOT
BRANCH   1   5
ATOM      5  C   UNL     1       6.793   5.628  17.147  0.00  0.00    +0.000 C 
ATOM      6  C   UNL     1       7.487   4.801  18.246  0.00  0.00    +0.000 C 
ATOM      7  C   UNL     1       7.839   5.802  19.343  0.00  0.00    +0.000 C 
ATOM      8  C   UNL     1       8.038   7.139  18.646  0.00  0.00    +0.000 C 
ATOM      9  C   UNL     1       7.610   6.940  17.196  0.00  0.00    +0.000 C 
BRANCH   5  10
ATOM     10  C   UNL     1       6.928   4.952  15.768  0.00  0.00    +0.000 C 
BRANCH  10  11
ATOM     11  C   UNL     1       5.797   3.990  15.495  0.00  0.00    +0.000 C 
ATOM     12  O   UNL     1       5.340   3.210  16.322  0.00  0.00    +0.000 OA
BRANCH  11  14
ATOM     13  C   UNL     1       6.345   3.853  13.227  0.00  0.00    +0.000 C 
ATOM     14  O   UNL     1       5.348   4.110  14.217  0.00  0.00    +0.000 OA
ENDBRANCH  11  14
ENDBRANCH  10  11
ENDBRANCH   5  10
ENDBRANCH   1   5
BRANCH   2  15
ATOM     15  C   UNL     1       3.171   6.923  17.357  0.00  0.00    +0.000 C 
BRANCH  15  16
ATOM     16  C   UNL     1       2.927   6.048  18.541  0.00  0.00    +0.000 A 
ATOM     17  C   UNL     1       3.025   6.422  19.867  0.00  0.00    +0.000 A 
ATOM     18  N   UNL     1       2.754   5.331  20.646  0.00  0.00    +0.000 N 
ATOM     19  C   UNL     1       2.479   4.241  19.854  0.00  0.00    +0.000 A 
ATOM     20  C   UNL     1       2.157   2.926  20.212  0.00  0.00    +0.000 A 
ATOM     21  C   UNL     1       1.935   2.009  19.180  0.00  0.00    +0.000 A 
ATOM     22  C   UNL     1       2.034   2.394  17.847  0.00  0.00    +0.000 A 
ATOM     23  C   UNL     1       2.362   3.711  17.506  0.00  0.00    +0.000 A 
ATOM     24  C   UNL     1       2.584   4.659  18.527  0.00  0.00    +0.000 A 
ATOM     25  H   UNL     1       2.762   5.319  21.657  0.00  0.00    +0.000 HD
ENDBRANCH  15  16
ENDBRANCH   2  15
TORSDOF 6
ENDMDL
MODEL 6
REMARK VINA RESULT:      -7.0      1.695      3.176
REMARK  Name = 
REMARK  7 active torsions:
REMARK  status: ('A' for Active; 'I' for Inactive)
REMARK    1  A    between atoms: C_1  and  O_2
REMARK    2  A    between atoms: O_2  and  C_3
REMARK    3  A    between atoms: C_3  and  C_5
REMARK    4  A    between atoms: C_5  and  C_6
REMARK    5  A    between atoms: C_6  and  N_7
REMARK    6  A    between atoms: C_8  and  C_10
REMARK    7  A    between atoms: C_10  and  C_11
REMARK                            x       y       z     vdW  Elec       q    Type
REMARK                         _______ _______ _______ _____ _____    ______ ____
ROOT
ATOM      1  N   UNL     1       5.289   4.015  17.783  0.00  0.00    +0.000 N 
ATOM      2  C   UNL     1       4.016   3.698  17.343  0.00  0.00    +0.000 C 
ATOM      3  O   UNL     1       3.654   3.819  16.175  0.00  0.00    +0.000 OA
ATOM      4  H   UNL     1       5.566   3.663  18.689  0.00  0.00    +0.000 HD
ENDROOT
BRANCH   1   5
ATOM      5  C   UNL     1       6.341   4.572  16.909  0.00  0.00    +0.000 C 
ATOM      6  C   UNL     1       7.640   4.819  17.699  0.00  0.00    +0.000 C 
ATOM      7  C   UNL     1       7.419   6.137  18.437  0.00  0.00    +0.000 C 
ATOM      8  C   UNL     1       6.450   6.941  17.583  0.00  0.00    +0.000 C 
ATOM      9  C   UNL     1       5.974   6.009  16.474  0.00  0.00    +0.000 C 
BRANCH   5  10
ATOM     10  C   UNL     1       6.596   3.677  15.679  0.00  0.00    +0.000 C 
BRANCH  10  11
ATOM     11  C   UNL     1       6.775   4.486  14.417  0.00  0.00    +0.000 C 
ATOM     12  O   UNL     1       7.679   5.293  14.237  0.00  0.00    +0.000 OA
BRANCH  11  14
ATOM     13  C   UNL     1       6.293   3.527  12.340  0.00  0.00    +0.000 C 
ATOM     14  O   UNL     1       5.807   4.195  13.506  0.00  0.00    +0.000 OA
ENDBRANCH  11  14
ENDBRANCH  10  11
ENDBRANCH   5  10
ENDBRANCH   1   5
BRANCH   2  15
ATOM     15  C   UNL     1       3.066   3.234  18.433  0.00  0.00    +0.000 C 
BRANCH  15  16
ATOM     16  C   UNL     1       2.713   4.329  19.385  0.00  0.00    +0.000 A 
ATOM     17  C   UNL     1       2.515   4.196  20.746  0.00  0.00    +0.000 A 
ATOM     18  N   UNL     1       2.180   5.420  21.256  0.00  0.00    +0.000 N 
ATOM     19  C   UNL     1       2.154   6.360  20.252  0.00  0.00    +0.000 A 
ATOM     20  C   UNL     1       1.859   7.728  20.307  0.00  0.00    +0.000 A 
ATOM     21  C   UNL     1       1.900   8.448  19.109  0.00  0.00    +0.000 A 
ATOM     22  C   UNL     1       2.220   7.823  17.908  0.00  0.00    +0.000 A 
ATOM     23  C   UNL     1       2.507   6.454  17.870  0.00  0.00    +0.000 A 
ATOM     24  C   UNL     1       2.481   5.704  19.064  0.00  0.00    +0.000 A 
ATOM     25  H   UNL     1       1.973   5.611  22.226  0.00  0.00    +0.000 HD
ENDBRANCH  15  16
ENDBRANCH   2  15
TORSDOF 6
ENDMDL
MODEL 7
REMARK VINA RESULT:      -7.0      1.710      2.698
REMARK  Name = 
REMARK  7 active torsions:
REMARK  status: ('A' for Active; 'I' for Inactive)
REMARK    1  A    between atoms: C_1  and  O_2
REMARK    2  A    between atoms: O_2  and  C_3
REMARK    3  A    between atoms: C_3  and  C_5
REMARK    4  A    between atoms: C_5  and  C_6
REMARK    5  A    between atoms: C_6  and  N_7
REMARK    6  A    between atoms: C_8  and  C_10
REMARK    7  A    between atoms: C_10  and  C_11
REMARK                            x       y       z     vdW  Elec       q    Type
REMARK                         _______ _______ _______ _____ _____    ______ ____
ROOT
ATOM      1  N   UNL     1       5.363   6.382  18.162  0.00  0.00    +0.000 N 
ATOM      2  C   UNL     1       4.425   6.715  17.200  0.00  0.00    +0.000 C 
ATOM      3  O   UNL     1       4.611   6.565  15.994  0.00  0.00    +0.000 OA
ATOM      4  H   UNL     1       5.039   6.313  19.118  0.00  0.00    +0.000 HD
ENDROOT
BRANCH   1   5
ATOM      5  C   UNL     1       6.703   5.848  17.848  0.00  0.00    +0.000 C 
ATOM      6  C   UNL     1       7.688   6.117  19.002  0.00  0.00    +0.000 C 
ATOM      7  C   UNL     1       8.119   7.572  18.833  0.00  0.00    +0.000 C 
ATOM      8  C   UNL     1       8.020   7.871  17.345  0.00  0.00    +0.000 C 
ATOM      9  C   UNL     1       7.351   6.661  16.703  0.00  0.00    +0.000 C 
BRANCH   5  10
ATOM     10  C   UNL     1       6.654   4.349  17.493  0.00  0.00    +0.000 C 
BRANCH  10  11
ATOM     11  C   UNL     1       5.370   3.700  17.952  0.00  0.00    +0.000 C 
ATOM     12  O   UNL     1       4.543   3.200  17.200  0.00  0.00    +0.000 OA
BRANCH  11  14
ATOM     13  C   UNL     1       4.501   2.656  19.854  0.00  0.00    +0.000 C 
ATOM     14  O   UNL     1       5.258   3.736  19.307  0.00  0.00    +0.000 OA
ENDBRANCH  11  14
ENDBRANCH  10  11
ENDBRANCH   5  10
ENDBRANCH   1   5
BRANCH   2  15
ATOM     15  C   UNL     1       3.153   7.340  17.743  0.00  0.00    +0.000 C 
BRANCH  15  16
ATOM     16  C   UNL     1       2.594   6.580  18.900  0.00  0.00    +0.000 A 
ATOM     17  C   UNL     1       2.577   6.993  20.218  0.00  0.00    +0.000 A 
ATOM     18  N   UNL     1       2.008   6.005  20.974  0.00  0.00    +0.000 N 
ATOM     19  C   UNL     1       1.648   4.946  20.175  0.00  0.00    +0.000 A 
ATOM     20  C   UNL     1       1.045   3.728  20.512  0.00  0.00    +0.000 A 
ATOM     21  C   UNL     1       0.800   2.818  19.479  0.00  0.00    +0.000 A 
ATOM     22  C   UNL     1       1.148   3.115  18.166  0.00  0.00    +0.000 A 
ATOM     23  C   UNL     1       1.756   4.335  17.846  0.00  0.00    +0.000 A 
ATOM     24  C   UNL     1       2.007   5.275  18.867  0.00  0.00    +0.000 A 
ATOM     25  H   UNL     1       1.876   6.040  21.976  0.00  0.00    +0.000 HD
ENDBRANCH  15  16
ENDBRANCH   2  15
TORSDOF 6
ENDMDL
MODEL 8
REMARK VINA RESULT:      -7.0      3.056      5.236
REMARK  Name = 
REMARK  7 active torsions:
REMARK  status: ('A' for Active; 'I' for Inactive)
REMARK    1  A    between atoms: C_1  and  O_2
REMARK    2  A    between atoms: O_2  and  C_3
REMARK    3  A    between atoms: C_3  and  C_5
REMARK    4  A    between atoms: C_5  and  C_6
REMARK    5  A    between atoms: C_6  and  N_7
REMARK    6  A    between atoms: C_8  and  C_10
REMARK    7  A    between atoms: C_10  and  C_11
REMARK                            x       y       z     vdW  Elec       q    Type
REMARK                         _______ _______ _______ _____ _____    ______ ____
ROOT
ATOM      1  N   UNL     1       3.189   4.888  19.372  0.00  0.00    +0.000 N 
ATOM      2  C   UNL     1       2.640   5.837  18.528  0.00  0.00    +0.000 C 
ATOM      3  O   UNL     1       1.807   5.572  17.664  0.00  0.00    +0.000 OA
ATOM      4  H   UNL     1       3.673   5.225  20.194  0.00  0.00    +0.000 HD
ENDROOT
BRANCH   1   5
ATOM      5  C   UNL     1       2.868   3.448  19.303  0.00  0.00    +0.000 C 
ATOM      6  C   UNL     1       1.363   3.231  19.051  0.00  0.00    +0.000 C 
ATOM      7  C   UNL     1       0.696   3.416  20.411  0.00  0.00    +0.000 C 
ATOM      8  C   UNL     1       1.733   3.013  21.448  0.00  0.00    +0.000 C 
ATOM      9  C   UNL     1       3.039   2.792  20.692  0.00  0.00    +0.000 C 
BRANCH   5  10
ATOM     10  C   UNL     1       3.723   2.721  18.246  0.00  0.00    +0.000 C 
BRANCH  10  11
ATOM     11  C   UNL     1       4.798   3.613  17.675  0.00  0.00    +0.000 C 
ATOM     12  O   UNL     1       4.797   4.047  16.529  0.00  0.00    +0.000 OA
BRANCH  11  14
ATOM     13  C   UNL     1       6.604   4.978  18.259  0.00  0.00    +0.000 C 
ATOM     14  O   UNL     1       5.761   3.876  18.599  0.00  0.00    +0.000 OA
ENDBRANCH  11  14
ENDBRANCH  10  11
ENDBRANCH   5  10
ENDBRANCH   1   5
BRANCH   2  15
ATOM     15  C   UNL     1       3.188   7.241  18.711  0.00  0.00    +0.000 C 
BRANCH  15  16
ATOM     16  C   UNL     1       2.113   8.277  18.707  0.00  0.00    +0.000 A 
ATOM     17  C   UNL     1       1.688   9.011  17.617  0.00  0.00    +0.000 A 
ATOM     18  N   UNL     1       0.710   9.873  18.029  0.00  0.00    +0.000 N 
ATOM     19  C   UNL     1       0.483   9.721  19.377  0.00  0.00    +0.000 A 
ATOM     20  C   UNL     1      -0.414  10.388  20.220  0.00  0.00    +0.000 A 
ATOM     21  C   UNL     1      -0.423  10.029  21.571  0.00  0.00    +0.000 A 
ATOM     22  C   UNL     1       0.432   9.046  22.057  0.00  0.00    +0.000 A 
ATOM     23  C   UNL     1       1.326   8.391  21.202  0.00  0.00    +0.000 A 
ATOM     24  C   UNL     1       1.351   8.728  19.832  0.00  0.00    +0.000 A 
ATOM     25  H   UNL     1       0.228  10.535  17.437  0.00  0.00    +0.000 HD
ENDBRANCH  15  16
ENDBRANCH   2  15
TORSDOF 6
ENDMDL
MODEL 9
REMARK VINA RESULT:      -7.0      1.272      2.007
REMARK  Name = 
REMARK  7 active torsions:
REMARK  status: ('A' for Active; 'I' for Inactive)
REMARK    1  A    between atoms: C_1  and  O_2
REMARK    2  A    between atoms: O_2  and  C_3
REMARK    3  A    between atoms: C_3  and  C_5
REMARK    4  A    between atoms: C_5  and  C_6
REMARK    5  A    between atoms: C_6  and  N_7
REMARK    6  A    between atoms: C_8  and  C_10
REMARK    7  A    between atoms: C_10  and  C_11
REMARK                            x       y       z     vdW  Elec       q    Type
REMARK                         _______ _______ _______ _____ _____    ______ ____
ROOT
ATOM      1  N   UNL     1       4.836   6.233  17.968  0.00  0.00    +0.000 N 
ATOM      2  C   UNL     1       3.775   7.038  17.595  0.00  0.00    +0.000 C 
ATOM      3  O   UNL     1       3.707   7.607  16.507  0.00  0.00    +0.000 OA
ATOM      4  H   UNL     1       4.697   5.625  18.765  0.00  0.00    +0.000 HD
ENDROOT
BRANCH   1   5
ATOM      5  C   UNL     1       6.022   5.998  17.120  0.00  0.00    +0.000 C 
ATOM      6  C   UNL     1       6.916   4.894  17.718  0.00  0.00    +0.000 C 
ATOM      7  C   UNL     1       7.718   5.578  18.822  0.00  0.00    +0.000 C 
ATOM      8  C   UNL     1       7.855   7.034  18.404  0.00  0.00    +0.000 C 
ATOM      9  C   UNL     1       6.971   7.217  17.174  0.00  0.00    +0.000 C 
BRANCH   5  10
ATOM     10  C   UNL     1       5.630   5.674  15.665  0.00  0.00    +0.000 C 
BRANCH  10  11
ATOM     11  C   UNL     1       6.743   4.975  14.921  0.00  0.00    +0.000 C 
ATOM     12  O   UNL     1       7.844   5.467  14.706  0.00  0.00    +0.000 OA
BRANCH  11  14
ATOM     13  C   UNL     1       6.123   3.614  13.125  0.00  0.00    +0.000 C 
ATOM     14  O   UNL     1       6.364   3.729  14.528  0.00  0.00    +0.000 OA
ENDBRANCH  11  14
ENDBRANCH  10  11
ENDBRANCH   5  10
ENDBRANCH   1   5
BRANCH   2  15
ATOM     15  C   UNL     1       2.709   7.219  18.662  0.00  0.00    +0.000 C 
BRANCH  15  16
ATOM     16  C   UNL     1       2.441   5.960  19.417  0.00  0.00    +0.000 A 
ATOM     17  C   UNL     1       2.276   5.846  20.784  0.00  0.00    +0.000 A 
ATOM     18  N   UNL     1       2.078   4.527  21.088  0.00  0.00    +0.000 N 
ATOM     19  C   UNL     1       2.110   3.767  19.942  0.00  0.00    +0.000 A 
ATOM     20  C   UNL     1       1.961   2.386  19.774  0.00  0.00    +0.000 A 
ATOM     21  C   UNL     1       2.051   1.877  18.474  0.00  0.00    +0.000 A 
ATOM     22  C   UNL     1       2.282   2.718  17.391  0.00  0.00    +0.000 A 
ATOM     23  C   UNL     1       2.433   4.097  17.577  0.00  0.00    +0.000 A 
ATOM     24  C   UNL     1       2.340   4.638  18.876  0.00  0.00    +0.000 A 
ATOM     25  H   UNL     1       1.937   4.158  22.018  0.00  0.00    +0.000 HD
ENDBRANCH  15  16
ENDBRANCH   2  15
TORSDOF 6
ENDMDL
