MODEL 1
REMARK VINA RESULT:      -9.7      0.000      0.000
REMARK  Name = 
REMARK  7 active torsions:
REMARK  status: ('A' for Active; 'I' for Inactive)
REMARK    1  A    between atoms: C_1  and  C_2
REMARK    2  A    between atoms: C_2  and  C_3
REMARK    3  A    between atoms: C_2  and  O_4
REMARK    4  A    between atoms: O_4  and  C_5
REMARK    5  A    between atoms: C_10  and  N_11
REMARK    6  A    between atoms: C_16  and  C_17
REMARK    7  A    between atoms: C_21  and  C_22
REMARK                            x       y       z     vdW  Elec       q    Type
REMARK                         _______ _______ _______ _____ _____    ______ ____
ROOT
ATOM      1  N   UNL     1      -0.695  11.811  22.151  0.00  0.00    +0.000 N 
ATOM      2  N   UNL     1      -0.805  11.260  23.375  0.00  0.00    +0.000 NA
ATOM      3  N   UNL     1      -0.187  10.088  23.353  0.00  0.00    +0.000 NA
ATOM      4  C   UNL     1       0.323   9.904  22.099  0.00  0.00    +0.000 A 
ATOM      5  C   UNL     1       1.027   8.835  21.552  0.00  0.00    +0.000 A 
ATOM      6  C   UNL     1       1.386   8.957  20.213  0.00  0.00    +0.000 A 
ATOM      7  N   UNL     1       1.117  10.067  19.468  0.00  0.00    +0.000 NA
ATOM      8  C   UNL     1       0.432  11.102  19.999  0.00  0.00    +0.000 A 
ATOM      9  C   UNL     1       0.027  11.005  21.318  0.00  0.00    +0.000 A 
ENDROOT
BRANCH   1  15
ATOM     10  C   UNL     1      -5.440  12.742  20.752  0.00  0.00    +0.000 C 
ATOM     11  O   UNL     1      -6.322  12.859  21.595  0.00  0.00    +0.000 OA
ATOM     12  N   UNL     1      -4.088  12.737  21.060  0.00  0.00    +0.000 N 
ATOM     13  C   UNL     1      -3.714  12.601  22.462  0.00  0.00    +0.000 C 
ATOM     14  C   UNL     1      -2.469  13.415  22.786  0.00  0.00    +0.000 C 
ATOM     15  C   UNL     1      -1.318  13.088  21.834  0.00  0.00    +0.000 C 
ATOM     16  C   UNL     1      -1.764  13.226  20.371  0.00  0.00    +0.000 C 
ATOM     17  C   UNL     1      -3.057  12.473  20.061  0.00  0.00    +0.000 C 
BRANCH  10  18
ATOM     18  O   UNL     1      -5.686  12.643  19.413  0.00  0.00    +0.000 OA
BRANCH  18  20
ATOM     19  C   UNL     1      -7.532  12.876  17.887  0.00  0.00    +0.000 C 
ATOM     20  C   UNL     1      -6.971  12.094  19.071  0.00  0.00    +0.000 C 
ATOM     21  C   UNL     1      -6.792  10.626  18.704  0.00  0.00    +0.000 C 
ENDBRANCH  18  20
ENDBRANCH  10  18
ENDBRANCH   1  15
BRANCH   6  22
ATOM     22  C   UNL     1       2.029   7.880  19.451  0.00  0.00    +0.000 A 
ATOM     23  C   UNL     1       2.241   6.615  20.032  0.00  0.00    +0.000 A 
ATOM     24  C   UNL     1       2.972   5.628  19.369  0.00  0.00    +0.000 A 
ATOM     25  F   UNL     1       3.175   4.463  20.000  0.00  0.00    +0.000 F 
ATOM     26  C   UNL     1       3.504   5.874  18.106  0.00  0.00    +0.000 A 
ATOM     27  C   UNL     1       3.244   7.101  17.488  0.00  0.00    +0.000 A 
ATOM     28  C   UNL     1       2.533   8.088  18.162  0.00  0.00    +0.000 A 
ATOM     29  F   UNL     1       2.381   9.269  17.546  0.00  0.00    +0.000 F 
BRANCH  26  30
ATOM     30  C   UNL     1       4.272   4.837  17.377  0.00  0.00    +0.000 C 
ATOM     31  O   UNL     1       3.701   3.872  16.886  0.00  0.00    +0.000 OA
ATOM     32  N   UNL     1       5.614   5.094  17.203  0.00  0.00    +0.000 N 
ATOM     33  C   UNL     1       6.572   4.332  16.421  0.00  0.00    +0.000 C 
ATOM     34  C   UNL     1       7.589   4.594  17.531  0.00  0.00    +0.000 C 
ATOM     35  C   UNL     1       6.600   5.569  18.168  0.00  0.00    +0.000 C 
ENDBRANCH  26  30
ENDBRANCH   6  22
TORSDOF 5
ENDMDL
MODEL 2
REMARK VINA RESULT:      -9.3      2.973     11.081
REMARK  Name = 
REMARK  7 active torsions:
REMARK  status: ('A' for Active; 'I' for Inactive)
REMARK    1  A    between atoms: C_1  and  C_2
REMARK    2  A    between atoms: C_2  and  C_3
REMARK    3  A    between atoms: C_2  and  O_4
REMARK    4  A    between atoms: O_4  and  C_5
REMARK    5  A    between atoms: C_10  and  N_11
REMARK    6  A    between atoms: C_16  and  C_17
REMARK    7  A    between atoms: C_21  and  C_22
REMARK                            x       y       z     vdW  Elec       q    Type
REMARK                         _______ _______ _______ _____ _____    ______ ____
ROOT
ATOM      1  N   UNL     1       2.984   6.695  18.651  0.00  0.00    +0.000 N 
ATOM      2  N   UNL     1       3.242   7.348  17.501  0.00  0.00    +0.000 NA
ATOM      3  N   UNL     1       2.617   8.516  17.546  0.00  0.00    +0.000 NA
ATOM      4  C   UNL     1       1.964   8.598  18.743  0.00  0.00    +0.000 A 
ATOM      5  C   UNL     1       1.148   9.598  19.265  0.00  0.00    +0.000 A 
ATOM      6  C   UNL     1       0.610   9.355  20.525  0.00  0.00    +0.000 A 
ATOM      7  N   UNL     1       0.886   8.233  21.249  0.00  0.00    +0.000 NA
ATOM      8  C   UNL     1       1.677   7.264  20.741  0.00  0.00    +0.000 A 
ATOM      9  C   UNL     1       2.202   7.451  19.476  0.00  0.00    +0.000 A 
ENDROOT
BRANCH   1  15
ATOM     10  C   UNL     1       6.813   4.322  16.404  0.00  0.00    +0.000 C 
ATOM     11  O   UNL     1       7.963   4.501  16.788  0.00  0.00    +0.000 OA
ATOM     12  N   UNL     1       5.699   4.734  17.119  0.00  0.00    +0.000 N 
ATOM     13  C   UNL     1       5.910   5.645  18.237  0.00  0.00    +0.000 C 
ATOM     14  C   UNL     1       4.940   5.363  19.375  0.00  0.00    +0.000 C 
ATOM     15  C   UNL     1       3.490   5.351  18.890  0.00  0.00    +0.000 C 
ATOM     16  C   UNL     1       3.320   4.393  17.701  0.00  0.00    +0.000 C 
ATOM     17  C   UNL     1       4.343   4.623  16.590  0.00  0.00    +0.000 C 
BRANCH  10  18
ATOM     18  O   UNL     1       6.498   3.663  15.251  0.00  0.00    +0.000 OA
BRANCH  18  20
ATOM     19  C   UNL     1       7.594   5.018  13.591  0.00  0.00    +0.000 C 
ATOM     20  C   UNL     1       6.254   4.511  14.115  0.00  0.00    +0.000 C 
ATOM     21  C   UNL     1       5.536   3.698  13.045  0.00  0.00    +0.000 C 
ENDBRANCH  18  20
ENDBRANCH  10  18
ENDBRANCH   1  15
BRANCH   6  22
ATOM     22  C   UNL     1      -0.358  10.249  21.173  0.00  0.00    +0.000 A 
ATOM     23  C   UNL     1      -1.044  11.226  20.429  0.00  0.00    +0.000 A 
ATOM     24  C   UNL     1      -1.862  12.170  21.053  0.00  0.00    +0.000 A 
ATOM     25  F   UNL     1      -2.448  13.101  20.288  0.00  0.00    +0.000 F 
ATOM     26  C   UNL     1      -2.023  12.156  22.436  0.00  0.00    +0.000 A 
ATOM     27  C   UNL     1      -1.401  11.150  23.182  0.00  0.00    +0.000 A 
ATOM     28  C   UNL     1      -0.572  10.226  22.556  0.00  0.00    +0.000 A 
ATOM     29  F   UNL     1       0.054   9.331  23.334  0.00  0.00    +0.000 F 
BRANCH  26  30
ATOM     30  C   UNL     1      -2.897  13.139  23.121  0.00  0.00    +0.000 C 
ATOM     31  O   UNL     1      -4.113  13.089  22.985  0.00  0.00    +0.000 OA
ATOM     32  N   UNL     1      -2.264  14.009  23.981  0.00  0.00    +0.000 N 
ATOM     33  C   UNL     1      -2.874  14.975  24.877  0.00  0.00    +0.000 C 
ATOM     34  C   UNL     1      -1.739  15.932  24.515  0.00  0.00    +0.000 C 
ATOM     35  C   UNL     1      -1.044  14.784  23.785  0.00  0.00    +0.000 C 
ENDBRANCH  26  30
ENDBRANCH   6  22
TORSDOF 5
ENDMDL
MODEL 3
REMARK VINA RESULT:      -9.0      2.899     11.166
REMARK  Name = 
REMARK  7 active torsions:
REMARK  status: ('A' for Active; 'I' for Inactive)
REMARK    1  A    between atoms: C_1  and  C_2
REMARK    2  A    between atoms: C_2  and  C_3
REMARK    3  A    between atoms: C_2  and  O_4
REMARK    4  A    between atoms: O_4  and  C_5
REMARK    5  A    between atoms: C_10  and  N_11
REMARK    6  A    between atoms: C_16  and  C_17
REMARK    7  A    between atoms: C_21  and  C_22
REMARK                            x       y       z     vdW  Elec       q    Type
REMARK                         _______ _______ _______ _____ _____    ______ ____
ROOT
ATOM      1  N   UNL     1       2.876   6.753  18.630  0.00  0.00    +0.000 N 
ATOM      2  N   UNL     1       3.089   7.350  17.442  0.00  0.00    +0.000 NA
ATOM      3  N   UNL     1       2.492   8.534  17.467  0.00  0.00    +0.000 NA
ATOM      4  C   UNL     1       1.903   8.682  18.690  0.00  0.00    +0.000 A 
ATOM      5  C   UNL     1       1.137   9.722  19.209  0.00  0.00    +0.000 A 
ATOM      6  C   UNL     1       0.659   9.545  20.504  0.00  0.00    +0.000 A 
ATOM      7  N   UNL     1       0.947   8.449  21.261  0.00  0.00    +0.000 NA
ATOM      8  C   UNL     1       1.690   7.441  20.756  0.00  0.00    +0.000 A 
ATOM      9  C   UNL     1       2.154   7.562  19.459  0.00  0.00    +0.000 A 
ENDROOT
BRANCH   1  15
ATOM     10  C   UNL     1       6.698   4.291  16.468  0.00  0.00    +0.000 C 
ATOM     11  O   UNL     1       7.847   4.466  16.858  0.00  0.00    +0.000 OA
ATOM     12  N   UNL     1       5.582   4.730  17.164  0.00  0.00    +0.000 N 
ATOM     13  C   UNL     1       5.794   5.663  18.264  0.00  0.00    +0.000 C 
ATOM     14  C   UNL     1       4.811   5.415  19.400  0.00  0.00    +0.000 C 
ATOM     15  C   UNL     1       3.365   5.409  18.902  0.00  0.00    +0.000 C 
ATOM     16  C   UNL     1       3.195   4.428  17.733  0.00  0.00    +0.000 C 
ATOM     17  C   UNL     1       4.230   4.623  16.625  0.00  0.00    +0.000 C 
BRANCH  10  18
ATOM     18  O   UNL     1       6.385   3.611  15.327  0.00  0.00    +0.000 OA
BRANCH  18  20
ATOM     19  C   UNL     1       7.539   5.054  13.783  0.00  0.00    +0.000 C 
ATOM     20  C   UNL     1       6.197   4.435  14.162  0.00  0.00    +0.000 C 
ATOM     21  C   UNL     1       5.671   3.564  13.028  0.00  0.00    +0.000 C 
ENDBRANCH  18  20
ENDBRANCH  10  18
ENDBRANCH   1  15
BRANCH   6  22
ATOM     22  C   UNL     1      -0.256  10.488  21.160  0.00  0.00    +0.000 A 
ATOM     23  C   UNL     1      -0.738  11.618  20.473  0.00  0.00    +0.000 A 
ATOM     24  C   UNL     1      -1.495  12.593  21.125  0.00  0.00    +0.000 A 
ATOM     25  F   UNL     1      -1.882  13.666  20.422  0.00  0.00    +0.000 F 
ATOM     26  C   UNL     1      -1.800  12.460  22.477  0.00  0.00    +0.000 A 
ATOM     27  C   UNL     1      -1.386  11.309  23.156  0.00  0.00    +0.000 A 
ATOM     28  C   UNL     1      -0.614  10.353  22.506  0.00  0.00    +0.000 A 
ATOM     29  F   UNL     1      -0.186   9.308  23.230  0.00  0.00    +0.000 F 
BRANCH  26  30
ATOM     30  C   UNL     1      -2.614  13.474  23.188  0.00  0.00    +0.000 C 
ATOM     31  O   UNL     1      -2.123  14.146  24.086  0.00  0.00    +0.000 OA
ATOM     32  N   UNL     1      -3.886  13.674  22.700  0.00  0.00    +0.000 N 
ATOM     33  C   UNL     1      -4.847  14.685  23.106  0.00  0.00    +0.000 C 
ATOM     34  C   UNL     1      -5.933  13.621  22.962  0.00  0.00    +0.000 C 
ATOM     35  C   UNL     1      -4.899  12.695  22.321  0.00  0.00    +0.000 C 
ENDBRANCH  26  30
ENDBRANCH   6  22
TORSDOF 5
ENDMDL
MODEL 4
REMARK VINA RESULT:      -9.0      2.045      2.775
REMARK  Name = 
REMARK  7 active torsions:
REMARK  status: ('A' for Active; 'I' for Inactive)
REMARK    1  A    between atoms: C_1  and  C_2
REMARK    2  A    between atoms: C_2  and  C_3
REMARK    3  A    between atoms: C_2  and  O_4
REMARK    4  A    between atoms: O_4  and  C_5
REMARK    5  A    between atoms: C_10  and  N_11
REMARK    6  A    between atoms: C_16  and  C_17
REMARK    7  A    between atoms: C_21  and  C_22
REMARK                            x       y       z     vdW  Elec       q    Type
REMARK                         _______ _______ _______ _____ _____    ______ ____
ROOT
ATOM      1  N   UNL     1      -1.212  12.422  20.522  0.00  0.00    +0.000 N 
ATOM      2  N   UNL     1      -1.987  12.557  19.429  0.00  0.00    +0.000 NA
ATOM      3  N   UNL     1      -1.637  11.619  18.561  0.00  0.00    +0.000 NA
ATOM      4  C   UNL     1      -0.632  10.882  19.120  0.00  0.00    +0.000 A 
ATOM      5  C   UNL     1       0.096   9.809  18.615  0.00  0.00    +0.000 A 
ATOM      6  C   UNL     1       1.084   9.292  19.448  0.00  0.00    +0.000 A 
ATOM      7  N   UNL     1       1.316   9.758  20.708  0.00  0.00    +0.000 NA
ATOM      8  C   UNL     1       0.610  10.800  21.196  0.00  0.00    +0.000 A 
ATOM      9  C   UNL     1      -0.358  11.366  20.386  0.00  0.00    +0.000 A 
ENDROOT
BRANCH   1  15
ATOM     10  C   UNL     1      -4.906  12.839  23.917  0.00  0.00    +0.000 C 
ATOM     11  O   UNL     1      -4.929  12.106  24.899  0.00  0.00    +0.000 OA
ATOM     12  N   UNL     1      -3.805  12.957  23.082  0.00  0.00    +0.000 N 
ATOM     13  C   UNL     1      -2.736  11.977  23.227  0.00  0.00    +0.000 C 
ATOM     14  C   UNL     1      -1.371  12.605  22.985  0.00  0.00    +0.000 C 
ATOM     15  C   UNL     1      -1.317  13.341  21.646  0.00  0.00    +0.000 C 
ATOM     16  C   UNL     1      -2.472  14.348  21.532  0.00  0.00    +0.000 C 
ATOM     17  C   UNL     1      -3.837  13.739  21.849  0.00  0.00    +0.000 C 
BRANCH  10  18
ATOM     18  O   UNL     1      -5.942  13.650  23.558  0.00  0.00    +0.000 OA
BRANCH  18  20
ATOM     19  C   UNL     1      -7.866  12.217  23.363  0.00  0.00    +0.000 C 
ATOM     20  C   UNL     1      -6.859  13.078  22.607  0.00  0.00    +0.000 C 
ATOM     21  C   UNL     1      -7.569  14.209  21.873  0.00  0.00    +0.000 C 
ENDBRANCH  18  20
ENDBRANCH  10  18
ENDBRANCH   1  15
BRANCH   6  22
ATOM     22  C   UNL     1       2.018   8.238  19.031  0.00  0.00    +0.000 A 
ATOM     23  C   UNL     1       2.748   8.357  17.833  0.00  0.00    +0.000 A 
ATOM     24  C   UNL     1       3.532   7.305  17.356  0.00  0.00    +0.000 A 
ATOM     25  F   UNL     1       4.163   7.470  16.185  0.00  0.00    +0.000 F 
ATOM     26  C   UNL     1       3.617   6.111  18.067  0.00  0.00    +0.000 A 
ATOM     27  C   UNL     1       2.951   6.003  19.293  0.00  0.00    +0.000 A 
ATOM     28  C   UNL     1       2.155   7.046  19.751  0.00  0.00    +0.000 A 
ATOM     29  F   UNL     1       1.484   6.854  20.896  0.00  0.00    +0.000 F 
BRANCH  26  30
ATOM     30  C   UNL     1       4.454   4.985  17.589  0.00  0.00    +0.000 C 
ATOM     31  O   UNL     1       3.935   3.943  17.209  0.00  0.00    +0.000 OA
ATOM     32  N   UNL     1       5.805   5.237  17.499  0.00  0.00    +0.000 N 
ATOM     33  C   UNL     1       6.835   4.378  16.941  0.00  0.00    +0.000 C 
ATOM     34  C   UNL     1       7.743   4.833  18.083  0.00  0.00    +0.000 C 
ATOM     35  C   UNL     1       6.695   5.879  18.461  0.00  0.00    +0.000 C 
ENDBRANCH  26  30
ENDBRANCH   6  22
TORSDOF 5
ENDMDL
MODEL 5
REMARK VINA RESULT:      -8.8      0.893      1.579
REMARK  Name = 
REMARK  7 active torsions:
REMARK  status: ('A' for Active; 'I' for Inactive)
REMARK    1  A    between atoms: C_1  and  C_2
REMARK    2  A    between atoms: C_2  and  C_3
REMARK    3  A    between atoms: C_2  and  O_4
REMARK    4  A    between atoms: O_4  and  C_5
REMARK    5  A    between atoms: C_10  and  N_11
REMARK    6  A    between atoms: C_16  and  C_17
REMARK    7  A    between atoms: C_21  and  C_22
REMARK                            x       y       z     vdW  Elec       q    Type
REMARK                         _______ _______ _______ _____ _____    ______ ____
ROOT
ATOM      1  N   UNL     1      -0.874  11.873  21.925  0.00  0.00    +0.000 N 
ATOM      2  N   UNL     1      -0.951  11.396  23.183  0.00  0.00    +0.000 NA
ATOM      3  N   UNL     1      -0.254  10.270  23.236  0.00  0.00    +0.000 NA
ATOM      4  C   UNL     1       0.272  10.042  21.996  0.00  0.00    +0.000 A 
ATOM      5  C   UNL     1       1.050   8.991  21.520  0.00  0.00    +0.000 A 
ATOM      6  C   UNL     1       1.405   9.051  20.175  0.00  0.00    +0.000 A 
ATOM      7  N   UNL     1       1.065  10.089  19.361  0.00  0.00    +0.000 NA
ATOM      8  C   UNL     1       0.308  11.107  19.824  0.00  0.00    +0.000 A 
ATOM      9  C   UNL     1      -0.096  11.067  21.146  0.00  0.00    +0.000 A 
ENDROOT
BRANCH   1  15
ATOM     10  C   UNL     1      -5.812  12.543  21.204  0.00  0.00    +0.000 C 
ATOM     11  O   UNL     1      -6.549  12.782  22.154  0.00  0.00    +0.000 OA
ATOM     12  N   UNL     1      -4.428  12.595  21.283  0.00  0.00    +0.000 N 
ATOM     13  C   UNL     1      -3.827  12.679  22.608  0.00  0.00    +0.000 C 
ATOM     14  C   UNL     1      -2.573  13.543  22.596  0.00  0.00    +0.000 C 
ATOM     15  C   UNL     1      -1.582  13.082  21.527  0.00  0.00    +0.000 C 
ATOM     16  C   UNL     1      -2.263  12.990  20.154  0.00  0.00    +0.000 C 
ATOM     17  C   UNL     1      -3.564  12.188  20.179  0.00  0.00    +0.000 C 
BRANCH  10  18
ATOM     18  O   UNL     1      -6.267  12.237  19.955  0.00  0.00    +0.000 OA
BRANCH  18  20
ATOM     19  C   UNL     1      -6.338  14.565  19.346  0.00  0.00    +0.000 C 
ATOM     20  C   UNL     1      -7.099  13.243  19.350  0.00  0.00    +0.000 C 
ATOM     21  C   UNL     1      -7.427  12.812  17.925  0.00  0.00    +0.000 C 
ENDBRANCH  18  20
ENDBRANCH  10  18
ENDBRANCH   1  15
BRANCH   6  22
ATOM     22  C   UNL     1       2.124   7.973  19.485  0.00  0.00    +0.000 A 
ATOM     23  C   UNL     1       2.767   8.210  18.255  0.00  0.00    +0.000 A 
ATOM     24  C   UNL     1       3.335   7.167  17.522  0.00  0.00    +0.000 A 
ATOM     25  F   UNL     1       3.891   7.458  16.337  0.00  0.00    +0.000 F 
ATOM     26  C   UNL     1       3.286   5.861  18.002  0.00  0.00    +0.000 A 
ATOM     27  C   UNL     1       2.710   5.620  19.254  0.00  0.00    +0.000 A 
ATOM     28  C   UNL     1       2.127   6.660  19.968  0.00  0.00    +0.000 A 
ATOM     29  F   UNL     1       1.528   6.353  21.127  0.00  0.00    +0.000 F 
BRANCH  26  30
ATOM     30  C   UNL     1       3.894   4.739  17.249  0.00  0.00    +0.000 C 
ATOM     31  O   UNL     1       3.227   3.755  16.954  0.00  0.00    +0.000 OA
ATOM     32  N   UNL     1       5.189   4.933  16.821  0.00  0.00    +0.000 N 
ATOM     33  C   UNL     1       5.979   4.074  15.958  0.00  0.00    +0.000 C 
ATOM     34  C   UNL     1       7.181   4.395  16.845  0.00  0.00    +0.000 C 
ATOM     35  C   UNL     1       6.338   5.456  17.552  0.00  0.00    +0.000 C 
ENDBRANCH  26  30
ENDBRANCH   6  22
TORSDOF 5
ENDMDL
MODEL 6
REMARK VINA RESULT:      -8.7      3.030     11.022
REMARK  Name = 
REMARK  7 active torsions:
REMARK  status: ('A' for Active; 'I' for Inactive)
REMARK    1  A    between atoms: C_1  and  C_2
REMARK    2  A    between atoms: C_2  and  C_3
REMARK    3  A    between atoms: C_2  and  O_4
REMARK    4  A    between atoms: O_4  and  C_5
REMARK    5  A    between atoms: C_10  and  N_11
REMARK    6  A    between atoms: C_16  and  C_17
REMARK    7  A    between atoms: C_21  and  C_22
REMARK                            x       y       z     vdW  Elec       q    Type
REMARK                         _______ _______ _______ _____ _____    ______ ____
ROOT
ATOM      1  N   UNL     1       2.647   6.818  18.661  0.00  0.00    +0.000 N 
ATOM      2  N   UNL     1       2.715   7.346  17.423  0.00  0.00    +0.000 NA
ATOM      3  N   UNL     1       2.213   8.572  17.474  0.00  0.00    +0.000 NA
ATOM      4  C   UNL     1       1.830   8.817  18.762  0.00  0.00    +0.000 A 
ATOM      5  C   UNL     1       1.227   9.933  19.333  0.00  0.00    +0.000 A 
ATOM      6  C   UNL     1       0.942   9.849  20.693  0.00  0.00    +0.000 A 
ATOM      7  N   UNL     1       1.266   8.767  21.456  0.00  0.00    +0.000 NA
ATOM      8  C   UNL     1       1.850   7.684  20.900  0.00  0.00    +0.000 A 
ATOM      9  C   UNL     1       2.118   7.714  19.544  0.00  0.00    +0.000 A 
ENDROOT
BRANCH   1  15
ATOM     10  C   UNL     1       6.496   4.274  16.646  0.00  0.00    +0.000 C 
ATOM     11  O   UNL     1       7.628   4.403  17.100  0.00  0.00    +0.000 OA
ATOM     12  N   UNL     1       5.360   4.736  17.293  0.00  0.00    +0.000 N 
ATOM     13  C   UNL     1       5.543   5.639  18.423  0.00  0.00    +0.000 C 
ATOM     14  C   UNL     1       4.494   5.401  19.500  0.00  0.00    +0.000 C 
ATOM     15  C   UNL     1       3.077   5.453  18.928  0.00  0.00    +0.000 C 
ATOM     16  C   UNL     1       2.937   4.502  17.729  0.00  0.00    +0.000 C 
ATOM     17  C   UNL     1       4.035   4.686  16.682  0.00  0.00    +0.000 C 
BRANCH  10  18
ATOM     18  O   UNL     1       6.222   3.629  15.476  0.00  0.00    +0.000 OA
BRANCH  18  20
ATOM     19  C   UNL     1       7.441   5.125  14.036  0.00  0.00    +0.000 C 
ATOM     20  C   UNL     1       6.087   4.486  14.328  0.00  0.00    +0.000 C 
ATOM     21  C   UNL     1       5.627   3.645  13.143  0.00  0.00    +0.000 C 
ENDBRANCH  18  20
ENDBRANCH  10  18
ENDBRANCH   1  15
BRANCH   6  22
ATOM     22  C   UNL     1       0.206  10.886  21.427  0.00  0.00    +0.000 A 
ATOM     23  C   UNL     1      -0.804  10.539  22.344  0.00  0.00    +0.000 A 
ATOM     24  C   UNL     1      -1.602  11.514  22.944  0.00  0.00    +0.000 A 
ATOM     25  F   UNL     1      -2.576  11.110  23.772  0.00  0.00    +0.000 F 
ATOM     26  C   UNL     1      -1.408  12.861  22.653  0.00  0.00    +0.000 A 
ATOM     27  C   UNL     1      -0.364  13.226  21.796  0.00  0.00    +0.000 A 
ATOM     28  C   UNL     1       0.414  12.249  21.185  0.00  0.00    +0.000 A 
ATOM     29  F   UNL     1       1.351  12.658  20.318  0.00  0.00    +0.000 F 
BRANCH  26  30
ATOM     30  C   UNL     1      -2.234  13.916  23.288  0.00  0.00    +0.000 C 
ATOM     31  O   UNL     1      -1.853  14.470  24.311  0.00  0.00    +0.000 OA
ATOM     32  N   UNL     1      -3.365  14.290  22.597  0.00  0.00    +0.000 N 
ATOM     33  C   UNL     1      -4.277  15.377  22.907  0.00  0.00    +0.000 C 
ATOM     34  C   UNL     1      -5.419  14.455  22.483  0.00  0.00    +0.000 C 
ATOM     35  C   UNL     1      -4.383  13.459  21.964  0.00  0.00    +0.000 C 
ENDBRANCH  26  30
ENDBRANCH   6  22
TORSDOF 5
ENDMDL
MODEL 7
REMARK VINA RESULT:      -8.7      2.280      3.058
REMARK  Name = 
REMARK  7 active torsions:
REMARK  status: ('A' for Active; 'I' for Inactive)
REMARK    1  A    between atoms: C_1  and  C_2
REMARK    2  A    between atoms: C_2  and  C_3
REMARK    3  A    between atoms: C_2  and  O_4
REMARK    4  A    between atoms: O_4  and  C_5
REMARK    5  A    between atoms: C_10  and  N_11
REMARK    6  A    between atoms: C_16  and  C_17
REMARK    7  A    between atoms: C_21  and  C_22
REMARK                            x       y       z     vdW  Elec       q    Type
REMARK                         _______ _______ _______ _____ _____    ______ ____
ROOT
ATOM      1  N   UNL     1      -1.009  12.427  20.756  0.00  0.00    +0.000 N 
ATOM      2  N   UNL     1      -1.704  12.707  19.637  0.00  0.00    +0.000 NA
ATOM      3  N   UNL     1      -1.355  11.827  18.708  0.00  0.00    +0.000 NA
ATOM      4  C   UNL     1      -0.434  10.980  19.256  0.00  0.00    +0.000 A 
ATOM      5  C   UNL     1       0.260   9.910  18.699  0.00  0.00    +0.000 A 
ATOM      6  C   UNL     1       1.161   9.259  19.537  0.00  0.00    +0.000 A 
ATOM      7  N   UNL     1       1.340   9.599  20.845  0.00  0.00    +0.000 NA
ATOM      8  C   UNL     1       0.667  10.638  21.383  0.00  0.00    +0.000 A 
ATOM      9  C   UNL     1      -0.212  11.333  20.573  0.00  0.00    +0.000 A 
ENDROOT
BRANCH   1  15
ATOM     10  C   UNL     1      -5.163  13.695  23.301  0.00  0.00    +0.000 C 
ATOM     11  O   UNL     1      -5.631  12.934  24.139  0.00  0.00    +0.000 OA
ATOM     12  N   UNL     1      -3.901  13.535  22.747  0.00  0.00    +0.000 N 
ATOM     13  C   UNL     1      -3.217  12.269  22.977  0.00  0.00    +0.000 C 
ATOM     14  C   UNL     1      -1.715  12.469  23.127  0.00  0.00    +0.000 C 
ATOM     15  C   UNL     1      -1.130  13.250  21.950  0.00  0.00    +0.000 C 
ATOM     16  C   UNL     1      -1.894  14.565  21.735  0.00  0.00    +0.000 C 
ATOM     17  C   UNL     1      -3.409  14.377  21.661  0.00  0.00    +0.000 C 
BRANCH  10  18
ATOM     18  O   UNL     1      -5.811  14.806  22.846  0.00  0.00    +0.000 OA
BRANCH  18  20
ATOM     19  C   UNL     1      -5.760  16.807  24.183  0.00  0.00    +0.000 C 
ATOM     20  C   UNL     1      -6.538  15.538  23.849  0.00  0.00    +0.000 C 
ATOM     21  C   UNL     1      -7.915  15.887  23.297  0.00  0.00    +0.000 C 
ENDBRANCH  18  20
ENDBRANCH  10  18
ENDBRANCH   1  15
BRANCH   6  22
ATOM     22  C   UNL     1       2.054   8.188  19.080  0.00  0.00    +0.000 A 
ATOM     23  C   UNL     1       2.790   8.323  17.888  0.00  0.00    +0.000 A 
ATOM     24  C   UNL     1       3.535   7.261  17.372  0.00  0.00    +0.000 A 
ATOM     25  F   UNL     1       4.174   7.445  16.209  0.00  0.00    +0.000 F 
ATOM     26  C   UNL     1       3.573   6.039  18.038  0.00  0.00    +0.000 A 
ATOM     27  C   UNL     1       2.902   5.911  19.259  0.00  0.00    +0.000 A 
ATOM     28  C   UNL     1       2.145   6.965  19.756  0.00  0.00    +0.000 A 
ATOM     29  F   UNL     1       1.466   6.756  20.893  0.00  0.00    +0.000 F 
BRANCH  26  30
ATOM     30  C   UNL     1       4.368   4.901  17.518  0.00  0.00    +0.000 C 
ATOM     31  O   UNL     1       3.814   3.871  17.155  0.00  0.00    +0.000 OA
ATOM     32  N   UNL     1       5.719   5.128  17.372  0.00  0.00    +0.000 N 
ATOM     33  C   UNL     1       6.708   4.254  16.766  0.00  0.00    +0.000 C 
ATOM     34  C   UNL     1       7.671   4.684  17.871  0.00  0.00    +0.000 C 
ATOM     35  C   UNL     1       6.660   5.747  18.299  0.00  0.00    +0.000 C 
ENDBRANCH  26  30
ENDBRANCH   6  22
TORSDOF 5
ENDMDL
MODEL 8
REMARK VINA RESULT:      -8.6      2.986     11.019
REMARK  Name = 
REMARK  7 active torsions:
REMARK  status: ('A' for Active; 'I' for Inactive)
REMARK    1  A    between atoms: C_1  and  C_2
REMARK    2  A    between atoms: C_2  and  C_3
REMARK    3  A    between atoms: C_2  and  O_4
REMARK    4  A    between atoms: O_4  and  C_5
REMARK    5  A    between atoms: C_10  and  N_11
REMARK    6  A    between atoms: C_16  and  C_17
REMARK    7  A    between atoms: C_21  and  C_22
REMARK                            x       y       z     vdW  Elec       q    Type
REMARK                         _______ _______ _______ _____ _____    ______ ____
ROOT
ATOM      1  N   UNL     1       2.900   6.901  18.494  0.00  0.00    +0.000 N 
ATOM      2  N   UNL     1       3.131   7.454  17.288  0.00  0.00    +0.000 NA
ATOM      3  N   UNL     1       2.581   8.660  17.280  0.00  0.00    +0.000 NA
ATOM      4  C   UNL     1       2.004   8.868  18.500  0.00  0.00    +0.000 A 
ATOM      5  C   UNL     1       1.281   9.952  18.990  0.00  0.00    +0.000 A 
ATOM      6  C   UNL     1       0.802   9.832  20.291  0.00  0.00    +0.000 A 
ATOM      7  N   UNL     1       1.050   8.748  21.080  0.00  0.00    +0.000 NA
ATOM      8  C   UNL     1       1.750   7.697  20.602  0.00  0.00    +0.000 A 
ATOM      9  C   UNL     1       2.214   7.761  19.301  0.00  0.00    +0.000 A 
ENDROOT
BRANCH   1  15
ATOM     10  C   UNL     1       6.733   4.297  16.527  0.00  0.00    +0.000 C 
ATOM     11  O   UNL     1       7.869   4.443  16.963  0.00  0.00    +0.000 OA
ATOM     12  N   UNL     1       5.603   4.779  17.170  0.00  0.00    +0.000 N 
ATOM     13  C   UNL     1       5.797   5.720  18.265  0.00  0.00    +0.000 C 
ATOM     14  C   UNL     1       4.760   5.518  19.361  0.00  0.00    +0.000 C 
ATOM     15  C   UNL     1       3.336   5.547  18.804  0.00  0.00    +0.000 C 
ATOM     16  C   UNL     1       3.186   4.554  17.641  0.00  0.00    +0.000 C 
ATOM     17  C   UNL     1       4.272   4.704  16.576  0.00  0.00    +0.000 C 
BRANCH  10  18
ATOM     18  O   UNL     1       6.448   3.611  15.382  0.00  0.00    +0.000 OA
BRANCH  18  20
ATOM     19  C   UNL     1       7.549   5.022  13.773  0.00  0.00    +0.000 C 
ATOM     20  C   UNL     1       6.217   4.432  14.224  0.00  0.00    +0.000 C 
ATOM     21  C   UNL     1       5.618   3.565  13.123  0.00  0.00    +0.000 C 
ENDBRANCH  18  20
ENDBRANCH  10  18
ENDBRANCH   1  15
BRANCH   6  22
ATOM     22  C   UNL     1      -0.072  10.829  20.922  0.00  0.00    +0.000 A 
ATOM     23  C   UNL     1      -0.733  10.544  22.131  0.00  0.00    +0.000 A 
ATOM     24  C   UNL     1      -1.671  11.427  22.669  0.00  0.00    +0.000 A 
ATOM     25  F   UNL     1      -2.297  11.071  23.799  0.00  0.00    +0.000 F 
ATOM     26  C   UNL     1      -1.967  12.622  22.019  0.00  0.00    +0.000 A 
ATOM     27  C   UNL     1      -1.269  12.950  20.852  0.00  0.00    +0.000 A 
ATOM     28  C   UNL     1      -0.352  12.057  20.310  0.00  0.00    +0.000 A 
ATOM     29  F   UNL     1       0.230  12.396  19.152  0.00  0.00    +0.000 F 
BRANCH  26  30
ATOM     30  C   UNL     1      -2.949  13.581  22.577  0.00  0.00    +0.000 C 
ATOM     31  O   UNL     1      -4.017  13.777  22.011  0.00  0.00    +0.000 OA
ATOM     32  N   UNL     1      -2.627  14.130  23.799  0.00  0.00    +0.000 N 
ATOM     33  C   UNL     1      -3.451  14.983  24.637  0.00  0.00    +0.000 C 
ATOM     34  C   UNL     1      -2.187  15.777  24.961  0.00  0.00    +0.000 C 
ATOM     35  C   UNL     1      -1.364  14.700  24.255  0.00  0.00    +0.000 C 
ENDBRANCH  26  30
ENDBRANCH   6  22
TORSDOF 5
ENDMDL
MODEL 9
REMARK VINA RESULT:      -8.5      2.067      2.499
REMARK  Name = 
REMARK  7 active torsions:
REMARK  status: ('A' for Active; 'I' for Inactive)
REMARK    1  A    between atoms: C_1  and  C_2
REMARK    2  A    between atoms: C_2  and  C_3
REMARK    3  A    between atoms: C_2  and  O_4
REMARK    4  A    between atoms: O_4  and  C_5
REMARK    5  A    between atoms: C_10  and  N_11
REMARK    6  A    between atoms: C_16  and  C_17
REMARK    7  A    between atoms: C_21  and  C_22
REMARK                            x       y       z     vdW  Elec       q    Type
REMARK                         _______ _______ _______ _____ _____    ______ ____
ROOT
ATOM      1  N   UNL     1      -0.506  11.646  21.899  0.00  0.00    +0.000 N 
ATOM      2  N   UNL     1      -0.620  11.174  23.155  0.00  0.00    +0.000 NA
ATOM      3  N   UNL     1      -0.038   9.984  23.199  0.00  0.00    +0.000 NA
ATOM      4  C   UNL     1       0.454   9.710  21.954  0.00  0.00    +0.000 A 
ATOM      5  C   UNL     1       1.121   8.590  21.468  0.00  0.00    +0.000 A 
ATOM      6  C   UNL     1       1.471   8.620  20.121  0.00  0.00    +0.000 A 
ATOM      7  N   UNL     1       1.229   9.691  19.313  0.00  0.00    +0.000 NA
ATOM      8  C   UNL     1       0.580  10.776  19.786  0.00  0.00    +0.000 A 
ATOM      9  C   UNL     1       0.184  10.771  21.111  0.00  0.00    +0.000 A 
ENDROOT
BRANCH   1  15
ATOM     10  C   UNL     1      -3.825  14.481  24.408  0.00  0.00    +0.000 C 
ATOM     11  O   UNL     1      -3.443  15.260  25.274  0.00  0.00    +0.000 OA
ATOM     12  N   UNL     1      -2.967  13.861  23.511  0.00  0.00    +0.000 N 
ATOM     13  C   UNL     1      -1.537  13.934  23.780  0.00  0.00    +0.000 C 
ATOM     14  C   UNL     1      -0.734  14.038  22.491  0.00  0.00    +0.000 C 
ATOM     15  C   UNL     1      -1.093  12.921  21.511  0.00  0.00    +0.000 C 
ATOM     16  C   UNL     1      -2.610  12.870  21.274  0.00  0.00    +0.000 C 
ATOM     17  C   UNL     1      -3.422  12.843  22.568  0.00  0.00    +0.000 C 
BRANCH  10  18
ATOM     18  O   UNL     1      -5.136  14.167  24.201  0.00  0.00    +0.000 OA
BRANCH  18  20
ATOM     19  C   UNL     1      -5.288  16.082  22.750  0.00  0.00    +0.000 C 
ATOM     20  C   UNL     1      -5.978  15.279  23.849  0.00  0.00    +0.000 C 
ATOM     21  C   UNL     1      -7.316  14.741  23.355  0.00  0.00    +0.000 C 
ENDBRANCH  18  20
ENDBRANCH  10  18
ENDBRANCH   1  15
BRANCH   6  22
ATOM     22  C   UNL     1       2.075   7.480  19.421  0.00  0.00    +0.000 A 
ATOM     23  C   UNL     1       2.225   6.237  20.064  0.00  0.00    +0.000 A 
ATOM     24  C   UNL     1       2.919   5.188  19.460  0.00  0.00    +0.000 A 
ATOM     25  F   UNL     1       3.064   4.048  20.149  0.00  0.00    +0.000 F 
ATOM     26  C   UNL     1       3.475   5.349  18.194  0.00  0.00    +0.000 A 
ATOM     27  C   UNL     1       3.276   6.555  17.514  0.00  0.00    +0.000 A 
ATOM     28  C   UNL     1       2.602   7.603  18.130  0.00  0.00    +0.000 A 
ATOM     29  F   UNL     1       2.508   8.758  17.456  0.00  0.00    +0.000 F 
BRANCH  26  30
ATOM     30  C   UNL     1       4.205   4.245  17.526  0.00  0.00    +0.000 C 
ATOM     31  O   UNL     1       3.697   3.135  17.427  0.00  0.00    +0.000 OA
ATOM     32  N   UNL     1       5.407   4.584  16.944  0.00  0.00    +0.000 N 
ATOM     33  C   UNL     1       6.261   3.752  16.116  0.00  0.00    +0.000 C 
ATOM     34  C   UNL     1       7.457   4.383  16.827  0.00  0.00    +0.000 C 
ATOM     35  C   UNL     1       6.504   5.382  17.481  0.00  0.00    +0.000 C 
ENDBRANCH  26  30
ENDBRANCH   6  22
TORSDOF 5
ENDMDL
