MODEL 1
REMARK VINA RESULT:      -8.1      0.000      0.000
REMARK  Name = 
REMARK  10 active torsions:
REMARK  status: ('A' for Active; 'I' for Inactive)
REMARK    1  A    between atoms: C_1  and  C_2
REMARK    2  A    between atoms: C_2  and  C_3
REMARK    3  A    between atoms: C_2  and  O_4
REMARK    4  A    between atoms: C_2  and  C_5
REMARK    5  A    between atoms: C_5  and  N_6
REMARK    6  A    between atoms: C_8  and  C_9
REMARK    7  A    between atoms: C_11  and  C_12
REMARK    8  A    between atoms: C_12  and  O_13
REMARK    9  A    between atoms: C_17  and  O_18
REMARK   10  A    between atoms: C_17  and  C_19
REMARK                            x       y       z     vdW  Elec       q    Type
REMARK                         _______ _______ _______ _____ _____    ______ ____
ROOT
ATOM      1  C   UNL     1       1.812   8.277  19.084  0.00  0.00    +0.000 A 
ATOM      2  C   UNL     1       1.808   8.327  20.492  0.00  0.00    +0.000 A 
ATOM      3  C   UNL     1       0.980   9.209  21.222  0.00  0.00    +0.000 A 
ATOM      4  C   UNL     1       0.149  10.063  20.489  0.00  0.00    +0.000 A 
ATOM      5  C   UNL     1       0.174  10.028  19.071  0.00  0.00    +0.000 A 
ATOM      6  C   UNL     1       0.994   9.151  18.368  0.00  0.00    +0.000 A 
ATOM      7  C   UNL     1      -0.791  11.055  18.479  0.00  0.00    +0.000 C 
ATOM      8  C   UNL     1      -1.405  11.648  19.742  0.00  0.00    +0.000 A 
ATOM      9  C   UNL     1      -2.382  12.634  19.833  0.00  0.00    +0.000 A 
ATOM     10  C   UNL     1      -2.808  13.037  21.097  0.00  0.00    +0.000 A 
ATOM     11  C   UNL     1      -2.238  12.467  22.249  0.00  0.00    +0.000 A 
ATOM     12  C   UNL     1      -1.247  11.486  22.148  0.00  0.00    +0.000 A 
ATOM     13  C   UNL     1      -0.830  11.066  20.896  0.00  0.00    +0.000 A 
ENDROOT
BRANCH   1  16
ATOM     14  N   UNL     1       4.153   6.415  17.078  0.00  0.00    +0.000 N 
ATOM     15  C   UNL     1       3.770   7.585  17.673  0.00  0.00    +0.000 A 
ATOM     16  C   UNL     1       2.637   7.296  18.405  0.00  0.00    +0.000 A 
ATOM     17  C   UNL     1       2.478   5.901  18.248  0.00  0.00    +0.000 A 
ATOM     18  N   UNL     1       3.407   5.361  17.455  0.00  0.00    +0.000 NA
BRANCH  14  19
ATOM     19  C   UNL     1       5.202   6.248  16.094  0.00  0.00    +0.000 C 
BRANCH  19  21
ATOM     20  C   UNL     1       6.608   4.761  17.620  0.00  0.00    +0.000 C 
ATOM     21  C   UNL     1       6.603   5.973  16.682  0.00  0.00    +0.000 C 
ATOM     22  C   UNL     1       7.194   7.195  17.392  0.00  0.00    +0.000 C 
BRANCH  21  23
ATOM     23  O   UNL     1       7.474   5.648  15.582  0.00  0.00    +0.000 OA
ATOM     24  H   UNL     1       6.932   5.249  14.877  0.00  0.00    +0.000 HD
ENDBRANCH  21  23
ENDBRANCH  19  21
ENDBRANCH  14  19
ENDBRANCH   1  16
BRANCH   7  25
ATOM     25  C   UNL     1      -1.829  10.454  17.478  0.00  0.00    +0.000 C 
ATOM     26  F   UNL     1      -2.519  11.397  16.794  0.00  0.00    +0.000 F 
ATOM     27  F   UNL     1      -1.292   9.617  16.563  0.00  0.00    +0.000 F 
ATOM     28  F   UNL     1      -2.760   9.735  18.167  0.00  0.00    +0.000 F 
ENDBRANCH   7  25
BRANCH   7  29
ATOM     29  O   UNL     1       0.028  12.091  17.898  0.00  0.00    +0.000 OA
ATOM     30  H   UNL     1       0.811  12.191  18.468  0.00  0.00    +0.000 HD
ENDBRANCH   7  29
BRANCH   3  31
ATOM     31  C   UNL     1       1.008   9.218  22.729  0.00  0.00    +0.000 C 
BRANCH  31  32
ATOM     32  O   UNL     1       2.318   9.355  23.270  0.00  0.00    +0.000 OA
ATOM     33  H   UNL     1       2.227   9.849  24.102  0.00  0.00    +0.000 HD
ENDBRANCH  31  32
ENDBRANCH   3  31
TORSDOF 8
ENDMDL
MODEL 2
REMARK VINA RESULT:      -8.1      1.476      1.989
REMARK  Name = 
REMARK  10 active torsions:
REMARK  status: ('A' for Active; 'I' for Inactive)
REMARK    1  A    between atoms: C_1  and  C_2
REMARK    2  A    between atoms: C_2  and  C_3
REMARK    3  A    between atoms: C_2  and  O_4
REMARK    4  A    between atoms: C_2  and  C_5
REMARK    5  A    between atoms: C_5  and  N_6
REMARK    6  A    between atoms: C_8  and  C_9
REMARK    7  A    between atoms: C_11  and  C_12
REMARK    8  A    between atoms: C_12  and  O_13
REMARK    9  A    between atoms: C_17  and  O_18
REMARK   10  A    between atoms: C_17  and  C_19
REMARK                            x       y       z     vdW  Elec       q    Type
REMARK                         _______ _______ _______ _____ _____    ______ ____
ROOT
ATOM      1  C   UNL     1       1.746   8.200  19.032  0.00  0.00    +0.000 A 
ATOM      2  C   UNL     1       1.774   8.240  20.440  0.00  0.00    +0.000 A 
ATOM      3  C   UNL     1       0.997   9.149  21.194  0.00  0.00    +0.000 A 
ATOM      4  C   UNL     1       0.187  10.042  20.484  0.00  0.00    +0.000 A 
ATOM      5  C   UNL     1       0.181  10.016  19.065  0.00  0.00    +0.000 A 
ATOM      6  C   UNL     1       0.949   9.112  18.339  0.00  0.00    +0.000 A 
ATOM      7  C   UNL     1      -0.753  11.086  18.501  0.00  0.00    +0.000 C 
ATOM      8  C   UNL     1      -1.316  11.694  19.780  0.00  0.00    +0.000 A 
ATOM      9  C   UNL     1      -2.250  12.718  19.899  0.00  0.00    +0.000 A 
ATOM     10  C   UNL     1      -2.633  13.129  21.174  0.00  0.00    +0.000 A 
ATOM     11  C   UNL     1      -2.063  12.527  22.310  0.00  0.00    +0.000 A 
ATOM     12  C   UNL     1      -1.114  11.508  22.182  0.00  0.00    +0.000 A 
ATOM     13  C   UNL     1      -0.741  11.081  20.918  0.00  0.00    +0.000 A 
ENDROOT
BRANCH   1  16
ATOM     14  N   UNL     1       3.206   5.235  17.602  0.00  0.00    +0.000 N 
ATOM     15  C   UNL     1       2.144   5.872  18.182  0.00  0.00    +0.000 A 
ATOM     16  C   UNL     1       2.516   7.192  18.329  0.00  0.00    +0.000 A 
ATOM     17  C   UNL     1       3.791   7.255  17.723  0.00  0.00    +0.000 A 
ATOM     18  N   UNL     1       4.206   6.071  17.266  0.00  0.00    +0.000 NA
BRANCH  14  19
ATOM     19  C   UNL     1       3.348   3.810  17.385  0.00  0.00    +0.000 C 
BRANCH  19  21
ATOM     20  C   UNL     1       3.770   1.510  18.407  0.00  0.00    +0.000 C 
ATOM     21  C   UNL     1       3.913   3.024  18.588  0.00  0.00    +0.000 C 
ATOM     22  C   UNL     1       3.295   3.460  19.919  0.00  0.00    +0.000 C 
BRANCH  21  23
ATOM     23  O   UNL     1       5.325   3.301  18.655  0.00  0.00    +0.000 OA
ATOM     24  H   UNL     1       5.628   3.541  17.760  0.00  0.00    +0.000 HD
ENDBRANCH  21  23
ENDBRANCH  19  21
ENDBRANCH  14  19
ENDBRANCH   1  16
BRANCH   7  25
ATOM     25  C   UNL     1      -1.836  10.535  17.519  0.00  0.00    +0.000 C 
ATOM     26  F   UNL     1      -2.429  11.502  16.778  0.00  0.00    +0.000 F 
ATOM     27  F   UNL     1      -1.374   9.605  16.653  0.00  0.00    +0.000 F 
ATOM     28  F   UNL     1      -2.836   9.943  18.230  0.00  0.00    +0.000 F 
ENDBRANCH   7  25
BRANCH   7  29
ATOM     29  O   UNL     1       0.095  12.092  17.909  0.00  0.00    +0.000 OA
ATOM     30  H   UNL     1       0.813  11.625  17.447  0.00  0.00    +0.000 HD
ENDBRANCH   7  29
BRANCH   3  31
ATOM     31  C   UNL     1       1.058   9.146  22.699  0.00  0.00    +0.000 C 
BRANCH  31  32
ATOM     32  O   UNL     1       2.368   9.363  23.214  0.00  0.00    +0.000 OA
ATOM     33  H   UNL     1       2.756  10.087  22.694  0.00  0.00    +0.000 HD
ENDBRANCH  31  32
ENDBRANCH   3  31
TORSDOF 8
ENDMDL
MODEL 3
REMARK VINA RESULT:      -8.1      0.613      1.089
REMARK  Name = 
REMARK  10 active torsions:
REMARK  status: ('A' for Active; 'I' for Inactive)
REMARK    1  A    between atoms: C_1  and  C_2
REMARK    2  A    between atoms: C_2  and  C_3
REMARK    3  A    between atoms: C_2  and  O_4
REMARK    4  A    between atoms: C_2  and  C_5
REMARK    5  A    between atoms: C_5  and  N_6
REMARK    6  A    between atoms: C_8  and  C_9
REMARK    7  A    between atoms: C_11  and  C_12
REMARK    8  A    between atoms: C_12  and  O_13
REMARK    9  A    between atoms: C_17  and  O_18
REMARK   10  A    between atoms: C_17  and  C_19
REMARK                            x       y       z     vdW  Elec       q    Type
REMARK                         _______ _______ _______ _____ _____    ______ ____
ROOT
ATOM      1  C   UNL     1       1.746   8.260  19.125  0.00  0.00    +0.000 A 
ATOM      2  C   UNL     1       1.760   8.337  20.532  0.00  0.00    +0.000 A 
ATOM      3  C   UNL     1       0.940   9.232  21.256  0.00  0.00    +0.000 A 
ATOM      4  C   UNL     1       0.100  10.073  20.517  0.00  0.00    +0.000 A 
ATOM      5  C   UNL     1       0.106  10.010  19.099  0.00  0.00    +0.000 A 
ATOM      6  C   UNL     1       0.918   9.121  18.403  0.00  0.00    +0.000 A 
ATOM      7  C   UNL     1      -0.866  11.026  18.501  0.00  0.00    +0.000 C 
ATOM      8  C   UNL     1      -1.465  11.642  19.760  0.00  0.00    +0.000 A 
ATOM      9  C   UNL     1      -2.441  12.629  19.844  0.00  0.00    +0.000 A 
ATOM     10  C   UNL     1      -2.851  13.056  21.106  0.00  0.00    +0.000 A 
ATOM     11  C   UNL     1      -2.267  12.508  22.261  0.00  0.00    +0.000 A 
ATOM     12  C   UNL     1      -1.276  11.526  22.167  0.00  0.00    +0.000 A 
ATOM     13  C   UNL     1      -0.875  11.082  20.917  0.00  0.00    +0.000 A 
ENDROOT
BRANCH   1  16
ATOM     14  N   UNL     1       4.057   6.362  17.120  0.00  0.00    +0.000 N 
ATOM     15  C   UNL     1       3.679   7.544  17.693  0.00  0.00    +0.000 A 
ATOM     16  C   UNL     1       2.563   7.268  18.454  0.00  0.00    +0.000 A 
ATOM     17  C   UNL     1       2.410   5.868  18.336  0.00  0.00    +0.000 A 
ATOM     18  N   UNL     1       3.326   5.313  17.539  0.00  0.00    +0.000 NA
BRANCH  14  19
ATOM     19  C   UNL     1       5.087   6.175  16.119  0.00  0.00    +0.000 C 
BRANCH  19  21
ATOM     20  C   UNL     1       7.326   6.628  17.258  0.00  0.00    +0.000 C 
ATOM     21  C   UNL     1       6.403   5.566  16.651  0.00  0.00    +0.000 C 
ATOM     22  C   UNL     1       7.152   4.760  15.586  0.00  0.00    +0.000 C 
BRANCH  21  23
ATOM     23  O   UNL     1       6.057   4.661  17.716  0.00  0.00    +0.000 OA
ATOM     24  H   UNL     1       6.054   3.756  17.353  0.00  0.00    +0.000 HD
ENDBRANCH  21  23
ENDBRANCH  19  21
ENDBRANCH  14  19
ENDBRANCH   1  16
BRANCH   7  25
ATOM     25  C   UNL     1      -1.916  10.405  17.525  0.00  0.00    +0.000 C 
ATOM     26  F   UNL     1      -2.827   9.621  18.148  0.00  0.00    +0.000 F 
ATOM     27  F   UNL     1      -2.608  11.318  16.807  0.00  0.00    +0.000 F 
ATOM     28  F   UNL     1      -1.282   9.600  16.626  0.00  0.00    +0.000 F 
ENDBRANCH   7  25
BRANCH   7  29
ATOM     29  O   UNL     1      -0.055  12.051  17.890  0.00  0.00    +0.000 OA
ATOM     30  H   UNL     1       0.391  12.530  18.610  0.00  0.00    +0.000 HD
ENDBRANCH   7  29
BRANCH   3  31
ATOM     31  C   UNL     1       0.987   9.270  22.762  0.00  0.00    +0.000 C 
BRANCH  31  32
ATOM     32  O   UNL     1       2.310   9.344  23.285  0.00  0.00    +0.000 OA
ATOM     33  H   UNL     1       2.639  10.236  23.085  0.00  0.00    +0.000 HD
ENDBRANCH  31  32
ENDBRANCH   3  31
TORSDOF 8
ENDMDL
MODEL 4
REMARK VINA RESULT:      -7.8      1.800      2.454
REMARK  Name = 
REMARK  10 active torsions:
REMARK  status: ('A' for Active; 'I' for Inactive)
REMARK    1  A    between atoms: C_1  and  C_2
REMARK    2  A    between atoms: C_2  and  C_3
REMARK    3  A    between atoms: C_2  and  O_4
REMARK    4  A    between atoms: C_2  and  C_5
REMARK    5  A    between atoms: C_5  and  N_6
REMARK    6  A    between atoms: C_8  and  C_9
REMARK    7  A    between atoms: C_11  and  C_12
REMARK    8  A    between atoms: C_12  and  O_13
REMARK    9  A    between atoms: C_17  and  O_18
REMARK   10  A    between atoms: C_17  and  C_19
REMARK                            x       y       z     vdW  Elec       q    Type
REMARK                         _______ _______ _______ _____ _____    ______ ____
ROOT
ATOM      1  C   UNL     1       1.544   8.297  19.497  0.00  0.00    +0.000 A 
ATOM      2  C   UNL     1       1.480   8.425  20.899  0.00  0.00    +0.000 A 
ATOM      3  C   UNL     1       0.693   9.407  21.542  0.00  0.00    +0.000 A 
ATOM      4  C   UNL     1      -0.032  10.282  20.725  0.00  0.00    +0.000 A 
ATOM      5  C   UNL     1       0.054  10.166  19.314  0.00  0.00    +0.000 A 
ATOM      6  C   UNL     1       0.832   9.191  18.698  0.00  0.00    +0.000 A 
ATOM      7  C   UNL     1      -0.797  11.232  18.623  0.00  0.00    +0.000 C 
ATOM      8  C   UNL     1      -1.419  11.939  19.823  0.00  0.00    +0.000 A 
ATOM      9  C   UNL     1      -2.317  13.001  19.814  0.00  0.00    +0.000 A 
ATOM     10  C   UNL     1      -2.766  13.505  21.034  0.00  0.00    +0.000 A 
ATOM     11  C   UNL     1      -2.297  12.956  22.240  0.00  0.00    +0.000 A 
ATOM     12  C   UNL     1      -1.383  11.897  22.239  0.00  0.00    +0.000 A 
ATOM     13  C   UNL     1      -0.945  11.378  21.031  0.00  0.00    +0.000 A 
ENDROOT
BRANCH   1  16
ATOM     14  N   UNL     1       3.291   5.267  18.642  0.00  0.00    +0.000 N 
ATOM     15  C   UNL     1       2.325   5.915  19.359  0.00  0.00    +0.000 A 
ATOM     16  C   UNL     1       2.318   7.219  18.911  0.00  0.00    +0.000 A 
ATOM     17  C   UNL     1       3.263   7.222  17.860  0.00  0.00    +0.000 A 
ATOM     18  N   UNL     1       3.844   6.033  17.684  0.00  0.00    +0.000 NA
BRANCH  14  19
ATOM     19  C   UNL     1       3.771   3.917  18.858  0.00  0.00    +0.000 C 
BRANCH  19  21
ATOM     20  C   UNL     1       1.602   2.603  19.151  0.00  0.00    +0.000 C 
ATOM     21  C   UNL     1       2.856   2.807  18.294  0.00  0.00    +0.000 C 
ATOM     22  C   UNL     1       3.591   1.478  18.104  0.00  0.00    +0.000 C 
BRANCH  21  23
ATOM     23  O   UNL     1       2.404   3.242  16.997  0.00  0.00    +0.000 OA
ATOM     24  H   UNL     1       1.851   4.035  17.121  0.00  0.00    +0.000 HD
ENDBRANCH  21  23
ENDBRANCH  19  21
ENDBRANCH  14  19
ENDBRANCH   1  16
BRANCH   7  25
ATOM     25  C   UNL     1      -1.834  10.659  17.605  0.00  0.00    +0.000 C 
ATOM     26  F   UNL     1      -2.467  11.618  16.889  0.00  0.00    +0.000 F 
ATOM     27  F   UNL     1      -1.309   9.786  16.716  0.00  0.00    +0.000 F 
ATOM     28  F   UNL     1      -2.812   9.990  18.279  0.00  0.00    +0.000 F 
ENDBRANCH   7  25
BRANCH   7  29
ATOM     29  O   UNL     1       0.127  12.167  18.031  0.00  0.00    +0.000 OA
ATOM     30  H   UNL     1       1.019  11.787  18.124  0.00  0.00    +0.000 HD
ENDBRANCH   7  29
BRANCH   3  31
ATOM     31  C   UNL     1       0.654   9.496  23.046  0.00  0.00    +0.000 C 
BRANCH  31  32
ATOM     32  O   UNL     1      -0.580   9.058  23.606  0.00  0.00    +0.000 OA
ATOM     33  H   UNL     1      -0.755   9.627  24.375  0.00  0.00    +0.000 HD
ENDBRANCH  31  32
ENDBRANCH   3  31
TORSDOF 8
ENDMDL
MODEL 5
REMARK VINA RESULT:      -7.8      1.221      1.469
REMARK  Name = 
REMARK  10 active torsions:
REMARK  status: ('A' for Active; 'I' for Inactive)
REMARK    1  A    between atoms: C_1  and  C_2
REMARK    2  A    between atoms: C_2  and  C_3
REMARK    3  A    between atoms: C_2  and  O_4
REMARK    4  A    between atoms: C_2  and  C_5
REMARK    5  A    between atoms: C_5  and  N_6
REMARK    6  A    between atoms: C_8  and  C_9
REMARK    7  A    between atoms: C_11  and  C_12
REMARK    8  A    between atoms: C_12  and  O_13
REMARK    9  A    between atoms: C_17  and  O_18
REMARK   10  A    between atoms: C_17  and  C_19
REMARK                            x       y       z     vdW  Elec       q    Type
REMARK                         _______ _______ _______ _____ _____    ______ ____
ROOT
ATOM      1  C   UNL     1       1.636   8.623  18.941  0.00  0.00    +0.000 A 
ATOM      2  C   UNL     1       1.677   8.640  20.350  0.00  0.00    +0.000 A 
ATOM      3  C   UNL     1       0.815   9.444  21.129  0.00  0.00    +0.000 A 
ATOM      4  C   UNL     1      -0.098  10.255  20.446  0.00  0.00    +0.000 A 
ATOM      5  C   UNL     1      -0.120  10.254  19.027  0.00  0.00    +0.000 A 
ATOM      6  C   UNL     1       0.735   9.454  18.276  0.00  0.00    +0.000 A 
ATOM      7  C   UNL     1      -1.173  11.225  18.494  0.00  0.00    +0.000 C 
ATOM      8  C   UNL     1      -1.783  11.744  19.791  0.00  0.00    +0.000 A 
ATOM      9  C   UNL     1      -2.822  12.656  19.939  0.00  0.00    +0.000 A 
ATOM     10  C   UNL     1      -3.231  12.999  21.226  0.00  0.00    +0.000 A 
ATOM     11  C   UNL     1      -2.584  12.444  22.344  0.00  0.00    +0.000 A 
ATOM     12  C   UNL     1      -1.530  11.538  22.186  0.00  0.00    +0.000 A 
ATOM     13  C   UNL     1      -1.129  11.177  20.910  0.00  0.00    +0.000 A 
ENDROOT
BRANCH   1  16
ATOM     14  N   UNL     1       3.590   5.899  17.626  0.00  0.00    +0.000 N 
ATOM     15  C   UNL     1       2.542   6.351  18.380  0.00  0.00    +0.000 A 
ATOM     16  C   UNL     1       2.503   7.718  18.211  0.00  0.00    +0.000 A 
ATOM     17  C   UNL     1       3.520   7.973  17.264  0.00  0.00    +0.000 A 
ATOM     18  N   UNL     1       4.171   6.867  16.894  0.00  0.00    +0.000 NA
BRANCH  14  19
ATOM     19  C   UNL     1       4.119   4.551  17.598  0.00  0.00    +0.000 C 
BRANCH  19  21
ATOM     20  C   UNL     1       5.737   5.451  19.354  0.00  0.00    +0.000 C 
ATOM     21  C   UNL     1       5.490   4.380  18.288  0.00  0.00    +0.000 C 
ATOM     22  C   UNL     1       6.651   4.346  17.290  0.00  0.00    +0.000 C 
BRANCH  21  23
ATOM     23  O   UNL     1       5.470   3.112  18.972  0.00  0.00    +0.000 OA
ATOM     24  H   UNL     1       4.823   2.538  18.523  0.00  0.00    +0.000 HD
ENDBRANCH  21  23
ENDBRANCH  19  21
ENDBRANCH  14  19
ENDBRANCH   1  16
BRANCH   7  25
ATOM     25  C   UNL     1      -2.201  10.575  17.513  0.00  0.00    +0.000 C 
ATOM     26  F   UNL     1      -3.170  11.432  17.110  0.00  0.00    +0.000 F 
ATOM     27  F   UNL     1      -1.645  10.056  16.396  0.00  0.00    +0.000 F 
ATOM     28  F   UNL     1      -2.844   9.551  18.141  0.00  0.00    +0.000 F 
ENDBRANCH   7  25
BRANCH   7  29
ATOM     29  O   UNL     1      -0.448  12.329  17.913  0.00  0.00    +0.000 OA
ATOM     30  H   UNL     1      -0.326  12.992  18.615  0.00  0.00    +0.000 HD
ENDBRANCH   7  29
BRANCH   3  31
ATOM     31  C   UNL     1       0.894   9.421  22.634  0.00  0.00    +0.000 C 
BRANCH  31  32
ATOM     32  O   UNL     1       2.226   9.318  23.129  0.00  0.00    +0.000 OA
ATOM     33  H   UNL     1       2.781   9.039  22.381  0.00  0.00    +0.000 HD
ENDBRANCH  31  32
ENDBRANCH   3  31
TORSDOF 8
ENDMDL
MODEL 6
REMARK VINA RESULT:      -7.7      1.703      2.228
REMARK  Name = 
REMARK  10 active torsions:
REMARK  status: ('A' for Active; 'I' for Inactive)
REMARK    1  A    between atoms: C_1  and  C_2
REMARK    2  A    between atoms: C_2  and  C_3
REMARK    3  A    between atoms: C_2  and  O_4
REMARK    4  A    between atoms: C_2  and  C_5
REMARK    5  A    between atoms: C_5  and  N_6
REMARK    6  A    between atoms: C_8  and  C_9
REMARK    7  A    between atoms: C_11  and  C_12
REMARK    8  A    between atoms: C_12  and  O_13
REMARK    9  A    between atoms: C_17  and  O_18
REMARK   10  A    between atoms: C_17  and  C_19
REMARK                            x       y       z     vdW  Elec       q    Type
REMARK                         _______ _______ _______ _____ _____    ______ ____
ROOT
ATOM      1  C   UNL     1       1.196   9.031  19.218  0.00  0.00    +0.000 A 
ATOM      2  C   UNL     1       1.128   9.195  20.616  0.00  0.00    +0.000 A 
ATOM      3  C   UNL     1       0.173  10.028  21.241  0.00  0.00    +0.000 A 
ATOM      4  C   UNL     1      -0.721  10.714  20.411  0.00  0.00    +0.000 A 
ATOM      5  C   UNL     1      -0.634  10.566  19.003  0.00  0.00    +0.000 A 
ATOM      6  C   UNL     1       0.312   9.739  18.404  0.00  0.00    +0.000 A 
ATOM      7  C   UNL     1      -1.687  11.418  18.295  0.00  0.00    +0.000 C 
ATOM      8  C   UNL     1      -2.417  12.034  19.482  0.00  0.00    +0.000 A 
ATOM      9  C   UNL     1      -3.507  12.899  19.457  0.00  0.00    +0.000 A 
ATOM     10  C   UNL     1      -4.028  13.351  20.668  0.00  0.00    +0.000 A 
ATOM     11  C   UNL     1      -3.444  12.949  21.882  0.00  0.00    +0.000 A 
ATOM     12  C   UNL     1      -2.341  12.089  21.898  0.00  0.00    +0.000 A 
ATOM     13  C   UNL     1      -1.826  11.621  20.699  0.00  0.00    +0.000 A 
ENDROOT
BRANCH   1  16
ATOM     14  N   UNL     1       3.532   6.400  18.449  0.00  0.00    +0.000 N 
ATOM     15  C   UNL     1       2.489   6.880  19.192  0.00  0.00    +0.000 A 
ATOM     16  C   UNL     1       2.158   8.104  18.652  0.00  0.00    +0.000 A 
ATOM     17  C   UNL     1       3.011   8.223  17.532  0.00  0.00    +0.000 A 
ATOM     18  N   UNL     1       3.836   7.182  17.397  0.00  0.00    +0.000 NA
BRANCH  14  19
ATOM     19  C   UNL     1       4.319   5.216  18.725  0.00  0.00    +0.000 C 
BRANCH  19  21
ATOM     20  C   UNL     1       4.774   4.094  16.477  0.00  0.00    +0.000 C 
ATOM     21  C   UNL     1       4.017   4.011  17.807  0.00  0.00    +0.000 C 
ATOM     22  C   UNL     1       2.518   3.824  17.553  0.00  0.00    +0.000 C 
BRANCH  21  23
ATOM     23  O   UNL     1       4.493   2.830  18.480  0.00  0.00    +0.000 OA
ATOM     24  H   UNL     1       4.834   2.215  17.805  0.00  0.00    +0.000 HD
ENDBRANCH  21  23
ENDBRANCH  19  21
ENDBRANCH  14  19
ENDBRANCH   1  16
BRANCH   7  25
ATOM     25  C   UNL     1      -2.605  10.616  17.318  0.00  0.00    +0.000 C 
ATOM     26  F   UNL     1      -3.210   9.555  17.902  0.00  0.00    +0.000 F 
ATOM     27  F   UNL     1      -3.579  11.357  16.744  0.00  0.00    +0.000 F 
ATOM     28  F   UNL     1      -1.853  10.106  16.302  0.00  0.00    +0.000 F 
ENDBRANCH   7  25
BRANCH   7  29
ATOM     29  O   UNL     1      -0.971  12.493  17.653  0.00  0.00    +0.000 OA
ATOM     30  H   UNL     1      -1.163  13.305  18.155  0.00  0.00    +0.000 HD
ENDBRANCH   7  29
BRANCH   3  31
ATOM     31  C   UNL     1       0.137  10.164  22.742  0.00  0.00    +0.000 C 
BRANCH  31  32
ATOM     32  O   UNL     1      -0.744   9.240  23.373  0.00  0.00    +0.000 OA
ATOM     33  H   UNL     1      -0.788   8.458  22.797  0.00  0.00    +0.000 HD
ENDBRANCH  31  32
ENDBRANCH   3  31
TORSDOF 8
ENDMDL
MODEL 7
REMARK VINA RESULT:      -7.5      1.797      2.229
REMARK  Name = 
REMARK  10 active torsions:
REMARK  status: ('A' for Active; 'I' for Inactive)
REMARK    1  A    between atoms: C_1  and  C_2
REMARK    2  A    between atoms: C_2  and  C_3
REMARK    3  A    between atoms: C_2  and  O_4
REMARK    4  A    between atoms: C_2  and  C_5
REMARK    5  A    between atoms: C_5  and  N_6
REMARK    6  A    between atoms: C_8  and  C_9
REMARK    7  A    between atoms: C_11  and  C_12
REMARK    8  A    between atoms: C_12  and  O_13
REMARK    9  A    between atoms: C_17  and  O_18
REMARK   10  A    between atoms: C_17  and  C_19
REMARK                            x       y       z     vdW  Elec       q    Type
REMARK                         _______ _______ _______ _____ _____    ______ ____
ROOT
ATOM      1  C   UNL     1       0.844   9.326  19.536  0.00  0.00    +0.000 A 
ATOM      2  C   UNL     1       0.718   9.372  20.939  0.00  0.00    +0.000 A 
ATOM      3  C   UNL     1      -0.232  10.188  21.594  0.00  0.00    +0.000 A 
ATOM      4  C   UNL     1      -1.059  10.981  20.790  0.00  0.00    +0.000 A 
ATOM      5  C   UNL     1      -0.912  10.951  19.379  0.00  0.00    +0.000 A 
ATOM      6  C   UNL     1       0.026  10.139  18.751  0.00  0.00    +0.000 A 
ATOM      7  C   UNL     1      -1.897  11.906  18.705  0.00  0.00    +0.000 C 
ATOM      8  C   UNL     1      -2.657  12.448  19.910  0.00  0.00    +0.000 A 
ATOM      9  C   UNL     1      -3.709  13.359  19.915  0.00  0.00    +0.000 A 
ATOM     10  C   UNL     1      -4.268  13.726  21.138  0.00  0.00    +0.000 A 
ATOM     11  C   UNL     1      -3.757  13.196  22.335  0.00  0.00    +0.000 A 
ATOM     12  C   UNL     1      -2.690  12.292  22.322  0.00  0.00    +0.000 A 
ATOM     13  C   UNL     1      -2.139  11.907  21.110  0.00  0.00    +0.000 A 
ENDROOT
BRANCH   1  16
ATOM     14  N   UNL     1       3.232   6.765  18.695  0.00  0.00    +0.000 N 
ATOM     15  C   UNL     1       2.244   7.243  19.510  0.00  0.00    +0.000 A 
ATOM     16  C   UNL     1       1.793   8.411  18.932  0.00  0.00    +0.000 A 
ATOM     17  C   UNL     1       2.522   8.495  17.725  0.00  0.00    +0.000 A 
ATOM     18  N   UNL     1       3.385   7.488  17.570  0.00  0.00    +0.000 NA
BRANCH  14  19
ATOM     19  C   UNL     1       4.106   5.641  18.960  0.00  0.00    +0.000 C 
BRANCH  19  21
ATOM     20  C   UNL     1       3.822   3.105  18.979  0.00  0.00    +0.000 C 
ATOM     21  C   UNL     1       3.806   4.377  18.125  0.00  0.00    +0.000 C 
ATOM     22  C   UNL     1       4.748   4.224  16.928  0.00  0.00    +0.000 C 
BRANCH  21  23
ATOM     23  O   UNL     1       2.468   4.512  17.610  0.00  0.00    +0.000 OA
ATOM     24  H   UNL     1       1.858   4.088  18.240  0.00  0.00    +0.000 HD
ENDBRANCH  21  23
ENDBRANCH  19  21
ENDBRANCH  14  19
ENDBRANCH   1  16
BRANCH   7  25
ATOM     25  C   UNL     1      -2.800  11.232  17.623  0.00  0.00    +0.000 C 
ATOM     26  F   UNL     1      -3.892  11.968  17.304  0.00  0.00    +0.000 F 
ATOM     27  F   UNL     1      -2.160  10.956  16.465  0.00  0.00    +0.000 F 
ATOM     28  F   UNL     1      -3.274  10.047  18.100  0.00  0.00    +0.000 F 
ENDBRANCH   7  25
BRANCH   7  29
ATOM     29  O   UNL     1      -1.111  13.001  18.191  0.00  0.00    +0.000 OA
ATOM     30  H   UNL     1      -1.682  13.789  18.193  0.00  0.00    +0.000 HD
ENDBRANCH   7  29
BRANCH   3  31
ATOM     31  C   UNL     1      -0.331  10.195  23.098  0.00  0.00    +0.000 C 
BRANCH  31  32
ATOM     32  O   UNL     1       0.759   9.541  23.740  0.00  0.00    +0.000 OA
ATOM     33  H   UNL     1       0.436   9.245  24.607  0.00  0.00    +0.000 HD
ENDBRANCH  31  32
ENDBRANCH   3  31
TORSDOF 8
ENDMDL
MODEL 8
REMARK VINA RESULT:      -7.4      1.495      1.971
REMARK  Name = 
REMARK  10 active torsions:
REMARK  status: ('A' for Active; 'I' for Inactive)
REMARK    1  A    between atoms: C_1  and  C_2
REMARK    2  A    between atoms: C_2  and  C_3
REMARK    3  A    between atoms: C_2  and  O_4
REMARK    4  A    between atoms: C_2  and  C_5
REMARK    5  A    between atoms: C_5  and  N_6
REMARK    6  A    between atoms: C_8  and  C_9
REMARK    7  A    between atoms: C_11  and  C_12
REMARK    8  A    between atoms: C_12  and  O_13
REMARK    9  A    between atoms: C_17  and  O_18
REMARK   10  A    between atoms: C_17  and  C_19
REMARK                            x       y       z     vdW  Elec       q    Type
REMARK                         _______ _______ _______ _____ _____    ______ ____
ROOT
ATOM      1  C   UNL     1       1.349   8.886  19.039  0.00  0.00    +0.000 A 
ATOM      2  C   UNL     1       1.344   8.954  20.447  0.00  0.00    +0.000 A 
ATOM      3  C   UNL     1       0.447   9.773  21.169  0.00  0.00    +0.000 A 
ATOM      4  C   UNL     1      -0.454  10.545  20.427  0.00  0.00    +0.000 A 
ATOM      5  C   UNL     1      -0.431  10.493  19.009  0.00  0.00    +0.000 A 
ATOM      6  C   UNL     1       0.458   9.679  18.315  0.00  0.00    +0.000 A 
ATOM      7  C   UNL     1      -1.479  11.428  18.408  0.00  0.00    +0.000 C 
ATOM      8  C   UNL     1      -2.138  11.983  19.666  0.00  0.00    +0.000 A 
ATOM      9  C   UNL     1      -3.194  12.885  19.748  0.00  0.00    +0.000 A 
ATOM     10  C   UNL     1      -3.649  13.267  21.008  0.00  0.00    +0.000 A 
ATOM     11  C   UNL     1      -3.031  12.762  22.165  0.00  0.00    +0.000 A 
ATOM     12  C   UNL     1      -1.960  11.867  22.073  0.00  0.00    +0.000 A 
ATOM     13  C   UNL     1      -1.513  11.467  20.825  0.00  0.00    +0.000 A 
ENDROOT
BRANCH   1  16
ATOM     14  N   UNL     1       3.293   6.116  17.807  0.00  0.00    +0.000 N 
ATOM     15  C   UNL     1       2.180   6.594  18.441  0.00  0.00    +0.000 A 
ATOM     16  C   UNL     1       2.252   7.969  18.370  0.00  0.00    +0.000 A 
ATOM     17  C   UNL     1       3.407   8.208  17.593  0.00  0.00    +0.000 A 
ATOM     18  N   UNL     1       4.033   7.084  17.235  0.00  0.00    +0.000 NA
BRANCH  14  19
ATOM     19  C   UNL     1       3.734   4.737  17.752  0.00  0.00    +0.000 C 
BRANCH  19  21
ATOM     20  C   UNL     1       6.246   4.356  17.988  0.00  0.00    +0.000 C 
ATOM     21  C   UNL     1       4.895   4.391  18.709  0.00  0.00    +0.000 C 
ATOM     22  C   UNL     1       4.663   3.080  19.466  0.00  0.00    +0.000 C 
BRANCH  21  23
ATOM     23  O   UNL     1       4.974   5.447  19.686  0.00  0.00    +0.000 OA
ATOM     24  H   UNL     1       5.609   5.174  20.374  0.00  0.00    +0.000 HD
ENDBRANCH  21  23
ENDBRANCH  19  21
ENDBRANCH  14  19
ENDBRANCH   1  16
BRANCH   7  25
ATOM     25  C   UNL     1      -2.466  10.728  17.419  0.00  0.00    +0.000 C 
ATOM     26  F   UNL     1      -1.841  10.104  16.392  0.00  0.00    +0.000 F 
ATOM     27  F   UNL     1      -3.275   9.815  18.001  0.00  0.00    +0.000 F 
ATOM     28  F   UNL     1      -3.278  11.663  16.850  0.00  0.00    +0.000 F 
ENDBRANCH   7  25
BRANCH   7  29
ATOM     29  O   UNL     1      -0.752  12.520  17.811  0.00  0.00    +0.000 OA
ATOM     30  H   UNL     1      -0.352  13.030  18.538  0.00  0.00    +0.000 HD
ENDBRANCH   7  29
BRANCH   3  31
ATOM     31  C   UNL     1       0.478   9.804  22.675  0.00  0.00    +0.000 C 
BRANCH  31  32
ATOM     32  O   UNL     1      -0.539   9.009  23.279  0.00  0.00    +0.000 OA
ATOM     33  H   UNL     1      -1.256   9.616  23.528  0.00  0.00    +0.000 HD
ENDBRANCH  31  32
ENDBRANCH   3  31
TORSDOF 8
ENDMDL
MODEL 9
REMARK VINA RESULT:      -7.4      0.737      1.104
REMARK  Name = 
REMARK  10 active torsions:
REMARK  status: ('A' for Active; 'I' for Inactive)
REMARK    1  A    between atoms: C_1  and  C_2
REMARK    2  A    between atoms: C_2  and  C_3
REMARK    3  A    between atoms: C_2  and  O_4
REMARK    4  A    between atoms: C_2  and  C_5
REMARK    5  A    between atoms: C_5  and  N_6
REMARK    6  A    between atoms: C_8  and  C_9
REMARK    7  A    between atoms: C_11  and  C_12
REMARK    8  A    between atoms: C_12  and  O_13
REMARK    9  A    between atoms: C_17  and  O_18
REMARK   10  A    between atoms: C_17  and  C_19
REMARK                            x       y       z     vdW  Elec       q    Type
REMARK                         _______ _______ _______ _____ _____    ______ ____
ROOT
ATOM      1  C   UNL     1       1.819   7.943  19.422  0.00  0.00    +0.000 A 
ATOM      2  C   UNL     1       1.792   8.075  20.825  0.00  0.00    +0.000 A 
ATOM      3  C   UNL     1       1.021   9.059  21.485  0.00  0.00    +0.000 A 
ATOM      4  C   UNL     1       0.274   9.931  20.686  0.00  0.00    +0.000 A 
ATOM      5  C   UNL     1       0.322   9.811  19.273  0.00  0.00    +0.000 A 
ATOM      6  C   UNL     1       1.085   8.835  18.640  0.00  0.00    +0.000 A 
ATOM      7  C   UNL     1      -0.548  10.874  18.602  0.00  0.00    +0.000 C 
ATOM      8  C   UNL     1      -1.138  11.584  19.815  0.00  0.00    +0.000 A 
ATOM      9  C   UNL     1      -2.037  12.646  19.828  0.00  0.00    +0.000 A 
ATOM     10  C   UNL     1      -2.453  13.153  21.057  0.00  0.00    +0.000 A 
ATOM     11  C   UNL     1      -1.952  12.608  22.252  0.00  0.00    +0.000 A 
ATOM     12  C   UNL     1      -1.038  11.550  22.230  0.00  0.00    +0.000 A 
ATOM     13  C   UNL     1      -0.631  11.027  21.013  0.00  0.00    +0.000 A 
ENDROOT
BRANCH   1  16
ATOM     14  N   UNL     1       4.274   5.640  18.146  0.00  0.00    +0.000 N 
ATOM     15  C   UNL     1       3.926   6.647  19.003  0.00  0.00    +0.000 A 
ATOM     16  C   UNL     1       2.577   6.865  18.819  0.00  0.00    +0.000 A 
ATOM     17  C   UNL     1       2.197   5.872  17.889  0.00  0.00    +0.000 A 
ATOM     18  N   UNL     1       3.223   5.116  17.490  0.00  0.00    +0.000 NA
BRANCH  14  19
ATOM     19  C   UNL     1       5.613   5.161  17.870  0.00  0.00    +0.000 C 
BRANCH  19  21
ATOM     20  C   UNL     1       7.072   5.006  15.781  0.00  0.00    +0.000 C 
ATOM     21  C   UNL     1       6.366   5.940  16.769  0.00  0.00    +0.000 C 
ATOM     22  C   UNL     1       7.358   6.957  17.340  0.00  0.00    +0.000 C 
BRANCH  21  23
ATOM     23  O   UNL     1       5.381   6.672  16.014  0.00  0.00    +0.000 OA
ATOM     24  H   UNL     1       5.512   6.468  15.071  0.00  0.00    +0.000 HD
ENDBRANCH  21  23
ENDBRANCH  19  21
ENDBRANCH  14  19
ENDBRANCH   1  16
BRANCH   7  25
ATOM     25  C   UNL     1      -1.611  10.297  17.613  0.00  0.00    +0.000 C 
ATOM     26  F   UNL     1      -1.109   9.358  16.776  0.00  0.00    +0.000 F 
ATOM     27  F   UNL     1      -2.688   9.749  18.219  0.00  0.00    +0.000 F 
ATOM     28  F   UNL     1      -2.079  11.298  16.814  0.00  0.00    +0.000 F 
ENDBRANCH   7  25
BRANCH   7  29
ATOM     29  O   UNL     1       0.360  11.808  17.983  0.00  0.00    +0.000 OA
ATOM     30  H   UNL     1      -0.173  12.390  17.412  0.00  0.00    +0.000 HD
ENDBRANCH   7  29
BRANCH   3  31
ATOM     31  C   UNL     1       1.022   9.153  22.989  0.00  0.00    +0.000 C 
BRANCH  31  32
ATOM     32  O   UNL     1       2.325   9.293  23.547  0.00  0.00    +0.000 OA
ATOM     33  H   UNL     1       2.478  10.246  23.663  0.00  0.00    +0.000 HD
ENDBRANCH  31  32
ENDBRANCH   3  31
TORSDOF 8
ENDMDL
