MODEL 1
REMARK VINA RESULT:      -7.8      0.000      0.000
REMARK  Name = 
REMARK  8 active torsions:
REMARK  status: ('A' for Active; 'I' for Inactive)
REMARK    1  A    between atoms: C_1  and  C_2
REMARK    2  A    between atoms: C_6  and  C_7
REMARK    3  A    between atoms: C_7  and  C_8
REMARK    4  A    between atoms: C_8  and  C_9
REMARK    5  A    between atoms: N_11  and  C_12
REMARK    6  A    between atoms: N_11  and  C_19
REMARK    7  A    between atoms: C_12  and  C_13
REMARK    8  A    between atoms: C_24  and  O_25
REMARK                            x       y       z     vdW  Elec       q    Type
REMARK                         _______ _______ _______ _____ _____    ______ ____
ROOT
ATOM      1  C   UNL     1       2.661   7.090  18.487  0.00  0.00    +0.000 C 
ATOM      2  O   UNL     1       3.138   8.064  17.894  0.00  0.00    +0.000 OA
ATOM      3  N   UNL     1       3.200   5.796  18.367  0.00  0.00    +0.000 N 
ENDROOT
BRANCH   3   4
ATOM      4  C   UNL     1       2.725   4.558  19.063  0.00  0.00    +0.000 C 
ATOM      5  C   UNL     1       2.889   4.610  20.590  0.00  0.00    +0.000 C 
ATOM      6  C   UNL     1       2.512   3.305  21.268  0.00  0.00    +0.000 C 
ATOM      7  C   UNL     1       1.090   2.901  20.891  0.00  0.00    +0.000 C 
ATOM      8  C   UNL     1       0.931   2.783  19.381  0.00  0.00    +0.000 C 
ATOM      9  C   UNL     1       1.307   4.085  18.655  0.00  0.00    +0.000 C 
BRANCH   9  10
ATOM     10  O   UNL     1       1.214   3.850  17.244  0.00  0.00    +0.000 OA
ATOM     11  H   UNL     1       0.510   3.196  17.089  0.00  0.00    +0.000 HD
ENDBRANCH   9  10
ENDBRANCH   3   4
BRANCH   1  12
ATOM     12  C   UNL     1       1.504   7.286  19.449  0.00  0.00    +0.000 C 
BRANCH  12  13
ATOM     13  C   UNL     1       1.736   8.115  20.707  0.00  0.00    +0.000 C 
BRANCH  13  19
ATOM     14  C   UNL     1      -0.024   9.490  23.129  0.00  0.00    +0.000 C 
ATOM     15  C   UNL     1       0.041   9.883  21.698  0.00  0.00    +0.000 A 
ATOM     16  N   UNL     1      -0.776  10.930  21.293  0.00  0.00    +0.000 NA
ATOM     17  C   UNL     1      -0.629  11.140  20.008  0.00  0.00    +0.000 A 
ATOM     18  S   UNL     1       0.479  10.121  19.201  0.00  0.00    +0.000 S 
ATOM     19  C   UNL     1       0.803   9.308  20.686  0.00  0.00    +0.000 A 
ENDBRANCH  13  19
ENDBRANCH  12  13
ENDBRANCH   1  12
BRANCH   3  20
ATOM     20  C   UNL     1       4.225   5.589  17.327  0.00  0.00    +0.000 C 
BRANCH  20  21
ATOM     21  C   UNL     1       5.641   5.954  17.744  0.00  0.00    +0.000 A 
ATOM     22  C   UNL     1       6.332   7.007  17.123  0.00  0.00    +0.000 A 
ATOM     23  C   UNL     1       7.581   7.420  17.597  0.00  0.00    +0.000 A 
ATOM     24  C   UNL     1       8.156   6.785  18.696  0.00  0.00    +0.000 A 
ATOM     25  C   UNL     1       7.492   5.723  19.306  0.00  0.00    +0.000 A 
ATOM     26  C   UNL     1       6.244   5.308  18.833  0.00  0.00    +0.000 A 
ENDBRANCH  20  21
ENDBRANCH   3  20
TORSDOF 7
ENDMDL
MODEL 2
REMARK VINA RESULT:      -7.7      1.320      1.951
REMARK  Name = 
REMARK  8 active torsions:
REMARK  status: ('A' for Active; 'I' for Inactive)
REMARK    1  A    between atoms: C_1  and  C_2
REMARK    2  A    between atoms: C_6  and  C_7
REMARK    3  A    between atoms: C_7  and  C_8
REMARK    4  A    between atoms: C_8  and  C_9
REMARK    5  A    between atoms: N_11  and  C_12
REMARK    6  A    between atoms: N_11  and  C_19
REMARK    7  A    between atoms: C_12  and  C_13
REMARK    8  A    between atoms: C_24  and  O_25
REMARK                            x       y       z     vdW  Elec       q    Type
REMARK                         _______ _______ _______ _____ _____    ______ ____
ROOT
ATOM      1  C   UNL     1       2.769   7.328  18.039  0.00  0.00    +0.000 C 
ATOM      2  O   UNL     1       3.550   8.099  17.470  0.00  0.00    +0.000 OA
ATOM      3  N   UNL     1       2.985   5.939  18.091  0.00  0.00    +0.000 N 
ENDROOT
BRANCH   3   4
ATOM      4  C   UNL     1       2.127   4.922  18.779  0.00  0.00    +0.000 C 
ATOM      5  C   UNL     1       1.869   3.664  17.935  0.00  0.00    +0.000 C 
ATOM      6  C   UNL     1       0.904   2.697  18.598  0.00  0.00    +0.000 C 
ATOM      7  C   UNL     1       1.402   2.321  19.992  0.00  0.00    +0.000 C 
ATOM      8  C   UNL     1       1.601   3.557  20.859  0.00  0.00    +0.000 C 
ATOM      9  C   UNL     1       2.569   4.565  20.221  0.00  0.00    +0.000 C 
BRANCH   9  10
ATOM     10  O   UNL     1       2.621   5.725  21.060  0.00  0.00    +0.000 OA
ATOM     11  H   UNL     1       2.557   5.435  21.987  0.00  0.00    +0.000 HD
ENDBRANCH   9  10
ENDBRANCH   3   4
BRANCH   1  12
ATOM     12  C   UNL     1       1.571   7.884  18.786  0.00  0.00    +0.000 C 
BRANCH  12  13
ATOM     13  C   UNL     1       1.362   9.395  18.804  0.00  0.00    +0.000 C 
BRANCH  13  19
ATOM     14  C   UNL     1       1.060  12.379  20.166  0.00  0.00    +0.000 C 
ATOM     15  C   UNL     1       0.746  11.056  20.765  0.00  0.00    +0.000 A 
ATOM     16  N   UNL     1       0.318  11.046  22.085  0.00  0.00    +0.000 NA
ATOM     17  C   UNL     1       0.109   9.812  22.477  0.00  0.00    +0.000 A 
ATOM     18  S   UNL     1       0.402   8.594  21.317  0.00  0.00    +0.000 S 
ATOM     19  C   UNL     1       0.859   9.802  20.174  0.00  0.00    +0.000 A 
ENDBRANCH  13  19
ENDBRANCH  12  13
ENDBRANCH   1  12
BRANCH   3  20
ATOM     20  C   UNL     1       4.065   5.394  17.247  0.00  0.00    +0.000 C 
BRANCH  20  21
ATOM     21  C   UNL     1       5.472   5.688  17.742  0.00  0.00    +0.000 A 
ATOM     22  C   UNL     1       6.330   6.542  17.029  0.00  0.00    +0.000 A 
ATOM     23  C   UNL     1       7.572   6.909  17.555  0.00  0.00    +0.000 A 
ATOM     24  C   UNL     1       7.975   6.425  18.798  0.00  0.00    +0.000 A 
ATOM     25  C   UNL     1       7.145   5.557  19.505  0.00  0.00    +0.000 A 
ATOM     26  C   UNL     1       5.903   5.189  18.980  0.00  0.00    +0.000 A 
ENDBRANCH  20  21
ENDBRANCH   3  20
TORSDOF 7
ENDMDL
MODEL 3
REMARK VINA RESULT:      -7.7      2.546      6.161
REMARK  Name = 
REMARK  8 active torsions:
REMARK  status: ('A' for Active; 'I' for Inactive)
REMARK    1  A    between atoms: C_1  and  C_2
REMARK    2  A    between atoms: C_6  and  C_7
REMARK    3  A    between atoms: C_7  and  C_8
REMARK    4  A    between atoms: C_8  and  C_9
REMARK    5  A    between atoms: N_11  and  C_12
REMARK    6  A    between atoms: N_11  and  C_19
REMARK    7  A    between atoms: C_12  and  C_13
REMARK    8  A    between atoms: C_24  and  O_25
REMARK                            x       y       z     vdW  Elec       q    Type
REMARK                         _______ _______ _______ _____ _____    ______ ____
ROOT
ATOM      1  C   UNL     1       2.647   5.001  17.515  0.00  0.00    +0.000 C 
ATOM      2  O   UNL     1       1.418   5.079  17.417  0.00  0.00    +0.000 OA
ATOM      3  N   UNL     1       3.463   6.131  17.702  0.00  0.00    +0.000 N 
ENDROOT
BRANCH   3   4
ATOM      4  C   UNL     1       4.951   6.147  17.867  0.00  0.00    +0.000 C 
ATOM      5  C   UNL     1       5.440   5.385  19.108  0.00  0.00    +0.000 C 
ATOM      6  C   UNL     1       6.938   5.509  19.324  0.00  0.00    +0.000 C 
ATOM      7  C   UNL     1       7.694   5.055  18.078  0.00  0.00    +0.000 C 
ATOM      8  C   UNL     1       7.264   5.847  16.851  0.00  0.00    +0.000 C 
ATOM      9  C   UNL     1       5.751   5.751  16.599  0.00  0.00    +0.000 C 
BRANCH   9  10
ATOM     10  O   UNL     1       5.431   6.596  15.487  0.00  0.00    +0.000 OA
ATOM     11  H   UNL     1       6.263   6.885  15.073  0.00  0.00    +0.000 HD
ENDBRANCH   9  10
ENDBRANCH   3   4
BRANCH   1  12
ATOM     12  C   UNL     1       3.317   3.639  17.520  0.00  0.00    +0.000 C 
BRANCH  12  13
ATOM     13  C   UNL     1       2.533   2.444  18.053  0.00  0.00    +0.000 C 
BRANCH  13  19
ATOM     14  C   UNL     1       4.719   1.984  20.474  0.00  0.00    +0.000 C 
ATOM     15  C   UNL     1       3.291   2.378  20.584  0.00  0.00    +0.000 A 
ATOM     16  N   UNL     1       2.773   2.528  21.863  0.00  0.00    +0.000 NA
ATOM     17  C   UNL     1       1.504   2.848  21.796  0.00  0.00    +0.000 A 
ATOM     18  S   UNL     1       0.845   2.994  20.227  0.00  0.00    +0.000 S 
ATOM     19  C   UNL     1       2.380   2.589  19.553  0.00  0.00    +0.000 A 
ENDBRANCH  13  19
ENDBRANCH  12  13
ENDBRANCH   1  12
BRANCH   3  20
ATOM     20  C   UNL     1       2.825   7.452  17.551  0.00  0.00    +0.000 C 
BRANCH  20  21
ATOM     21  C   UNL     1       2.157   7.986  18.809  0.00  0.00    +0.000 A 
ATOM     22  C   UNL     1       1.430   9.188  18.791  0.00  0.00    +0.000 A 
ATOM     23  C   UNL     1       0.712   9.605  19.916  0.00  0.00    +0.000 A 
ATOM     24  C   UNL     1       0.712   8.829  21.073  0.00  0.00    +0.000 A 
ATOM     25  C   UNL     1       1.449   7.646  21.112  0.00  0.00    +0.000 A 
ATOM     26  C   UNL     1       2.168   7.228  19.989  0.00  0.00    +0.000 A 
ENDBRANCH  20  21
ENDBRANCH   3  20
TORSDOF 7
ENDMDL
MODEL 4
REMARK VINA RESULT:      -7.7      1.050      1.748
REMARK  Name = 
REMARK  8 active torsions:
REMARK  status: ('A' for Active; 'I' for Inactive)
REMARK    1  A    between atoms: C_1  and  C_2
REMARK    2  A    between atoms: C_6  and  C_7
REMARK    3  A    between atoms: C_7  and  C_8
REMARK    4  A    between atoms: C_8  and  C_9
REMARK    5  A    between atoms: N_11  and  C_12
REMARK    6  A    between atoms: N_11  and  C_19
REMARK    7  A    between atoms: C_12  and  C_13
REMARK    8  A    between atoms: C_24  and  O_25
REMARK                            x       y       z     vdW  Elec       q    Type
REMARK                         _______ _______ _______ _____ _____    ______ ____
ROOT
ATOM      1  C   UNL     1       2.487   7.408  18.438  0.00  0.00    +0.000 C 
ATOM      2  O   UNL     1       3.197   8.293  17.947  0.00  0.00    +0.000 OA
ATOM      3  N   UNL     1       2.799   6.041  18.326  0.00  0.00    +0.000 N 
ENDROOT
BRANCH   3   4
ATOM      4  C   UNL     1       2.032   4.895  18.909  0.00  0.00    +0.000 C 
ATOM      5  C   UNL     1       1.768   3.759  17.907  0.00  0.00    +0.000 C 
ATOM      6  C   UNL     1       0.892   2.660  18.480  0.00  0.00    +0.000 C 
ATOM      7  C   UNL     1       1.498   2.114  19.770  0.00  0.00    +0.000 C 
ATOM      8  C   UNL     1       1.705   3.220  20.796  0.00  0.00    +0.000 C 
ATOM      9  C   UNL     1       2.586   4.357  20.253  0.00  0.00    +0.000 C 
BRANCH   9  10
ATOM     10  O   UNL     1       2.647   5.386  21.248  0.00  0.00    +0.000 OA
ATOM     11  H   UNL     1       1.901   5.994  21.106  0.00  0.00    +0.000 HD
ENDBRANCH   9  10
ENDBRANCH   3   4
BRANCH   1  12
ATOM     12  C   UNL     1       1.274   7.790  19.267  0.00  0.00    +0.000 C 
BRANCH  12  13
ATOM     13  C   UNL     1       1.497   8.470  20.613  0.00  0.00    +0.000 C 
BRANCH  13  19
ATOM     14  C   UNL     1      -0.250   9.647  23.146  0.00  0.00    +0.000 C 
ATOM     15  C   UNL     1      -0.161  10.177  21.761  0.00  0.00    +0.000 A 
ATOM     16  N   UNL     1      -0.947  11.281  21.456  0.00  0.00    +0.000 NA
ATOM     17  C   UNL     1      -0.782  11.611  20.198  0.00  0.00    +0.000 A 
ATOM     18  S   UNL     1       0.308  10.648  19.302  0.00  0.00    +0.000 S 
ATOM     19  C   UNL     1       0.595   9.684  20.703  0.00  0.00    +0.000 A 
ENDBRANCH  13  19
ENDBRANCH  12  13
ENDBRANCH   1  12
BRANCH   3  20
ATOM     20  C   UNL     1       3.890   5.674  17.404  0.00  0.00    +0.000 C 
BRANCH  20  21
ATOM     21  C   UNL     1       5.287   6.001  17.906  0.00  0.00    +0.000 A 
ATOM     22  C   UNL     1       5.826   5.353  19.030  0.00  0.00    +0.000 A 
ATOM     23  C   UNL     1       7.155   5.564  19.408  0.00  0.00    +0.000 A 
ATOM     24  C   UNL     1       7.963   6.428  18.670  0.00  0.00    +0.000 A 
ATOM     25  C   UNL     1       7.434   7.097  17.568  0.00  0.00    +0.000 A 
ATOM     26  C   UNL     1       6.105   6.887  17.189  0.00  0.00    +0.000 A 
ENDBRANCH  20  21
ENDBRANCH   3  20
TORSDOF 7
ENDMDL
MODEL 5
REMARK VINA RESULT:      -7.7      1.447      2.115
REMARK  Name = 
REMARK  8 active torsions:
REMARK  status: ('A' for Active; 'I' for Inactive)
REMARK    1  A    between atoms: C_1  and  C_2
REMARK    2  A    between atoms: C_6  and  C_7
REMARK    3  A    between atoms: C_7  and  C_8
REMARK    4  A    between atoms: C_8  and  C_9
REMARK    5  A    between atoms: N_11  and  C_12
REMARK    6  A    between atoms: N_11  and  C_19
REMARK    7  A    between atoms: C_12  and  C_13
REMARK    8  A    between atoms: C_24  and  O_25
REMARK                            x       y       z     vdW  Elec       q    Type
REMARK                         _______ _______ _______ _____ _____    ______ ____
ROOT
ATOM      1  C   UNL     1       2.687   7.679  18.005  0.00  0.00    +0.000 C 
ATOM      2  O   UNL     1       3.486   8.461  17.477  0.00  0.00    +0.000 OA
ATOM      3  N   UNL     1       2.920   6.293  18.072  0.00  0.00    +0.000 N 
ENDROOT
BRANCH   3   4
ATOM      4  C   UNL     1       2.042   5.265  18.714  0.00  0.00    +0.000 C 
ATOM      5  C   UNL     1       1.921   3.965  17.904  0.00  0.00    +0.000 C 
ATOM      6  C   UNL     1       0.937   2.981  18.510  0.00  0.00    +0.000 C 
ATOM      7  C   UNL     1       1.310   2.681  19.960  0.00  0.00    +0.000 C 
ATOM      8  C   UNL     1       1.370   3.957  20.790  0.00  0.00    +0.000 C 
ATOM      9  C   UNL     1       2.354   4.983  20.206  0.00  0.00    +0.000 C 
BRANCH   9  10
ATOM     10  O   UNL     1       2.274   6.175  20.997  0.00  0.00    +0.000 OA
ATOM     11  H   UNL     1       1.929   6.892  20.437  0.00  0.00    +0.000 HD
ENDBRANCH   9  10
ENDBRANCH   3   4
BRANCH   1  12
ATOM     12  C   UNL     1       1.444   8.219  18.687  0.00  0.00    +0.000 C 
BRANCH  12  13
ATOM     13  C   UNL     1       0.840   9.522  18.174  0.00  0.00    +0.000 C 
BRANCH  13  19
ATOM     14  C   UNL     1       0.048   9.610  21.370  0.00  0.00    +0.000 C 
ATOM     15  C   UNL     1       0.714  10.659  20.556  0.00  0.00    +0.000 A 
ATOM     16  N   UNL     1       1.003  11.861  21.188  0.00  0.00    +0.000 NA
ATOM     17  C   UNL     1       1.560  12.689  20.338  0.00  0.00    +0.000 A 
ATOM     18  S   UNL     1       1.778  12.104  18.749  0.00  0.00    +0.000 S 
ATOM     19  C   UNL     1       1.062  10.605  19.211  0.00  0.00    +0.000 A 
ENDBRANCH  13  19
ENDBRANCH  12  13
ENDBRANCH   1  12
BRANCH   3  20
ATOM     20  C   UNL     1       4.050   5.763  17.287  0.00  0.00    +0.000 C 
BRANCH  20  21
ATOM     21  C   UNL     1       5.422   6.020  17.889  0.00  0.00    +0.000 A 
ATOM     22  C   UNL     1       5.844   5.347  19.048  0.00  0.00    +0.000 A 
ATOM     23  C   UNL     1       7.152   5.490  19.522  0.00  0.00    +0.000 A 
ATOM     24  C   UNL     1       8.054   6.310  18.847  0.00  0.00    +0.000 A 
ATOM     25  C   UNL     1       7.641   7.003  17.710  0.00  0.00    +0.000 A 
ATOM     26  C   UNL     1       6.335   6.861  17.235  0.00  0.00    +0.000 A 
ENDBRANCH  20  21
ENDBRANCH   3  20
TORSDOF 7
ENDMDL
MODEL 6
REMARK VINA RESULT:      -7.6      1.443      2.351
REMARK  Name = 
REMARK  8 active torsions:
REMARK  status: ('A' for Active; 'I' for Inactive)
REMARK    1  A    between atoms: C_1  and  C_2
REMARK    2  A    between atoms: C_6  and  C_7
REMARK    3  A    between atoms: C_7  and  C_8
REMARK    4  A    between atoms: C_8  and  C_9
REMARK    5  A    between atoms: N_11  and  C_12
REMARK    6  A    between atoms: N_11  and  C_19
REMARK    7  A    between atoms: C_12  and  C_13
REMARK    8  A    between atoms: C_24  and  O_25
REMARK                            x       y       z     vdW  Elec       q    Type
REMARK                         _______ _______ _______ _____ _____    ______ ____
ROOT
ATOM      1  C   UNL     1       2.639   7.741  17.953  0.00  0.00    +0.000 C 
ATOM      2  O   UNL     1       3.414   8.531  17.403  0.00  0.00    +0.000 OA
ATOM      3  N   UNL     1       2.902   6.362  18.039  0.00  0.00    +0.000 N 
ENDROOT
BRANCH   3   4
ATOM      4  C   UNL     1       2.053   5.327  18.709  0.00  0.00    +0.000 C 
ATOM      5  C   UNL     1       1.990   3.994  17.945  0.00  0.00    +0.000 C 
ATOM      6  C   UNL     1       1.035   2.998  18.577  0.00  0.00    +0.000 C 
ATOM      7  C   UNL     1       1.400   2.764  20.040  0.00  0.00    +0.000 C 
ATOM      8  C   UNL     1       1.404   4.070  20.824  0.00  0.00    +0.000 C 
ATOM      9  C   UNL     1       2.357   5.110  20.214  0.00  0.00    +0.000 C 
BRANCH   9  10
ATOM     10  O   UNL     1       2.224   6.326  20.960  0.00  0.00    +0.000 OA
ATOM     11  H   UNL     1       1.282   6.567  20.987  0.00  0.00    +0.000 HD
ENDBRANCH   9  10
ENDBRANCH   3   4
BRANCH   1  12
ATOM     12  C   UNL     1       1.392   8.266  18.641  0.00  0.00    +0.000 C 
BRANCH  12  13
ATOM     13  C   UNL     1       0.777   9.567  18.138  0.00  0.00    +0.000 C 
BRANCH  13  19
ATOM     14  C   UNL     1      -1.541  11.909  18.115  0.00  0.00    +0.000 C 
ATOM     15  C   UNL     1      -0.915  11.242  19.286  0.00  0.00    +0.000 A 
ATOM     16  N   UNL     1      -1.304  11.680  20.544  0.00  0.00    +0.000 NA
ATOM     17  C   UNL     1      -0.649  11.020  21.468  0.00  0.00    +0.000 A 
ATOM     18  S   UNL     1       0.458   9.844  20.912  0.00  0.00    +0.000 S 
ATOM     19  C   UNL     1       0.049  10.239  19.285  0.00  0.00    +0.000 A 
ENDBRANCH  13  19
ENDBRANCH  12  13
ENDBRANCH   1  12
BRANCH   3  20
ATOM     20  C   UNL     1       4.034   5.843  17.249  0.00  0.00    +0.000 C 
BRANCH  20  21
ATOM     21  C   UNL     1       5.402   6.057  17.877  0.00  0.00    +0.000 A 
ATOM     22  C   UNL     1       5.802   5.333  19.013  0.00  0.00    +0.000 A 
ATOM     23  C   UNL     1       7.105   5.441  19.507  0.00  0.00    +0.000 A 
ATOM     24  C   UNL     1       8.026   6.275  18.874  0.00  0.00    +0.000 A 
ATOM     25  C   UNL     1       7.635   7.018  17.762  0.00  0.00    +0.000 A 
ATOM     26  C   UNL     1       6.332   6.911  17.267  0.00  0.00    +0.000 A 
ENDBRANCH  20  21
ENDBRANCH   3  20
TORSDOF 7
ENDMDL
MODEL 7
REMARK VINA RESULT:      -7.6      1.878      2.768
REMARK  Name = 
REMARK  8 active torsions:
REMARK  status: ('A' for Active; 'I' for Inactive)
REMARK    1  A    between atoms: C_1  and  C_2
REMARK    2  A    between atoms: C_6  and  C_7
REMARK    3  A    between atoms: C_7  and  C_8
REMARK    4  A    between atoms: C_8  and  C_9
REMARK    5  A    between atoms: N_11  and  C_12
REMARK    6  A    between atoms: N_11  and  C_19
REMARK    7  A    between atoms: C_12  and  C_13
REMARK    8  A    between atoms: C_24  and  O_25
REMARK                            x       y       z     vdW  Elec       q    Type
REMARK                         _______ _______ _______ _____ _____    ______ ____
ROOT
ATOM      1  C   UNL     1       3.545   6.750  18.010  0.00  0.00    +0.000 C 
ATOM      2  O   UNL     1       4.554   7.388  17.694  0.00  0.00    +0.000 OA
ATOM      3  N   UNL     1       3.611   5.460  18.570  0.00  0.00    +0.000 N 
ENDROOT
BRANCH   3   4
ATOM      4  C   UNL     1       2.459   4.616  19.018  0.00  0.00    +0.000 C 
ATOM      5  C   UNL     1       2.189   3.410  18.105  0.00  0.00    +0.000 C 
ATOM      6  C   UNL     1       0.948   2.632  18.508  0.00  0.00    +0.000 C 
ATOM      7  C   UNL     1       1.045   2.195  19.968  0.00  0.00    +0.000 C 
ATOM      8  C   UNL     1       1.250   3.389  20.890  0.00  0.00    +0.000 C 
ATOM      9  C   UNL     1       2.496   4.206  20.513  0.00  0.00    +0.000 C 
BRANCH   9  10
ATOM     10  O   UNL     1       2.553   5.351  21.373  0.00  0.00    +0.000 OA
ATOM     11  H   UNL     1       1.839   5.961  21.119  0.00  0.00    +0.000 HD
ENDBRANCH   9  10
ENDBRANCH   3   4
BRANCH   1  12
ATOM     12  C   UNL     1       2.175   7.391  17.877  0.00  0.00    +0.000 C 
BRANCH  12  13
ATOM     13  C   UNL     1       2.059   8.901  18.053  0.00  0.00    +0.000 C 
BRANCH  13  19
ATOM     14  C   UNL     1      -0.647  10.776  18.171  0.00  0.00    +0.000 C 
ATOM     15  C   UNL     1      -0.019   9.993  19.267  0.00  0.00    +0.000 A 
ATOM     16  N   UNL     1      -0.600  10.088  20.524  0.00  0.00    +0.000 NA
ATOM     17  C   UNL     1       0.079   9.368  21.384  0.00  0.00    +0.000 A 
ATOM     18  S   UNL     1       1.436   8.536  20.765  0.00  0.00    +0.000 S 
ATOM     19  C   UNL     1       1.113   9.188  19.202  0.00  0.00    +0.000 A 
ENDBRANCH  13  19
ENDBRANCH  12  13
ENDBRANCH   1  12
BRANCH   3  20
ATOM     20  C   UNL     1       4.926   4.792  18.561  0.00  0.00    +0.000 C 
BRANCH  20  21
ATOM     21  C   UNL     1       5.549   4.626  17.185  0.00  0.00    +0.000 A 
ATOM     22  C   UNL     1       4.770   4.263  16.073  0.00  0.00    +0.000 A 
ATOM     23  C   UNL     1       5.324   4.238  14.790  0.00  0.00    +0.000 A 
ATOM     24  C   UNL     1       6.664   4.572  14.600  0.00  0.00    +0.000 A 
ATOM     25  C   UNL     1       7.454   4.910  15.697  0.00  0.00    +0.000 A 
ATOM     26  C   UNL     1       6.902   4.935  16.981  0.00  0.00    +0.000 A 
ENDBRANCH  20  21
ENDBRANCH   3  20
TORSDOF 7
ENDMDL
MODEL 8
REMARK VINA RESULT:      -7.4      0.888      1.262
REMARK  Name = 
REMARK  8 active torsions:
REMARK  status: ('A' for Active; 'I' for Inactive)
REMARK    1  A    between atoms: C_1  and  C_2
REMARK    2  A    between atoms: C_6  and  C_7
REMARK    3  A    between atoms: C_7  and  C_8
REMARK    4  A    between atoms: C_8  and  C_9
REMARK    5  A    between atoms: N_11  and  C_12
REMARK    6  A    between atoms: N_11  and  C_19
REMARK    7  A    between atoms: C_12  and  C_13
REMARK    8  A    between atoms: C_24  and  O_25
REMARK                            x       y       z     vdW  Elec       q    Type
REMARK                         _______ _______ _______ _____ _____    ______ ____
ROOT
ATOM      1  C   UNL     1       2.727   7.044  18.417  0.00  0.00    +0.000 C 
ATOM      2  O   UNL     1       3.229   7.996  17.808  0.00  0.00    +0.000 OA
ATOM      3  N   UNL     1       3.248   5.739  18.338  0.00  0.00    +0.000 N 
ENDROOT
BRANCH   3   4
ATOM      4  C   UNL     1       2.742   4.527  19.055  0.00  0.00    +0.000 C 
ATOM      5  C   UNL     1       2.914   4.599  20.581  0.00  0.00    +0.000 C 
ATOM      6  C   UNL     1       2.505   3.315  21.282  0.00  0.00    +0.000 C 
ATOM      7  C   UNL     1       1.070   2.945  20.916  0.00  0.00    +0.000 C 
ATOM      8  C   UNL     1       0.900   2.808  19.409  0.00  0.00    +0.000 C 
ATOM      9  C   UNL     1       1.309   4.086  18.661  0.00  0.00    +0.000 C 
BRANCH   9  10
ATOM     10  O   UNL     1       1.204   3.831  17.255  0.00  0.00    +0.000 OA
ATOM     11  H   UNL     1       0.790   4.605  16.833  0.00  0.00    +0.000 HD
ENDBRANCH   9  10
ENDBRANCH   3   4
BRANCH   1  12
ATOM     12  C   UNL     1       1.558   7.281  19.354  0.00  0.00    +0.000 C 
BRANCH  12  13
ATOM     13  C   UNL     1       1.818   7.998  20.675  0.00  0.00    +0.000 C 
BRANCH  13  19
ATOM     14  C   UNL     1       1.281  10.594  18.720  0.00  0.00    +0.000 C 
ATOM     15  C   UNL     1       0.615  10.253  20.003  0.00  0.00    +0.000 A 
ATOM     16  N   UNL     1      -0.322  11.155  20.488  0.00  0.00    +0.000 NA
ATOM     17  C   UNL     1      -0.798  10.731  21.634  0.00  0.00    +0.000 A 
ATOM     18  S   UNL     1      -0.175   9.247  22.206  0.00  0.00    +0.000 S 
ATOM     19  C   UNL     1       0.835   9.143  20.812  0.00  0.00    +0.000 A 
ENDBRANCH  13  19
ENDBRANCH  12  13
ENDBRANCH   1  12
BRANCH   3  20
ATOM     20  C   UNL     1       4.286   5.491  17.321  0.00  0.00    +0.000 C 
BRANCH  20  21
ATOM     21  C   UNL     1       5.691   5.905  17.728  0.00  0.00    +0.000 A 
ATOM     22  C   UNL     1       6.340   6.984  17.105  0.00  0.00    +0.000 A 
ATOM     23  C   UNL     1       7.577   7.439  17.570  0.00  0.00    +0.000 A 
ATOM     24  C   UNL     1       8.183   6.822  18.663  0.00  0.00    +0.000 A 
ATOM     25  C   UNL     1       7.562   5.735  19.275  0.00  0.00    +0.000 A 
ATOM     26  C   UNL     1       6.325   5.278  18.811  0.00  0.00    +0.000 A 
ENDBRANCH  20  21
ENDBRANCH   3  20
TORSDOF 7
ENDMDL
MODEL 9
REMARK VINA RESULT:      -7.4      1.933      2.807
REMARK  Name = 
REMARK  8 active torsions:
REMARK  status: ('A' for Active; 'I' for Inactive)
REMARK    1  A    between atoms: C_1  and  C_2
REMARK    2  A    between atoms: C_6  and  C_7
REMARK    3  A    between atoms: C_7  and  C_8
REMARK    4  A    between atoms: C_8  and  C_9
REMARK    5  A    between atoms: N_11  and  C_12
REMARK    6  A    between atoms: N_11  and  C_19
REMARK    7  A    between atoms: C_12  and  C_13
REMARK    8  A    between atoms: C_24  and  O_25
REMARK                            x       y       z     vdW  Elec       q    Type
REMARK                         _______ _______ _______ _____ _____    ______ ____
ROOT
ATOM      1  C   UNL     1       3.531   6.792  18.024  0.00  0.00    +0.000 C 
ATOM      2  O   UNL     1       4.532   7.437  17.692  0.00  0.00    +0.000 OA
ATOM      3  N   UNL     1       3.609   5.478  18.520  0.00  0.00    +0.000 N 
ENDROOT
BRANCH   3   4
ATOM      4  C   UNL     1       2.471   4.623  18.982  0.00  0.00    +0.000 C 
ATOM      5  C   UNL     1       2.225   3.394  18.093  0.00  0.00    +0.000 C 
ATOM      6  C   UNL     1       0.996   2.603  18.507  0.00  0.00    +0.000 C 
ATOM      7  C   UNL     1       1.095   2.198  19.975  0.00  0.00    +0.000 C 
ATOM      8  C   UNL     1       1.275   3.414  20.874  0.00  0.00    +0.000 C 
ATOM      9  C   UNL     1       2.507   4.245  20.485  0.00  0.00    +0.000 C 
BRANCH   9  10
ATOM     10  O   UNL     1       2.541   5.408  21.321  0.00  0.00    +0.000 OA
ATOM     11  H   UNL     1       1.646   5.559  21.672  0.00  0.00    +0.000 HD
ENDBRANCH   9  10
ENDBRANCH   3   4
BRANCH   1  12
ATOM     12  C   UNL     1       2.163   7.450  17.982  0.00  0.00    +0.000 C 
BRANCH  12  13
ATOM     13  C   UNL     1       2.089   8.969  17.878  0.00  0.00    +0.000 C 
BRANCH  13  19
ATOM     14  C   UNL     1       1.097  12.022  18.619  0.00  0.00    +0.000 C 
ATOM     15  C   UNL     1       1.051  10.805  19.470  0.00  0.00    +0.000 A 
ATOM     16  N   UNL     1       0.580  10.959  20.767  0.00  0.00    +0.000 NA
ATOM     17  C   UNL     1       0.626   9.810  21.397  0.00  0.00    +0.000 A 
ATOM     18  S   UNL     1       1.221   8.483  20.502  0.00  0.00    +0.000 S 
ATOM     19  C   UNL     1       1.454   9.515  19.141  0.00  0.00    +0.000 A 
ENDBRANCH  13  19
ENDBRANCH  12  13
ENDBRANCH   1  12
BRANCH   3  20
ATOM     20  C   UNL     1       4.915   4.800  18.422  0.00  0.00    +0.000 C 
BRANCH  20  21
ATOM     21  C   UNL     1       5.521   4.780  17.028  0.00  0.00    +0.000 A 
ATOM     22  C   UNL     1       6.867   5.123  16.814  0.00  0.00    +0.000 A 
ATOM     23  C   UNL     1       7.450   4.978  15.553  0.00  0.00    +0.000 A 
ATOM     24  C   UNL     1       6.697   4.490  14.486  0.00  0.00    +0.000 A 
ATOM     25  C   UNL     1       5.354   4.169  14.678  0.00  0.00    +0.000 A 
ATOM     26  C   UNL     1       4.770   4.314  15.939  0.00  0.00    +0.000 A 
ENDBRANCH  20  21
ENDBRANCH   3  20
TORSDOF 7
ENDMDL
