MODEL 1
REMARK VINA RESULT:      -6.1      0.000      0.000
REMARK  Name = 
REMARK  3 active torsions:
REMARK  status: ('A' for Active; 'I' for Inactive)
REMARK    1  A    between atoms: C_4  and  C_5
REMARK    2  A    between atoms: C_5  and  C_6
REMARK    3  A    between atoms: C_6  and  N_7
REMARK                            x       y       z     vdW  Elec       q    Type
REMARK                         _______ _______ _______ _____ _____    ______ ____
ROOT
ATOM      1  C   UNL     1       3.523   5.631  17.635  0.00  0.00    +0.000 C 
ENDROOT
BRANCH   1   5
ATOM      2  C   UNL     1       0.776   3.336  20.053  0.00  0.00    +0.000 A 
ATOM      3  C   UNL     1       1.347   4.499  20.562  0.00  0.00    +0.000 A 
ATOM      4  C   UNL     1       2.226   5.247  19.777  0.00  0.00    +0.000 A 
ATOM      5  C   UNL     1       2.553   4.832  18.480  0.00  0.00    +0.000 A 
ATOM      6  C   UNL     1       1.964   3.663  17.975  0.00  0.00    +0.000 A 
ATOM      7  C   UNL     1       1.079   2.921  18.759  0.00  0.00    +0.000 A 
ENDBRANCH   1   5
BRANCH   1   8
ATOM      8  C   UNL     1       4.617   4.744  17.008  0.00  0.00    +0.000 C 
BRANCH   8   9
ATOM      9  N   UNL     1       5.762   5.486  16.439  0.00  0.00    +0.000 NA
ATOM     10  C   UNL     1       6.975   4.670  16.271  0.00  0.00    +0.000 C 
ATOM     11  C   UNL     1       7.607   4.633  17.647  0.00  0.00    +0.000 C 
ATOM     12  C   UNL     1       7.367   6.040  18.167  0.00  0.00    +0.000 C 
ATOM     13  C   UNL     1       6.176   6.563  17.365  0.00  0.00    +0.000 C 
ENDBRANCH   8   9
ENDBRANCH   1   8
TORSDOF 3
ENDMDL
MODEL 2
REMARK VINA RESULT:      -6.0      0.991      1.497
REMARK  Name = 
REMARK  3 active torsions:
REMARK  status: ('A' for Active; 'I' for Inactive)
REMARK    1  A    between atoms: C_4  and  C_5
REMARK    2  A    between atoms: C_5  and  C_6
REMARK    3  A    between atoms: C_6  and  N_7
REMARK                            x       y       z     vdW  Elec       q    Type
REMARK                         _______ _______ _______ _____ _____    ______ ____
ROOT
ATOM      1  C   UNL     1       3.399   6.202  18.113  0.00  0.00    +0.000 C 
ENDROOT
BRANCH   1   5
ATOM      2  C   UNL     1       0.832   3.154  19.782  0.00  0.00    +0.000 A 
ATOM      3  C   UNL     1       1.264   4.212  20.577  0.00  0.00    +0.000 A 
ATOM      4  C   UNL     1       2.085   5.203  20.035  0.00  0.00    +0.000 A 
ATOM      5  C   UNL     1       2.492   5.139  18.697  0.00  0.00    +0.000 A 
ATOM      6  C   UNL     1       2.044   4.073  17.903  0.00  0.00    +0.000 A 
ATOM      7  C   UNL     1       1.217   3.086  18.445  0.00  0.00    +0.000 A 
ENDBRANCH   1   5
BRANCH   1   8
ATOM      8  C   UNL     1       4.887   5.811  18.202  0.00  0.00    +0.000 C 
BRANCH   8   9
ATOM      9  N   UNL     1       5.742   6.391  17.143  0.00  0.00    +0.000 NA
ATOM     10  C   UNL     1       5.193   6.242  15.787  0.00  0.00    +0.000 C 
ATOM     11  C   UNL     1       5.549   4.827  15.381  0.00  0.00    +0.000 C 
ATOM     12  C   UNL     1       6.941   4.648  15.961  0.00  0.00    +0.000 C 
ATOM     13  C   UNL     1       7.036   5.674  17.091  0.00  0.00    +0.000 C 
ENDBRANCH   8   9
ENDBRANCH   1   8
TORSDOF 3
ENDMDL
MODEL 3
REMARK VINA RESULT:      -6.0      1.198      1.633
REMARK  Name = 
REMARK  3 active torsions:
REMARK  status: ('A' for Active; 'I' for Inactive)
REMARK    1  A    between atoms: C_4  and  C_5
REMARK    2  A    between atoms: C_5  and  C_6
REMARK    3  A    between atoms: C_6  and  N_7
REMARK                            x       y       z     vdW  Elec       q    Type
REMARK                         _______ _______ _______ _____ _____    ______ ____
ROOT
ATOM      1  C   UNL     1       3.846   5.245  18.212  0.00  0.00    +0.000 C 
ENDROOT
BRANCH   1   5
ATOM      2  C   UNL     1       0.677   2.866  19.934  0.00  0.00    +0.000 A 
ATOM      3  C   UNL     1       1.273   3.878  20.682  0.00  0.00    +0.000 A 
ATOM      4  C   UNL     1       2.290   4.654  20.122  0.00  0.00    +0.000 A 
ATOM      5  C   UNL     1       2.729   4.417  18.814  0.00  0.00    +0.000 A 
ATOM      6  C   UNL     1       2.115   3.401  18.067  0.00  0.00    +0.000 A 
ATOM      7  C   UNL     1       1.093   2.631  18.626  0.00  0.00    +0.000 A 
ENDBRANCH   1   5
BRANCH   1   8
ATOM      8  C   UNL     1       4.968   5.534  19.229  0.00  0.00    +0.000 C 
BRANCH   8   9
ATOM      9  N   UNL     1       6.254   4.864  18.936  0.00  0.00    +0.000 NA
ATOM     10  C   UNL     1       7.436   5.656  19.309  0.00  0.00    +0.000 C 
ATOM     11  C   UNL     1       7.618   6.635  18.168  0.00  0.00    +0.000 C 
ATOM     12  C   UNL     1       7.273   5.800  16.947  0.00  0.00    +0.000 C 
ATOM     13  C   UNL     1       6.397   4.665  17.477  0.00  0.00    +0.000 C 
ENDBRANCH   8   9
ENDBRANCH   1   8
TORSDOF 3
ENDMDL
MODEL 4
REMARK VINA RESULT:      -5.9      2.277      5.389
REMARK  Name = 
REMARK  3 active torsions:
REMARK  status: ('A' for Active; 'I' for Inactive)
REMARK    1  A    between atoms: C_4  and  C_5
REMARK    2  A    between atoms: C_5  and  C_6
REMARK    3  A    between atoms: C_6  and  N_7
REMARK                            x       y       z     vdW  Elec       q    Type
REMARK                         _______ _______ _______ _____ _____    ______ ____
ROOT
ATOM      1  C   UNL     1       4.013   2.833  17.920  0.00  0.00    +0.000 C 
ENDROOT
BRANCH   1   5
ATOM      2  C   UNL     1       5.081   6.590  16.073  0.00  0.00    +0.000 A 
ATOM      3  C   UNL     1       5.481   5.390  15.492  0.00  0.00    +0.000 A 
ATOM      4  C   UNL     1       5.128   4.176  16.082  0.00  0.00    +0.000 A 
ATOM      5  C   UNL     1       4.381   4.149  17.267  0.00  0.00    +0.000 A 
ATOM      6  C   UNL     1       3.976   5.365  17.839  0.00  0.00    +0.000 A 
ATOM      7  C   UNL     1       4.325   6.578  17.243  0.00  0.00    +0.000 A 
ENDBRANCH   1   5
BRANCH   1   8
ATOM      8  C   UNL     1       2.488   2.654  18.048  0.00  0.00    +0.000 C 
BRANCH   8   9
ATOM      9  N   UNL     1       2.025   2.240  19.391  0.00  0.00    +0.000 NA
ATOM     10  C   UNL     1       0.730   2.820  19.778  0.00  0.00    +0.000 C 
ATOM     11  C   UNL     1       1.062   4.218  20.257  0.00  0.00    +0.000 C 
ATOM     12  C   UNL     1       2.372   4.019  20.999  0.00  0.00    +0.000 C 
ATOM     13  C   UNL     1       2.965   2.734  20.421  0.00  0.00    +0.000 C 
ENDBRANCH   8   9
ENDBRANCH   1   8
TORSDOF 3
ENDMDL
MODEL 5
REMARK VINA RESULT:      -5.9      1.204      2.105
REMARK  Name = 
REMARK  3 active torsions:
REMARK  status: ('A' for Active; 'I' for Inactive)
REMARK    1  A    between atoms: C_4  and  C_5
REMARK    2  A    between atoms: C_5  and  C_6
REMARK    3  A    between atoms: C_6  and  N_7
REMARK                            x       y       z     vdW  Elec       q    Type
REMARK                         _______ _______ _______ _____ _____    ______ ____
ROOT
ATOM      1  C   UNL     1       3.861   5.427  18.271  0.00  0.00    +0.000 C 
ENDROOT
BRANCH   1   5
ATOM      2  C   UNL     1       0.731   2.796  19.667  0.00  0.00    +0.000 A 
ATOM      3  C   UNL     1       1.386   2.524  18.469  0.00  0.00    +0.000 A 
ATOM      4  C   UNL     1       2.405   3.368  18.023  0.00  0.00    +0.000 A 
ATOM      5  C   UNL     1       2.769   4.499  18.764  0.00  0.00    +0.000 A 
ATOM      6  C   UNL     1       2.108   4.758  19.973  0.00  0.00    +0.000 A 
ATOM      7  C   UNL     1       1.094   3.909  20.421  0.00  0.00    +0.000 A 
ENDBRANCH   1   5
BRANCH   1   8
ATOM      8  C   UNL     1       4.997   5.585  19.300  0.00  0.00    +0.000 C 
BRANCH   8   9
ATOM      9  N   UNL     1       6.257   4.898  18.939  0.00  0.00    +0.000 NA
ATOM     10  C   UNL     1       7.458   5.730  19.108  0.00  0.00    +0.000 C 
ATOM     11  C   UNL     1       7.504   6.595  17.865  0.00  0.00    +0.000 C 
ATOM     12  C   UNL     1       7.047   5.644  16.773  0.00  0.00    +0.000 C 
ATOM     13  C   UNL     1       6.251   4.560  17.498  0.00  0.00    +0.000 C 
ENDBRANCH   8   9
ENDBRANCH   1   8
TORSDOF 3
ENDMDL
MODEL 6
REMARK VINA RESULT:      -5.9      1.028      1.999
REMARK  Name = 
REMARK  3 active torsions:
REMARK  status: ('A' for Active; 'I' for Inactive)
REMARK    1  A    between atoms: C_4  and  C_5
REMARK    2  A    between atoms: C_5  and  C_6
REMARK    3  A    between atoms: C_6  and  N_7
REMARK                            x       y       z     vdW  Elec       q    Type
REMARK                         _______ _______ _______ _____ _____    ______ ____
ROOT
ATOM      1  C   UNL     1       3.061   6.623  18.209  0.00  0.00    +0.000 C 
ENDROOT
BRANCH   1   5
ATOM      2  C   UNL     1       0.941   3.213  19.806  0.00  0.00    +0.000 A 
ATOM      3  C   UNL     1       1.187   3.302  18.439  0.00  0.00    +0.000 A 
ATOM      4  C   UNL     1       1.881   4.398  17.924  0.00  0.00    +0.000 A 
ATOM      5  C   UNL     1       2.325   5.423  18.769  0.00  0.00    +0.000 A 
ATOM      6  C   UNL     1       2.079   5.318  20.146  0.00  0.00    +0.000 A 
ATOM      7  C   UNL     1       1.391   4.217  20.660  0.00  0.00    +0.000 A 
ENDBRANCH   1   5
BRANCH   1   8
ATOM      8  C   UNL     1       4.437   6.242  17.629  0.00  0.00    +0.000 C 
BRANCH   8   9
ATOM      9  N   UNL     1       5.067   5.061  18.260  0.00  0.00    +0.000 NA
ATOM     10  C   UNL     1       6.083   5.397  19.269  0.00  0.00    +0.000 C 
ATOM     11  C   UNL     1       7.331   5.711  18.470  0.00  0.00    +0.000 C 
ATOM     12  C   UNL     1       7.282   4.686  17.350  0.00  0.00    +0.000 C 
ATOM     13  C   UNL     1       5.811   4.284  17.243  0.00  0.00    +0.000 C 
ENDBRANCH   8   9
ENDBRANCH   1   8
TORSDOF 3
ENDMDL
MODEL 7
REMARK VINA RESULT:      -5.9      1.148      2.151
REMARK  Name = 
REMARK  3 active torsions:
REMARK  status: ('A' for Active; 'I' for Inactive)
REMARK    1  A    between atoms: C_4  and  C_5
REMARK    2  A    between atoms: C_5  and  C_6
REMARK    3  A    between atoms: C_6  and  N_7
REMARK                            x       y       z     vdW  Elec       q    Type
REMARK                         _______ _______ _______ _____ _____    ______ ____
ROOT
ATOM      1  C   UNL     1       4.043   5.720  19.319  0.00  0.00    +0.000 C 
ENDROOT
BRANCH   1   5
ATOM      2  C   UNL     1       0.757   2.919  19.492  0.00  0.00    +0.000 A 
ATOM      3  C   UNL     1       1.437   3.122  18.295  0.00  0.00    +0.000 A 
ATOM      4  C   UNL     1       2.506   4.018  18.241  0.00  0.00    +0.000 A 
ATOM      5  C   UNL     1       2.896   4.731  19.381  0.00  0.00    +0.000 A 
ATOM      6  C   UNL     1       2.209   4.512  20.584  0.00  0.00    +0.000 A 
ATOM      7  C   UNL     1       1.146   3.609  20.638  0.00  0.00    +0.000 A 
ENDBRANCH   1   5
BRANCH   1   8
ATOM      8  C   UNL     1       5.386   5.032  19.007  0.00  0.00    +0.000 C 
BRANCH   8   9
ATOM      9  N   UNL     1       6.227   5.741  18.017  0.00  0.00    +0.000 NA
ATOM     10  C   UNL     1       5.475   6.267  16.867  0.00  0.00    +0.000 C 
ATOM     11  C   UNL     1       5.292   5.076  15.949  0.00  0.00    +0.000 C 
ATOM     12  C   UNL     1       6.618   4.346  16.074  0.00  0.00    +0.000 C 
ATOM     13  C   UNL     1       7.197   4.800  17.414  0.00  0.00    +0.000 C 
ENDBRANCH   8   9
ENDBRANCH   1   8
TORSDOF 3
ENDMDL
MODEL 8
REMARK VINA RESULT:      -5.9      0.946      2.089
REMARK  Name = 
REMARK  3 active torsions:
REMARK  status: ('A' for Active; 'I' for Inactive)
REMARK    1  A    between atoms: C_4  and  C_5
REMARK    2  A    between atoms: C_5  and  C_6
REMARK    3  A    between atoms: C_6  and  N_7
REMARK                            x       y       z     vdW  Elec       q    Type
REMARK                         _______ _______ _______ _____ _____    ______ ____
ROOT
ATOM      1  C   UNL     1       3.531   5.755  17.593  0.00  0.00    +0.000 C 
ENDROOT
BRANCH   1   5
ATOM      2  C   UNL     1       0.999   3.658  20.396  0.00  0.00    +0.000 A 
ATOM      3  C   UNL     1       1.003   3.292  19.053  0.00  0.00    +0.000 A 
ATOM      4  C   UNL     1       1.829   3.962  18.149  0.00  0.00    +0.000 A 
ATOM      5  C   UNL     1       2.649   5.014  18.576  0.00  0.00    +0.000 A 
ATOM      6  C   UNL     1       2.644   5.367  19.934  0.00  0.00    +0.000 A 
ATOM      7  C   UNL     1       1.822   4.691  20.838  0.00  0.00    +0.000 A 
ENDBRANCH   1   5
BRANCH   1   8
ATOM      8  C   UNL     1       5.023   5.664  17.967  0.00  0.00    +0.000 C 
BRANCH   8   9
ATOM      9  N   UNL     1       5.693   4.417  17.537  0.00  0.00    +0.000 NA
ATOM     10  C   UNL     1       7.104   4.597  17.166  0.00  0.00    +0.000 C 
ATOM     11  C   UNL     1       7.065   5.133  15.750  0.00  0.00    +0.000 C 
ATOM     12  C   UNL     1       5.920   4.355  15.125  0.00  0.00    +0.000 C 
ATOM     13  C   UNL     1       5.057   3.903  16.303  0.00  0.00    +0.000 C 
ENDBRANCH   8   9
ENDBRANCH   1   8
TORSDOF 3
ENDMDL
MODEL 9
REMARK VINA RESULT:      -5.9      1.054      1.648
REMARK  Name = 
REMARK  3 active torsions:
REMARK  status: ('A' for Active; 'I' for Inactive)
REMARK    1  A    between atoms: C_4  and  C_5
REMARK    2  A    between atoms: C_5  and  C_6
REMARK    3  A    between atoms: C_6  and  N_7
REMARK                            x       y       z     vdW  Elec       q    Type
REMARK                         _______ _______ _______ _____ _____    ______ ____
ROOT
ATOM      1  C   UNL     1       3.358   5.511  17.885  0.00  0.00    +0.000 C 
ENDROOT
BRANCH   1   5
ATOM      2  C   UNL     1       1.049   3.143  20.664  0.00  0.00    +0.000 A 
ATOM      3  C   UNL     1       1.937   4.103  21.139  0.00  0.00    +0.000 A 
ATOM      4  C   UNL     1       2.676   4.877  20.241  0.00  0.00    +0.000 A 
ATOM      5  C   UNL     1       2.542   4.687  18.860  0.00  0.00    +0.000 A 
ATOM      6  C   UNL     1       1.637   3.722  18.393  0.00  0.00    +0.000 A 
ATOM      7  C   UNL     1       0.894   2.956  19.293  0.00  0.00    +0.000 A 
ENDBRANCH   1   5
BRANCH   1   8
ATOM      8  C   UNL     1       4.865   5.468  18.205  0.00  0.00    +0.000 C 
BRANCH   8   9
ATOM      9  N   UNL     1       5.593   4.333  17.595  0.00  0.00    +0.000 NA
ATOM     10  C   UNL     1       6.983   4.646  17.230  0.00  0.00    +0.000 C 
ATOM     11  C   UNL     1       6.879   5.369  15.903  0.00  0.00    +0.000 C 
ATOM     12  C   UNL     1       5.765   4.619  15.195  0.00  0.00    +0.000 C 
ATOM     13  C   UNL     1       4.957   3.958  16.312  0.00  0.00    +0.000 C 
ENDBRANCH   8   9
ENDBRANCH   1   8
TORSDOF 3
ENDMDL
