MODEL 1
REMARK VINA RESULT:      -5.6      0.000      0.000
REMARK  Name = 
REMARK  11 active torsions:
REMARK  status: ('A' for Active; 'I' for Inactive)
REMARK    1  A    between atoms: C_1  and  C_2
REMARK    2  A    between atoms: C_2  and  O_3
REMARK    3  A    between atoms: O_3  and  C_4
REMARK    4  A    between atoms: C_4  and  C_6
REMARK    5  A    between atoms: C_7  and  C_8
REMARK    6  A    between atoms: N_9  and  C_10
REMARK    7  A    between atoms: C_11  and  S_12
REMARK    8  A    between atoms: C_14  and  C_15
REMARK    9  A    between atoms: C_16  and  O_17
REMARK   10  A    between atoms: O_17  and  C_18
REMARK   11  A    between atoms: C_18  and  C_19
REMARK                            x       y       z     vdW  Elec       q    Type
REMARK                         _______ _______ _______ _____ _____    ______ ____
ROOT
ATOM      1  C   UNL     1      -0.328  13.783  20.156  0.00  0.00    +0.000 C 
ATOM      2  C   UNL     1       0.267  14.856  19.574  0.00  0.00    +0.000 C 
ATOM      3  C   UNL     1      -0.360  15.668  18.457  0.00  0.00    +0.000 C 
ATOM      4  N   UNL     1       1.554  15.261  20.023  0.00  0.00    +0.000 N 
ATOM      5  C   UNL     1       2.131  16.553  19.630  0.00  0.00    +0.000 C 
ATOM      6  C   UNL     1       2.236  14.441  20.926  0.00  0.00    +0.000 C 
ATOM      7  N   UNL     1       1.763  13.426  21.551  0.00  0.00    +0.000 NA
ATOM      8  C   UNL     1       0.363  13.036  21.290  0.00  0.00    +0.000 C 
ENDROOT
BRANCH   8   9
ATOM      9  C   UNL     1       0.294  11.499  21.180  0.00  0.00    +0.000 A 
ATOM     10  C   UNL     1      -0.338  10.768  22.219  0.00  0.00    +0.000 A 
ATOM     11  C   UNL     1      -0.373   9.377  22.166  0.00  0.00    +0.000 A 
ATOM     12  C   UNL     1       0.215   8.695  21.102  0.00  0.00    +0.000 A 
ATOM     13  C   UNL     1       0.846   9.383  20.062  0.00  0.00    +0.000 A 
ATOM     14  C   UNL     1       1.458   8.651  19.028  0.00  0.00    +0.000 A 
ATOM     15  C   UNL     1       2.120   9.291  17.984  0.00  0.00    +0.000 A 
ATOM     16  C   UNL     1       2.164  10.673  17.952  0.00  0.00    +0.000 A 
ATOM     17  C   UNL     1       1.547  11.411  18.967  0.00  0.00    +0.000 A 
ATOM     18  C   UNL     1       0.885  10.801  20.067  0.00  0.00    +0.000 A 
BRANCH  10  19
ATOM     19  O   UNL     1      -0.864  11.501  23.251  0.00  0.00    +0.000 OA
BRANCH  19  20
ATOM     20  C   UNL     1      -2.277  11.672  23.308  0.00  0.00    +0.000 C 
ATOM     21  C   UNL     1      -2.557  13.112  23.697  0.00  0.00    +0.000 C 
ENDBRANCH  19  20
ENDBRANCH  10  19
ENDBRANCH   8   9
BRANCH   1  22
ATOM     22  C   UNL     1      -1.676  13.293  19.753  0.00  0.00    +0.000 C 
ATOM     23  O   UNL     1      -2.715  13.500  20.361  0.00  0.00    +0.000 OA
BRANCH  22  24
ATOM     24  O   UNL     1      -1.602  12.562  18.609  0.00  0.00    +0.000 OA
BRANCH  24  26
ATOM     25  C   UNL     1      -1.801  10.302  17.635  0.00  0.00    +0.000 C 
ATOM     26  C   UNL     1      -2.396  11.367  18.544  0.00  0.00    +0.000 C 
ENDBRANCH  24  26
ENDBRANCH  22  24
ENDBRANCH   1  22
BRANCH   6  27
ATOM     27  S   UNL     1       3.938  14.740  21.323  0.00  0.00    +0.000 S 
ATOM     28  H   UNL     1       3.856  16.041  21.603  0.00  0.00    +0.000 HD
ENDBRANCH   6  27
TORSDOF 7
ENDMDL
MODEL 2
REMARK VINA RESULT:      -5.4      2.173      4.820
REMARK  Name = 
REMARK  11 active torsions:
REMARK  status: ('A' for Active; 'I' for Inactive)
REMARK    1  A    between atoms: C_1  and  C_2
REMARK    2  A    between atoms: C_2  and  O_3
REMARK    3  A    between atoms: O_3  and  C_4
REMARK    4  A    between atoms: C_4  and  C_6
REMARK    5  A    between atoms: C_7  and  C_8
REMARK    6  A    between atoms: N_9  and  C_10
REMARK    7  A    between atoms: C_11  and  S_12
REMARK    8  A    between atoms: C_14  and  C_15
REMARK    9  A    between atoms: C_16  and  O_17
REMARK   10  A    between atoms: O_17  and  C_18
REMARK   11  A    between atoms: C_18  and  C_19
REMARK                            x       y       z     vdW  Elec       q    Type
REMARK                         _______ _______ _______ _____ _____    ______ ____
ROOT
ATOM      1  C   UNL     1      -1.009  13.160  22.299  0.00  0.00    +0.000 C 
ATOM      2  C   UNL     1      -1.254  14.318  22.965  0.00  0.00    +0.000 C 
ATOM      3  C   UNL     1      -1.822  14.382  24.370  0.00  0.00    +0.000 C 
ATOM      4  N   UNL     1      -0.969  15.556  22.327  0.00  0.00    +0.000 N 
ATOM      5  C   UNL     1      -0.956  16.819  23.076  0.00  0.00    +0.000 C 
ATOM      6  C   UNL     1      -0.608  15.546  20.977  0.00  0.00    +0.000 C 
ATOM      7  N   UNL     1      -0.329  14.517  20.264  0.00  0.00    +0.000 NA
ATOM      8  C   UNL     1      -0.416  13.185  20.897  0.00  0.00    +0.000 C 
ENDROOT
BRANCH   8   9
ATOM      9  C   UNL     1      -1.081  12.212  19.902  0.00  0.00    +0.000 A 
ATOM     10  C   UNL     1      -0.264  11.291  19.198  0.00  0.00    +0.000 A 
ATOM     11  C   UNL     1      -0.834  10.433  18.261  0.00  0.00    +0.000 A 
ATOM     12  C   UNL     1      -2.203  10.477  18.004  0.00  0.00    +0.000 A 
ATOM     13  C   UNL     1      -3.038  11.372  18.678  0.00  0.00    +0.000 A 
ATOM     14  C   UNL     1      -4.407  11.405  18.359  0.00  0.00    +0.000 A 
ATOM     15  C   UNL     1      -5.274  12.296  18.986  0.00  0.00    +0.000 A 
ATOM     16  C   UNL     1      -4.784  13.153  19.955  0.00  0.00    +0.000 A 
ATOM     17  C   UNL     1      -3.426  13.119  20.290  0.00  0.00    +0.000 A 
ATOM     18  C   UNL     1      -2.500  12.248  19.657  0.00  0.00    +0.000 A 
BRANCH  10  19
ATOM     19  O   UNL     1       1.078  11.327  19.475  0.00  0.00    +0.000 OA
BRANCH  19  20
ATOM     20  C   UNL     1       1.989  11.492  18.393  0.00  0.00    +0.000 C 
ATOM     21  C   UNL     1       2.318  12.970  18.281  0.00  0.00    +0.000 C 
ENDBRANCH  19  20
ENDBRANCH  10  19
ENDBRANCH   8   9
BRANCH   1  22
ATOM     22  C   UNL     1      -1.273  11.820  22.893  0.00  0.00    +0.000 C 
ATOM     23  O   UNL     1      -2.352  11.434  23.318  0.00  0.00    +0.000 OA
BRANCH  22  24
ATOM     24  O   UNL     1      -0.139  11.071  22.917  0.00  0.00    +0.000 OA
BRANCH  24  26
ATOM     25  C   UNL     1      -0.327   8.814  21.931  0.00  0.00    +0.000 C 
ATOM     26  C   UNL     1      -0.287   9.668  23.189  0.00  0.00    +0.000 C 
ENDBRANCH  24  26
ENDBRANCH  22  24
ENDBRANCH   1  22
BRANCH   6  27
ATOM     27  S   UNL     1      -0.498  17.054  20.051  0.00  0.00    +0.000 S 
ATOM     28  H   UNL     1      -0.776  16.569  18.840  0.00  0.00    +0.000 HD
ENDBRANCH   6  27
TORSDOF 7
ENDMDL
MODEL 3
REMARK VINA RESULT:      -5.3      2.571      3.499
REMARK  Name = 
REMARK  11 active torsions:
REMARK  status: ('A' for Active; 'I' for Inactive)
REMARK    1  A    between atoms: C_1  and  C_2
REMARK    2  A    between atoms: C_2  and  O_3
REMARK    3  A    between atoms: O_3  and  C_4
REMARK    4  A    between atoms: C_4  and  C_6
REMARK    5  A    between atoms: C_7  and  C_8
REMARK    6  A    between atoms: N_9  and  C_10
REMARK    7  A    between atoms: C_11  and  S_12
REMARK    8  A    between atoms: C_14  and  C_15
REMARK    9  A    between atoms: C_16  and  O_17
REMARK   10  A    between atoms: O_17  and  C_18
REMARK   11  A    between atoms: C_18  and  C_19
REMARK                            x       y       z     vdW  Elec       q    Type
REMARK                         _______ _______ _______ _____ _____    ______ ____
ROOT
ATOM      1  C   UNL     1       0.250  13.387  20.352  0.00  0.00    +0.000 C 
ATOM      2  C   UNL     1      -0.486  14.486  20.660  0.00  0.00    +0.000 C 
ATOM      3  C   UNL     1       0.109  15.800  21.128  0.00  0.00    +0.000 C 
ATOM      4  N   UNL     1      -1.902  14.424  20.543  0.00  0.00    +0.000 N 
ATOM      5  C   UNL     1      -2.730  15.635  20.599  0.00  0.00    +0.000 C 
ATOM      6  C   UNL     1      -2.499  13.187  20.282  0.00  0.00    +0.000 C 
ATOM      7  N   UNL     1      -1.902  12.100  19.956  0.00  0.00    +0.000 NA
ATOM      8  C   UNL     1      -0.428  12.112  19.868  0.00  0.00    +0.000 C 
ENDROOT
BRANCH   8   9
ATOM      9  C   UNL     1       0.114  10.817  20.505  0.00  0.00    +0.000 A 
ATOM     10  C   UNL     1      -0.023  10.635  21.906  0.00  0.00    +0.000 A 
ATOM     11  C   UNL     1       0.497   9.494  22.512  0.00  0.00    +0.000 A 
ATOM     12  C   UNL     1       1.160   8.531  21.752  0.00  0.00    +0.000 A 
ATOM     13  C   UNL     1       1.314   8.677  20.371  0.00  0.00    +0.000 A 
ATOM     14  C   UNL     1       2.021   7.697  19.652  0.00  0.00    +0.000 A 
ATOM     15  C   UNL     1       2.221   7.811  18.279  0.00  0.00    +0.000 A 
ATOM     16  C   UNL     1       1.700   8.900  17.605  0.00  0.00    +0.000 A 
ATOM     17  C   UNL     1       0.983   9.874  18.307  0.00  0.00    +0.000 A 
ATOM     18  C   UNL     1       0.778   9.814  19.712  0.00  0.00    +0.000 A 
BRANCH  10  19
ATOM     19  O   UNL     1      -0.654  11.638  22.594  0.00  0.00    +0.000 OA
BRANCH  19  20
ATOM     20  C   UNL     1      -1.844  11.323  23.310  0.00  0.00    +0.000 C 
ATOM     21  C   UNL     1      -2.538  12.627  23.659  0.00  0.00    +0.000 C 
ENDBRANCH  19  20
ENDBRANCH  10  19
ENDBRANCH   8   9
BRANCH   1  22
ATOM     22  C   UNL     1       1.737  13.366  20.441  0.00  0.00    +0.000 C 
ATOM     23  O   UNL     1       2.384  13.345  21.478  0.00  0.00    +0.000 OA
BRANCH  22  24
ATOM     24  O   UNL     1       2.295  13.387  19.202  0.00  0.00    +0.000 OA
BRANCH  24  26
ATOM     25  C   UNL     1       4.250  14.580  18.279  0.00  0.00    +0.000 C 
ATOM     26  C   UNL     1       2.800  14.647  18.732  0.00  0.00    +0.000 C 
ENDBRANCH  24  26
ENDBRANCH  22  24
ENDBRANCH   1  22
BRANCH   6  27
ATOM     27  S   UNL     1      -4.257  12.982  20.386  0.00  0.00    +0.000 S 
ATOM     28  H   UNL     1      -4.531  13.997  21.207  0.00  0.00    +0.000 HD
ENDBRANCH   6  27
TORSDOF 7
ENDMDL
MODEL 4
REMARK VINA RESULT:      -5.2      2.756      3.551
REMARK  Name = 
REMARK  11 active torsions:
REMARK  status: ('A' for Active; 'I' for Inactive)
REMARK    1  A    between atoms: C_1  and  C_2
REMARK    2  A    between atoms: C_2  and  O_3
REMARK    3  A    between atoms: O_3  and  C_4
REMARK    4  A    between atoms: C_4  and  C_6
REMARK    5  A    between atoms: C_7  and  C_8
REMARK    6  A    between atoms: N_9  and  C_10
REMARK    7  A    between atoms: C_11  and  S_12
REMARK    8  A    between atoms: C_14  and  C_15
REMARK    9  A    between atoms: C_16  and  O_17
REMARK   10  A    between atoms: O_17  and  C_18
REMARK   11  A    between atoms: C_18  and  C_19
REMARK                            x       y       z     vdW  Elec       q    Type
REMARK                         _______ _______ _______ _____ _____    ______ ____
ROOT
ATOM      1  C   UNL     1      -0.745  13.884  20.745  0.00  0.00    +0.000 C 
ATOM      2  C   UNL     1      -1.628  14.885  20.994  0.00  0.00    +0.000 C 
ATOM      3  C   UNL     1      -1.233  16.249  21.525  0.00  0.00    +0.000 C 
ATOM      4  N   UNL     1      -3.011  14.663  20.749  0.00  0.00    +0.000 N 
ATOM      5  C   UNL     1      -3.976  15.770  20.740  0.00  0.00    +0.000 C 
ATOM      6  C   UNL     1      -3.435  13.371  20.424  0.00  0.00    +0.000 C 
ATOM      7  N   UNL     1      -2.689  12.366  20.144  0.00  0.00    +0.000 NA
ATOM      8  C   UNL     1      -1.224  12.549  20.190  0.00  0.00    +0.000 C 
ENDROOT
BRANCH   8   9
ATOM      9  C   UNL     1      -0.595  11.312  20.862  0.00  0.00    +0.000 A 
ATOM     10  C   UNL     1      -0.756  11.139  22.261  0.00  0.00    +0.000 A 
ATOM     11  C   UNL     1      -0.159  10.054  22.899  0.00  0.00    +0.000 A 
ATOM     12  C   UNL     1       0.602   9.139  22.173  0.00  0.00    +0.000 A 
ATOM     13  C   UNL     1       0.782   9.279  20.795  0.00  0.00    +0.000 A 
ATOM     14  C   UNL     1       1.588   8.351  20.111  0.00  0.00    +0.000 A 
ATOM     15  C   UNL     1       1.816   8.462  18.742  0.00  0.00    +0.000 A 
ATOM     16  C   UNL     1       1.225   9.495  18.036  0.00  0.00    +0.000 A 
ATOM     17  C   UNL     1       0.410  10.415  18.704  0.00  0.00    +0.000 A 
ATOM     18  C   UNL     1       0.172  10.357  20.103  0.00  0.00    +0.000 A 
BRANCH  10  19
ATOM     19  O   UNL     1      -1.487  12.096  22.916  0.00  0.00    +0.000 OA
BRANCH  19  20
ATOM     20  C   UNL     1      -2.690  11.700  23.567  0.00  0.00    +0.000 C 
ATOM     21  C   UNL     1      -3.445  12.957  23.957  0.00  0.00    +0.000 C 
ENDBRANCH  19  20
ENDBRANCH  10  19
ENDBRANCH   8   9
BRANCH   1  22
ATOM     22  C   UNL     1       0.720  14.031  20.967  0.00  0.00    +0.000 C 
ATOM     23  O   UNL     1       1.297  13.848  22.029  0.00  0.00    +0.000 OA
BRANCH  22  24
ATOM     24  O   UNL     1       1.346  14.416  19.824  0.00  0.00    +0.000 OA
BRANCH  24  26
ATOM     25  C   UNL     1       2.710  13.062  18.271  0.00  0.00    +0.000 C 
ATOM     26  C   UNL     1       2.645  13.856  19.568  0.00  0.00    +0.000 C 
ENDBRANCH  24  26
ENDBRANCH  22  24
ENDBRANCH   1  22
BRANCH   6  27
ATOM     27  S   UNL     1      -5.159  12.964  20.367  0.00  0.00    +0.000 S 
ATOM     28  H   UNL     1      -5.635  14.150  19.987  0.00  0.00    +0.000 HD
ENDBRANCH   6  27
TORSDOF 7
ENDMDL
MODEL 5
REMARK VINA RESULT:      -5.2      2.051      3.692
REMARK  Name = 
REMARK  11 active torsions:
REMARK  status: ('A' for Active; 'I' for Inactive)
REMARK    1  A    between atoms: C_1  and  C_2
REMARK    2  A    between atoms: C_2  and  O_3
REMARK    3  A    between atoms: O_3  and  C_4
REMARK    4  A    between atoms: C_4  and  C_6
REMARK    5  A    between atoms: C_7  and  C_8
REMARK    6  A    between atoms: N_9  and  C_10
REMARK    7  A    between atoms: C_11  and  S_12
REMARK    8  A    between atoms: C_14  and  C_15
REMARK    9  A    between atoms: C_16  and  O_17
REMARK   10  A    between atoms: O_17  and  C_18
REMARK   11  A    between atoms: C_18  and  C_19
REMARK                            x       y       z     vdW  Elec       q    Type
REMARK                         _______ _______ _______ _____ _____    ______ ____
ROOT
ATOM      1  C   UNL     1      -1.078  13.266  22.356  0.00  0.00    +0.000 C 
ATOM      2  C   UNL     1      -1.316  14.394  23.073  0.00  0.00    +0.000 C 
ATOM      3  C   UNL     1      -1.864  14.399  24.487  0.00  0.00    +0.000 C 
ATOM      4  N   UNL     1      -1.041  15.659  22.484  0.00  0.00    +0.000 N 
ATOM      5  C   UNL     1      -1.020  16.890  23.284  0.00  0.00    +0.000 C 
ATOM      6  C   UNL     1      -0.699  15.706  21.129  0.00  0.00    +0.000 C 
ATOM      7  N   UNL     1      -0.428  14.708  20.370  0.00  0.00    +0.000 NA
ATOM      8  C   UNL     1      -0.505  13.351  20.948  0.00  0.00    +0.000 C 
ENDROOT
BRANCH   8   9
ATOM      9  C   UNL     1      -1.182  12.418  19.923  0.00  0.00    +0.000 A 
ATOM     10  C   UNL     1      -2.578  12.541  19.705  0.00  0.00    +0.000 A 
ATOM     11  C   UNL     1      -3.220  11.681  18.818  0.00  0.00    +0.000 A 
ATOM     12  C   UNL     1      -2.502  10.693  18.147  0.00  0.00    +0.000 A 
ATOM     13  C   UNL     1      -1.126  10.543  18.337  0.00  0.00    +0.000 A 
ATOM     14  C   UNL     1      -0.450   9.508  17.666  0.00  0.00    +0.000 A 
ATOM     15  C   UNL     1       0.916   9.303  17.843  0.00  0.00    +0.000 A 
ATOM     16  C   UNL     1       1.627  10.144  18.681  0.00  0.00    +0.000 A 
ATOM     17  C   UNL     1       0.967  11.184  19.343  0.00  0.00    +0.000 A 
ATOM     18  C   UNL     1      -0.429  11.413  19.215  0.00  0.00    +0.000 A 
BRANCH  10  19
ATOM     19  O   UNL     1      -3.226  13.511  20.425  0.00  0.00    +0.000 OA
BRANCH  19  20
ATOM     20  C   UNL     1      -4.618  13.349  20.678  0.00  0.00    +0.000 C 
ATOM     21  C   UNL     1      -4.874  13.710  22.130  0.00  0.00    +0.000 C 
ENDBRANCH  19  20
ENDBRANCH  10  19
ENDBRANCH   8   9
BRANCH   1  22
ATOM     22  C   UNL     1      -1.331  11.902  22.897  0.00  0.00    +0.000 C 
ATOM     23  O   UNL     1      -2.416  11.478  23.268  0.00  0.00    +0.000 OA
BRANCH  22  24
ATOM     24  O   UNL     1      -0.182  11.178  22.941  0.00  0.00    +0.000 OA
BRANCH  24  26
ATOM     25  C   UNL     1      -0.272   8.924  21.935  0.00  0.00    +0.000 C 
ATOM     26  C   UNL     1      -0.303   9.770  23.199  0.00  0.00    +0.000 C 
ENDBRANCH  24  26
ENDBRANCH  22  24
ENDBRANCH   1  22
BRANCH   6  27
ATOM     27  S   UNL     1      -0.604  17.251  20.265  0.00  0.00    +0.000 S 
ATOM     28  H   UNL     1      -1.555  17.912  20.927  0.00  0.00    +0.000 HD
ENDBRANCH   6  27
TORSDOF 7
ENDMDL
MODEL 6
REMARK VINA RESULT:      -5.1      3.062      4.953
REMARK  Name = 
REMARK  11 active torsions:
REMARK  status: ('A' for Active; 'I' for Inactive)
REMARK    1  A    between atoms: C_1  and  C_2
REMARK    2  A    between atoms: C_2  and  O_3
REMARK    3  A    between atoms: O_3  and  C_4
REMARK    4  A    between atoms: C_4  and  C_6
REMARK    5  A    between atoms: C_7  and  C_8
REMARK    6  A    between atoms: N_9  and  C_10
REMARK    7  A    between atoms: C_11  and  S_12
REMARK    8  A    between atoms: C_14  and  C_15
REMARK    9  A    between atoms: C_16  and  O_17
REMARK   10  A    between atoms: O_17  and  C_18
REMARK   11  A    between atoms: C_18  and  C_19
REMARK                            x       y       z     vdW  Elec       q    Type
REMARK                         _______ _______ _______ _____ _____    ______ ____
ROOT
ATOM      1  C   UNL     1      -1.877  14.246  20.332  0.00  0.00    +0.000 C 
ATOM      2  C   UNL     1      -2.521  15.002  21.259  0.00  0.00    +0.000 C 
ATOM      3  C   UNL     1      -1.946  16.269  21.864  0.00  0.00    +0.000 C 
ATOM      4  N   UNL     1      -3.811  14.602  21.703  0.00  0.00    +0.000 N 
ATOM      5  C   UNL     1      -4.664  15.502  22.490  0.00  0.00    +0.000 C 
ATOM      6  C   UNL     1      -4.301  13.357  21.300  0.00  0.00    +0.000 C 
ATOM      7  N   UNL     1      -3.790  12.579  20.418  0.00  0.00    +0.000 NA
ATOM      8  C   UNL     1      -2.537  12.999  19.759  0.00  0.00    +0.000 C 
ENDROOT
BRANCH   8   9
ATOM      9  C   UNL     1      -1.606  11.775  19.649  0.00  0.00    +0.000 A 
ATOM     10  C   UNL     1      -1.284  11.274  18.361  0.00  0.00    +0.000 A 
ATOM     11  C   UNL     1      -0.482  10.142  18.237  0.00  0.00    +0.000 A 
ATOM     12  C   UNL     1       0.002   9.492  19.370  0.00  0.00    +0.000 A 
ATOM     13  C   UNL     1      -0.295   9.956  20.654  0.00  0.00    +0.000 A 
ATOM     14  C   UNL     1       0.186   9.246  21.769  0.00  0.00    +0.000 A 
ATOM     15  C   UNL     1      -0.104   9.656  23.067  0.00  0.00    +0.000 A 
ATOM     16  C   UNL     1      -0.865  10.794  23.267  0.00  0.00    +0.000 A 
ATOM     17  C   UNL     1      -1.337  11.516  22.166  0.00  0.00    +0.000 A 
ATOM     18  C   UNL     1      -1.090  11.119  20.824  0.00  0.00    +0.000 A 
BRANCH  10  19
ATOM     19  O   UNL     1      -1.824  11.942  17.293  0.00  0.00    +0.000 OA
BRANCH  19  20
ATOM     20  C   UNL     1      -2.590  11.202  16.348  0.00  0.00    +0.000 C 
ATOM     21  C   UNL     1      -4.038  11.222  16.802  0.00  0.00    +0.000 C 
ENDBRANCH  19  20
ENDBRANCH  10  19
ENDBRANCH   8   9
BRANCH   1  22
ATOM     22  C   UNL     1      -0.528  14.594  19.808  0.00  0.00    +0.000 C 
ATOM     23  O   UNL     1      -0.302  15.127  18.732  0.00  0.00    +0.000 OA
BRANCH  22  24
ATOM     24  O   UNL     1       0.442  14.224  20.686  0.00  0.00    +0.000 OA
BRANCH  24  26
ATOM     25  C   UNL     1       2.042  12.712  19.567  0.00  0.00    +0.000 C 
ATOM     26  C   UNL     1       1.775  14.083  20.169  0.00  0.00    +0.000 C 
ENDBRANCH  24  26
ENDBRANCH  22  24
ENDBRANCH   1  22
BRANCH   6  27
ATOM     27  S   UNL     1      -5.772  12.679  22.021  0.00  0.00    +0.000 S 
ATOM     28  H   UNL     1      -6.663  13.157  21.151  0.00  0.00    +0.000 HD
ENDBRANCH   6  27
TORSDOF 7
ENDMDL
MODEL 7
REMARK VINA RESULT:      -5.0      3.063      5.058
REMARK  Name = 
REMARK  11 active torsions:
REMARK  status: ('A' for Active; 'I' for Inactive)
REMARK    1  A    between atoms: C_1  and  C_2
REMARK    2  A    between atoms: C_2  and  O_3
REMARK    3  A    between atoms: O_3  and  C_4
REMARK    4  A    between atoms: C_4  and  C_6
REMARK    5  A    between atoms: C_7  and  C_8
REMARK    6  A    between atoms: N_9  and  C_10
REMARK    7  A    between atoms: C_11  and  S_12
REMARK    8  A    between atoms: C_14  and  C_15
REMARK    9  A    between atoms: C_16  and  O_17
REMARK   10  A    between atoms: O_17  and  C_18
REMARK   11  A    between atoms: C_18  and  C_19
REMARK                            x       y       z     vdW  Elec       q    Type
REMARK                         _______ _______ _______ _____ _____    ______ ____
ROOT
ATOM      1  C   UNL     1      -1.769  14.171  20.422  0.00  0.00    +0.000 C 
ATOM      2  C   UNL     1      -2.470  14.903  21.326  0.00  0.00    +0.000 C 
ATOM      3  C   UNL     1      -1.916  16.122  22.039  0.00  0.00    +0.000 C 
ATOM      4  N   UNL     1      -3.804  14.523  21.639  0.00  0.00    +0.000 N 
ATOM      5  C   UNL     1      -4.697  15.412  22.393  0.00  0.00    +0.000 C 
ATOM      6  C   UNL     1      -4.290  13.313  21.136  0.00  0.00    +0.000 C 
ATOM      7  N   UNL     1      -3.726  12.561  20.263  0.00  0.00    +0.000 NA
ATOM      8  C   UNL     1      -2.410  12.972  19.735  0.00  0.00    +0.000 C 
ENDROOT
BRANCH   8   9
ATOM      9  C   UNL     1      -1.506  11.726  19.645  0.00  0.00    +0.000 A 
ATOM     10  C   UNL     1      -1.175  11.212  18.365  0.00  0.00    +0.000 A 
ATOM     11  C   UNL     1      -0.398  10.062  18.258  0.00  0.00    +0.000 A 
ATOM     12  C   UNL     1       0.052   9.405  19.403  0.00  0.00    +0.000 A 
ATOM     13  C   UNL     1      -0.255   9.882  20.679  0.00  0.00    +0.000 A 
ATOM     14  C   UNL     1       0.190   9.166  21.805  0.00  0.00    +0.000 A 
ATOM     15  C   UNL     1      -0.111   9.588  23.097  0.00  0.00    +0.000 A 
ATOM     16  C   UNL     1      -0.849  10.744  23.279  0.00  0.00    +0.000 A 
ATOM     17  C   UNL     1      -1.285  11.472  22.167  0.00  0.00    +0.000 A 
ATOM     18  C   UNL     1      -1.026  11.064  20.832  0.00  0.00    +0.000 A 
BRANCH  10  19
ATOM     19  O   UNL     1      -1.681  11.889  17.285  0.00  0.00    +0.000 OA
BRANCH  19  20
ATOM     20  C   UNL     1      -2.465  11.166  16.340  0.00  0.00    +0.000 C 
ATOM     21  C   UNL     1      -3.906  11.189  16.815  0.00  0.00    +0.000 C 
ENDBRANCH  19  20
ENDBRANCH  10  19
ENDBRANCH   8   9
BRANCH   1  22
ATOM     22  C   UNL     1      -0.370  14.500  20.032  0.00  0.00    +0.000 C 
ATOM     23  O   UNL     1       0.614  14.362  20.743  0.00  0.00    +0.000 OA
BRANCH  22  24
ATOM     24  O   UNL     1      -0.326  14.997  18.767  0.00  0.00    +0.000 OA
BRANCH  24  26
ATOM     25  C   UNL     1       0.961  17.098  18.592  0.00  0.00    +0.000 C 
ATOM     26  C   UNL     1      -0.403  16.424  18.620  0.00  0.00    +0.000 C 
ENDBRANCH  24  26
ENDBRANCH  22  24
ENDBRANCH   1  22
BRANCH   6  27
ATOM     27  S   UNL     1      -5.836  12.649  21.695  0.00  0.00    +0.000 S 
ATOM     28  H   UNL     1      -6.068  13.493  22.701  0.00  0.00    +0.000 HD
ENDBRANCH   6  27
TORSDOF 7
ENDMDL
MODEL 8
REMARK VINA RESULT:      -5.0      2.500      3.703
REMARK  Name = 
REMARK  11 active torsions:
REMARK  status: ('A' for Active; 'I' for Inactive)
REMARK    1  A    between atoms: C_1  and  C_2
REMARK    2  A    between atoms: C_2  and  O_3
REMARK    3  A    between atoms: O_3  and  C_4
REMARK    4  A    between atoms: C_4  and  C_6
REMARK    5  A    between atoms: C_7  and  C_8
REMARK    6  A    between atoms: N_9  and  C_10
REMARK    7  A    between atoms: C_11  and  S_12
REMARK    8  A    between atoms: C_14  and  C_15
REMARK    9  A    between atoms: C_16  and  O_17
REMARK   10  A    between atoms: O_17  and  C_18
REMARK   11  A    between atoms: C_18  and  C_19
REMARK                            x       y       z     vdW  Elec       q    Type
REMARK                         _______ _______ _______ _____ _____    ______ ____
ROOT
ATOM      1  C   UNL     1       0.411  13.268  20.092  0.00  0.00    +0.000 C 
ATOM      2  C   UNL     1      -0.270  14.408  20.377  0.00  0.00    +0.000 C 
ATOM      3  C   UNL     1       0.395  15.722  20.739  0.00  0.00    +0.000 C 
ATOM      4  N   UNL     1      -1.691  14.393  20.339  0.00  0.00    +0.000 N 
ATOM      5  C   UNL     1      -2.473  15.636  20.371  0.00  0.00    +0.000 C 
ATOM      6  C   UNL     1      -2.343  13.167  20.179  0.00  0.00    +0.000 C 
ATOM      7  N   UNL     1      -1.803  12.042  19.883  0.00  0.00    +0.000 NA
ATOM      8  C   UNL     1      -0.336  11.995  19.716  0.00  0.00    +0.000 C 
ENDROOT
BRANCH   8   9
ATOM      9  C   UNL     1       0.194  10.716  20.394  0.00  0.00    +0.000 A 
ATOM     10  C   UNL     1       0.022  10.563  21.794  0.00  0.00    +0.000 A 
ATOM     11  C   UNL     1       0.533   9.438  22.438  0.00  0.00    +0.000 A 
ATOM     12  C   UNL     1       1.219   8.463  21.716  0.00  0.00    +0.000 A 
ATOM     13  C   UNL     1       1.408   8.581  20.337  0.00  0.00    +0.000 A 
ATOM     14  C   UNL     1       2.138   7.589  19.658  0.00  0.00    +0.000 A 
ATOM     15  C   UNL     1       2.373   7.675  18.288  0.00  0.00    +0.000 A 
ATOM     16  C   UNL     1       1.864   8.747  17.577  0.00  0.00    +0.000 A 
ATOM     17  C   UNL     1       1.124   9.732  18.240  0.00  0.00    +0.000 A 
ATOM     18  C   UNL     1       0.884   9.700  19.640  0.00  0.00    +0.000 A 
BRANCH  10  19
ATOM     19  O   UNL     1      -0.631  11.578  22.445  0.00  0.00    +0.000 OA
BRANCH  19  20
ATOM     20  C   UNL     1      -1.692  11.240  23.332  0.00  0.00    +0.000 C 
ATOM     21  C   UNL     1      -2.497  12.499  23.598  0.00  0.00    +0.000 C 
ENDBRANCH  19  20
ENDBRANCH  10  19
ENDBRANCH   8   9
BRANCH   1  22
ATOM     22  C   UNL     1       1.898  13.196  20.103  0.00  0.00    +0.000 C 
ATOM     23  O   UNL     1       2.605  13.014  19.123  0.00  0.00    +0.000 OA
BRANCH  22  24
ATOM     24  O   UNL     1       2.380  13.347  21.365  0.00  0.00    +0.000 OA
BRANCH  24  26
ATOM     25  C   UNL     1       3.624  15.238  22.352  0.00  0.00    +0.000 C 
ATOM     26  C   UNL     1       3.664  13.976  21.504  0.00  0.00    +0.000 C 
ENDBRANCH  24  26
ENDBRANCH  22  24
ENDBRANCH   1  22
BRANCH   6  27
ATOM     27  S   UNL     1      -4.099  13.033  20.388  0.00  0.00    +0.000 S 
ATOM     28  H   UNL     1      -4.334  14.241  20.901  0.00  0.00    +0.000 HD
ENDBRANCH   6  27
TORSDOF 7
ENDMDL
MODEL 9
REMARK VINA RESULT:      -5.0      2.686      4.512
REMARK  Name = 
REMARK  11 active torsions:
REMARK  status: ('A' for Active; 'I' for Inactive)
REMARK    1  A    between atoms: C_1  and  C_2
REMARK    2  A    between atoms: C_2  and  O_3
REMARK    3  A    between atoms: O_3  and  C_4
REMARK    4  A    between atoms: C_4  and  C_6
REMARK    5  A    between atoms: C_7  and  C_8
REMARK    6  A    between atoms: N_9  and  C_10
REMARK    7  A    between atoms: C_11  and  S_12
REMARK    8  A    between atoms: C_14  and  C_15
REMARK    9  A    between atoms: C_16  and  O_17
REMARK   10  A    between atoms: O_17  and  C_18
REMARK   11  A    between atoms: C_18  and  C_19
REMARK                            x       y       z     vdW  Elec       q    Type
REMARK                         _______ _______ _______ _____ _____    ______ ____
ROOT
ATOM      1  C   UNL     1      -3.069  14.139  23.150  0.00  0.00    +0.000 C 
ATOM      2  C   UNL     1      -3.546  15.310  23.645  0.00  0.00    +0.000 C 
ATOM      3  C   UNL     1      -4.958  15.814  23.413  0.00  0.00    +0.000 C 
ATOM      4  N   UNL     1      -2.690  16.128  24.432  0.00  0.00    +0.000 N 
ATOM      5  C   UNL     1      -3.212  17.258  25.211  0.00  0.00    +0.000 C 
ATOM      6  C   UNL     1      -1.338  15.786  24.526  0.00  0.00    +0.000 C 
ATOM      7  N   UNL     1      -0.790  14.700  24.119  0.00  0.00    +0.000 NA
ATOM      8  C   UNL     1      -1.643  13.697  23.450  0.00  0.00    +0.000 C 
ENDROOT
BRANCH   8   9
ATOM      9  C   UNL     1      -0.877  13.134  22.235  0.00  0.00    +0.000 A 
ATOM     10  C   UNL     1      -0.513  14.018  21.187  0.00  0.00    +0.000 A 
ATOM     11  C   UNL     1       0.139  13.526  20.059  0.00  0.00    +0.000 A 
ATOM     12  C   UNL     1       0.430  12.167  19.948  0.00  0.00    +0.000 A 
ATOM     13  C   UNL     1       0.086  11.268  20.961  0.00  0.00    +0.000 A 
ATOM     14  C   UNL     1       0.368   9.901  20.788  0.00  0.00    +0.000 A 
ATOM     15  C   UNL     1       0.022   8.963  21.757  0.00  0.00    +0.000 A 
ATOM     16  C   UNL     1      -0.595   9.385  22.921  0.00  0.00    +0.000 A 
ATOM     17  C   UNL     1      -0.868  10.744  23.110  0.00  0.00    +0.000 A 
ATOM     18  C   UNL     1      -0.559  11.732  22.136  0.00  0.00    +0.000 A 
BRANCH  10  19
ATOM     19  O   UNL     1      -0.862  15.334  21.348  0.00  0.00    +0.000 OA
BRANCH  19  20
ATOM     20  C   UNL     1      -1.163  16.101  20.186  0.00  0.00    +0.000 C 
ATOM     21  C   UNL     1      -2.490  16.799  20.419  0.00  0.00    +0.000 C 
ENDBRANCH  19  20
ENDBRANCH  10  19
ENDBRANCH   8   9
BRANCH   1  22
ATOM     22  C   UNL     1      -3.897  13.219  22.322  0.00  0.00    +0.000 C 
ATOM     23  O   UNL     1      -4.474  12.224  22.733  0.00  0.00    +0.000 OA
BRANCH  22  24
ATOM     24  O   UNL     1      -3.921  13.626  21.025  0.00  0.00    +0.000 OA
BRANCH  24  26
ATOM     25  C   UNL     1      -3.174  12.053  19.272  0.00  0.00    +0.000 C 
ATOM     26  C   UNL     1      -4.336  12.661  20.044  0.00  0.00    +0.000 C 
ENDBRANCH  24  26
ENDBRANCH  22  24
ENDBRANCH   1  22
BRANCH   6  27
ATOM     27  S   UNL     1      -0.165  16.894  25.261  0.00  0.00    +0.000 S 
ATOM     28  H   UNL     1      -0.028  16.289  26.442  0.00  0.00    +0.000 HD
ENDBRANCH   6  27
TORSDOF 7
ENDMDL
