MODEL 1
REMARK VINA RESULT:      -7.0      0.000      0.000
REMARK  Name = 
REMARK  8 active torsions:
REMARK  status: ('A' for Active; 'I' for Inactive)
REMARK    1  A    between atoms: C_1  and  C_2
REMARK    2  A    between atoms: C_5  and  S_6
REMARK    3  A    between atoms: S_6  and  C_9
REMARK    4  A    between atoms: C_9  and  C_10
REMARK    5  A    between atoms: C_10  and  C_11
REMARK    6  A    between atoms: C_11  and  O_13
REMARK    7  A    between atoms: O_13  and  C_14
REMARK    8  A    between atoms: C_14  and  C_15
REMARK                            x       y       z     vdW  Elec       q    Type
REMARK                         _______ _______ _______ _____ _____    ______ ____
ROOT
ATOM      1  C   UNL     1       3.233   2.470  19.603  0.00  0.00    +0.000 C 
ENDROOT
BRANCH   1   2
ATOM      2  S   UNL     1       3.394   2.771  17.859  0.00  0.00    +0.000 S 
ATOM      3  O   UNL     1       2.142   3.332  17.388  0.00  0.00    +0.000 OA
ATOM      4  O   UNL     1       3.939   1.571  17.252  0.00  0.00    +0.000 OA
BRANCH   2   9
ATOM      5  C   UNL     1       7.410   7.322  17.500  0.00  0.00    +0.000 C 
ATOM      6  C   UNL     1       6.447   6.172  17.567  0.00  0.00    +0.000 A 
ATOM      7  C   UNL     1       5.570   5.909  16.506  0.00  0.00    +0.000 A 
ATOM      8  C   UNL     1       4.660   4.852  16.582  0.00  0.00    +0.000 A 
ATOM      9  C   UNL     1       4.632   4.043  17.721  0.00  0.00    +0.000 A 
ATOM     10  C   UNL     1       5.491   4.300  18.792  0.00  0.00    +0.000 A 
ATOM     11  C   UNL     1       6.400   5.359  18.710  0.00  0.00    +0.000 A 
ENDBRANCH   2   9
ENDBRANCH   1   2
BRANCH   1  12
ATOM     12  C   UNL     1       1.834   2.851  20.075  0.00  0.00    +0.000 C 
BRANCH  12  13
ATOM     13  C   UNL     1       1.893   3.766  21.268  0.00  0.00    +0.000 C 
ATOM     14  O   UNL     1       2.127   3.393  22.410  0.00  0.00    +0.000 OA
BRANCH  13  15
ATOM     15  O   UNL     1       1.619   5.039  20.886  0.00  0.00    +0.000 OA
BRANCH  15  16
ATOM     16  C   UNL     1       2.704   5.794  20.318  0.00  0.00    +0.000 C 
BRANCH  16  17
ATOM     17  C   UNL     1       2.214   7.063  19.658  0.00  0.00    +0.000 A 
ATOM     18  C   UNL     1       1.461   8.016  20.358  0.00  0.00    +0.000 A 
ATOM     19  C   UNL     1       1.126   9.236  19.763  0.00  0.00    +0.000 A 
ATOM     20  C   UNL     1       1.551   9.523  18.467  0.00  0.00    +0.000 A 
ATOM     21  C   UNL     1       2.286   8.579  17.754  0.00  0.00    +0.000 A 
ATOM     22  C   UNL     1       2.611   7.355  18.342  0.00  0.00    +0.000 A 
ENDBRANCH  16  17
ENDBRANCH  15  16
ENDBRANCH  13  15
ENDBRANCH  12  13
ENDBRANCH   1  12
TORSDOF 7
ENDMDL
MODEL 2
REMARK VINA RESULT:      -7.0      0.475      1.129
REMARK  Name = 
REMARK  8 active torsions:
REMARK  status: ('A' for Active; 'I' for Inactive)
REMARK    1  A    between atoms: C_1  and  C_2
REMARK    2  A    between atoms: C_5  and  S_6
REMARK    3  A    between atoms: S_6  and  C_9
REMARK    4  A    between atoms: C_9  and  C_10
REMARK    5  A    between atoms: C_10  and  C_11
REMARK    6  A    between atoms: C_11  and  O_13
REMARK    7  A    between atoms: O_13  and  C_14
REMARK    8  A    between atoms: C_14  and  C_15
REMARK                            x       y       z     vdW  Elec       q    Type
REMARK                         _______ _______ _______ _____ _____    ______ ____
ROOT
ATOM      1  C   UNL     1       2.821   2.508  19.551  0.00  0.00    +0.000 C 
ENDROOT
BRANCH   1   2
ATOM      2  S   UNL     1       3.286   2.582  17.837  0.00  0.00    +0.000 S 
ATOM      3  O   UNL     1       2.136   3.051  17.086  0.00  0.00    +0.000 OA
ATOM      4  O   UNL     1       3.926   1.326  17.497  0.00  0.00    +0.000 OA
BRANCH   2   9
ATOM      5  C   UNL     1       7.324   7.123  17.647  0.00  0.00    +0.000 C 
ATOM      6  C   UNL     1       6.356   5.976  17.673  0.00  0.00    +0.000 A 
ATOM      7  C   UNL     1       5.501   5.736  16.588  0.00  0.00    +0.000 A 
ATOM      8  C   UNL     1       4.587   4.681  16.625  0.00  0.00    +0.000 A 
ATOM      9  C   UNL     1       4.531   3.852  17.749  0.00  0.00    +0.000 A 
ATOM     10  C   UNL     1       5.367   4.087  18.843  0.00  0.00    +0.000 A 
ATOM     11  C   UNL     1       6.280   5.144  18.799  0.00  0.00    +0.000 A 
ENDBRANCH   2   9
ENDBRANCH   1   2
BRANCH   1  12
ATOM     12  C   UNL     1       1.791   3.587  19.863  0.00  0.00    +0.000 C 
BRANCH  12  13
ATOM     13  C   UNL     1       2.075   4.244  21.187  0.00  0.00    +0.000 C 
ATOM     14  O   UNL     1       2.208   3.636  22.242  0.00  0.00    +0.000 OA
BRANCH  13  15
ATOM     15  O   UNL     1       2.128   5.591  21.032  0.00  0.00    +0.000 OA
BRANCH  15  16
ATOM     16  C   UNL     1       2.631   6.080  19.776  0.00  0.00    +0.000 C 
BRANCH  16  17
ATOM     17  C   UNL     1       2.138   7.481  19.487  0.00  0.00    +0.000 A 
ATOM     18  C   UNL     1       2.256   8.057  18.215  0.00  0.00    +0.000 A 
ATOM     19  C   UNL     1       1.682   9.302  17.941  0.00  0.00    +0.000 A 
ATOM     20  C   UNL     1       0.972   9.979  18.931  0.00  0.00    +0.000 A 
ATOM     21  C   UNL     1       0.860   9.426  20.204  0.00  0.00    +0.000 A 
ATOM     22  C   UNL     1       1.443   8.187  20.483  0.00  0.00    +0.000 A 
ENDBRANCH  16  17
ENDBRANCH  15  16
ENDBRANCH  13  15
ENDBRANCH  12  13
ENDBRANCH   1  12
TORSDOF 7
ENDMDL
MODEL 3
REMARK VINA RESULT:      -6.9      1.761      4.355
REMARK  Name = 
REMARK  8 active torsions:
REMARK  status: ('A' for Active; 'I' for Inactive)
REMARK    1  A    between atoms: C_1  and  C_2
REMARK    2  A    between atoms: C_5  and  S_6
REMARK    3  A    between atoms: S_6  and  C_9
REMARK    4  A    between atoms: C_9  and  C_10
REMARK    5  A    between atoms: C_10  and  C_11
REMARK    6  A    between atoms: C_11  and  O_13
REMARK    7  A    between atoms: O_13  and  C_14
REMARK    8  A    between atoms: C_14  and  C_15
REMARK                            x       y       z     vdW  Elec       q    Type
REMARK                         _______ _______ _______ _____ _____    ______ ____
ROOT
ATOM      1  C   UNL     1       2.466   1.653  18.870  0.00  0.00    +0.000 C 
ENDROOT
BRANCH   1   2
ATOM      2  S   UNL     1       1.404   2.738  19.793  0.00  0.00    +0.000 S 
ATOM      3  O   UNL     1       1.755   2.616  21.196  0.00  0.00    +0.000 OA
ATOM      4  O   UNL     1       0.042   2.506  19.351  0.00  0.00    +0.000 OA
BRANCH   2   9
ATOM      5  C   UNL     1       2.639   8.424  18.029  0.00  0.00    +0.000 C 
ATOM      6  C   UNL     1       2.377   7.010  18.457  0.00  0.00    +0.000 A 
ATOM      7  C   UNL     1       2.057   6.023  17.513  0.00  0.00    +0.000 A 
ATOM      8  C   UNL     1       1.792   4.713  17.918  0.00  0.00    +0.000 A 
ATOM      9  C   UNL     1       1.856   4.380  19.274  0.00  0.00    +0.000 A 
ATOM     10  C   UNL     1       2.160   5.355  20.227  0.00  0.00    +0.000 A 
ATOM     11  C   UNL     1       2.425   6.664  19.816  0.00  0.00    +0.000 A 
ENDBRANCH   2   9
ENDBRANCH   1   2
BRANCH   1  12
ATOM     12  C   UNL     1       3.699   2.408  18.389  0.00  0.00    +0.000 C 
BRANCH  12  13
ATOM     13  C   UNL     1       4.688   2.602  19.507  0.00  0.00    +0.000 C 
ATOM     14  O   UNL     1       4.889   1.787  20.398  0.00  0.00    +0.000 OA
BRANCH  13  15
ATOM     15  O   UNL     1       5.286   3.814  19.388  0.00  0.00    +0.000 OA
BRANCH  15  16
ATOM     16  C   UNL     1       5.502   4.304  18.052  0.00  0.00    +0.000 C 
BRANCH  16  17
ATOM     17  C   UNL     1       6.287   5.597  18.053  0.00  0.00    +0.000 A 
ATOM     18  C   UNL     1       7.453   5.752  18.815  0.00  0.00    +0.000 A 
ATOM     19  C   UNL     1       8.229   6.909  18.704  0.00  0.00    +0.000 A 
ATOM     20  C   UNL     1       7.855   7.919  17.819  0.00  0.00    +0.000 A 
ATOM     21  C   UNL     1       6.691   7.786  17.067  0.00  0.00    +0.000 A 
ATOM     22  C   UNL     1       5.909   6.635  17.186  0.00  0.00    +0.000 A 
ENDBRANCH  16  17
ENDBRANCH  15  16
ENDBRANCH  13  15
ENDBRANCH  12  13
ENDBRANCH   1  12
TORSDOF 7
ENDMDL
MODEL 4
REMARK VINA RESULT:      -6.9      1.572      4.794
REMARK  Name = 
REMARK  8 active torsions:
REMARK  status: ('A' for Active; 'I' for Inactive)
REMARK    1  A    between atoms: C_1  and  C_2
REMARK    2  A    between atoms: C_5  and  S_6
REMARK    3  A    between atoms: S_6  and  C_9
REMARK    4  A    between atoms: C_9  and  C_10
REMARK    5  A    between atoms: C_10  and  C_11
REMARK    6  A    between atoms: C_11  and  O_13
REMARK    7  A    between atoms: O_13  and  C_14
REMARK    8  A    between atoms: C_14  and  C_15
REMARK                            x       y       z     vdW  Elec       q    Type
REMARK                         _______ _______ _______ _____ _____    ______ ____
ROOT
ATOM      1  C   UNL     1       2.682   1.933  19.112  0.00  0.00    +0.000 C 
ENDROOT
BRANCH   1   2
ATOM      2  S   UNL     1       3.585   2.784  20.384  0.00  0.00    +0.000 S 
ATOM      3  O   UNL     1       4.991   2.760  20.022  0.00  0.00    +0.000 OA
ATOM      4  O   UNL     1       3.145   2.264  21.664  0.00  0.00    +0.000 OA
BRANCH   2   9
ATOM      5  C   UNL     1       1.590   8.495  19.771  0.00  0.00    +0.000 C 
ATOM      6  C   UNL     1       2.106   7.097  19.958  0.00  0.00    +0.000 A 
ATOM      7  C   UNL     1       3.338   6.710  19.412  0.00  0.00    +0.000 A 
ATOM      8  C   UNL     1       3.804   5.403  19.570  0.00  0.00    +0.000 A 
ATOM      9  C   UNL     1       3.041   4.476  20.286  0.00  0.00    +0.000 A 
ATOM     10  C   UNL     1       1.805   4.844  20.824  0.00  0.00    +0.000 A 
ATOM     11  C   UNL     1       1.344   6.154  20.664  0.00  0.00    +0.000 A 
ENDBRANCH   2   9
ENDBRANCH   1   2
BRANCH   1  12
ATOM     12  C   UNL     1       3.343   2.160  17.757  0.00  0.00    +0.000 C 
BRANCH  12  13
ATOM     13  C   UNL     1       2.791   3.386  17.082  0.00  0.00    +0.000 C 
ATOM     14  O   UNL     1       1.635   3.773  17.196  0.00  0.00    +0.000 OA
BRANCH  13  15
ATOM     15  O   UNL     1       3.751   3.963  16.317  0.00  0.00    +0.000 OA
BRANCH  15  16
ATOM     16  C   UNL     1       5.112   3.576  16.582  0.00  0.00    +0.000 C 
BRANCH  16  17
ATOM     17  C   UNL     1       5.965   4.765  16.962  0.00  0.00    +0.000 A 
ATOM     18  C   UNL     1       5.689   6.054  16.485  0.00  0.00    +0.000 A 
ATOM     19  C   UNL     1       6.415   7.156  16.948  0.00  0.00    +0.000 A 
ATOM     20  C   UNL     1       7.415   6.983  17.902  0.00  0.00    +0.000 A 
ATOM     21  C   UNL     1       7.711   5.707  18.373  0.00  0.00    +0.000 A 
ATOM     22  C   UNL     1       6.995   4.604  17.903  0.00  0.00    +0.000 A 
ENDBRANCH  16  17
ENDBRANCH  15  16
ENDBRANCH  13  15
ENDBRANCH  12  13
ENDBRANCH   1  12
TORSDOF 7
ENDMDL
MODEL 5
REMARK VINA RESULT:      -6.8      4.158      7.560
REMARK  Name = 
REMARK  8 active torsions:
REMARK  status: ('A' for Active; 'I' for Inactive)
REMARK    1  A    between atoms: C_1  and  C_2
REMARK    2  A    between atoms: C_5  and  S_6
REMARK    3  A    between atoms: S_6  and  C_9
REMARK    4  A    between atoms: C_9  and  C_10
REMARK    5  A    between atoms: C_10  and  C_11
REMARK    6  A    between atoms: C_11  and  O_13
REMARK    7  A    between atoms: O_13  and  C_14
REMARK    8  A    between atoms: C_14  and  C_15
REMARK                            x       y       z     vdW  Elec       q    Type
REMARK                         _______ _______ _______ _____ _____    ______ ____
ROOT
ATOM      1  C   UNL     1       7.415   4.632  17.331  0.00  0.00    +0.000 C 
ENDROOT
BRANCH   1   2
ATOM      2  S   UNL     1       6.384   5.483  18.501  0.00  0.00    +0.000 S 
ATOM      3  O   UNL     1       6.141   6.819  17.988  0.00  0.00    +0.000 OA
ATOM      4  O   UNL     1       6.958   5.292  19.819  0.00  0.00    +0.000 OA
BRANCH   2   9
ATOM      5  C   UNL     1       1.006   2.651  18.666  0.00  0.00    +0.000 C 
ATOM      6  C   UNL     1       2.345   3.325  18.591  0.00  0.00    +0.000 A 
ATOM      7  C   UNL     1       3.462   2.774  19.235  0.00  0.00    +0.000 A 
ATOM      8  C   UNL     1       4.701   3.416  19.181  0.00  0.00    +0.000 A 
ATOM      9  C   UNL     1       4.832   4.612  18.469  0.00  0.00    +0.000 A 
ATOM     10  C   UNL     1       3.725   5.179  17.833  0.00  0.00    +0.000 A 
ATOM     11  C   UNL     1       2.487   4.532  17.890  0.00  0.00    +0.000 A 
ENDBRANCH   2   9
ENDBRANCH   1   2
BRANCH   1  12
ATOM     12  C   UNL     1       6.577   4.124  16.163  0.00  0.00    +0.000 C 
BRANCH  12  13
ATOM     13  C   UNL     1       6.549   5.124  15.039  0.00  0.00    +0.000 C 
ATOM     14  O   UNL     1       5.673   5.967  14.889  0.00  0.00    +0.000 OA
BRANCH  13  15
ATOM     15  O   UNL     1       7.611   4.926  14.218  0.00  0.00    +0.000 OA
BRANCH  15  16
ATOM     16  C   UNL     1       7.391   5.134  12.811  0.00  0.00    +0.000 C 
BRANCH  16  17
ATOM     17  C   UNL     1       6.848   3.890  12.142  0.00  0.00    +0.000 A 
ATOM     18  C   UNL     1       7.695   2.894  11.638  0.00  0.00    +0.000 A 
ATOM     19  C   UNL     1       7.170   1.699  11.138  0.00  0.00    +0.000 A 
ATOM     20  C   UNL     1       5.794   1.481  11.148  0.00  0.00    +0.000 A 
ATOM     21  C   UNL     1       4.939   2.469  11.631  0.00  0.00    +0.000 A 
ATOM     22  C   UNL     1       5.462   3.668  12.121  0.00  0.00    +0.000 A 
ENDBRANCH  16  17
ENDBRANCH  15  16
ENDBRANCH  13  15
ENDBRANCH  12  13
ENDBRANCH   1  12
TORSDOF 7
ENDMDL
MODEL 6
REMARK VINA RESULT:      -6.7      1.803      4.525
REMARK  Name = 
REMARK  8 active torsions:
REMARK  status: ('A' for Active; 'I' for Inactive)
REMARK    1  A    between atoms: C_1  and  C_2
REMARK    2  A    between atoms: C_5  and  S_6
REMARK    3  A    between atoms: S_6  and  C_9
REMARK    4  A    between atoms: C_9  and  C_10
REMARK    5  A    between atoms: C_10  and  C_11
REMARK    6  A    between atoms: C_11  and  O_13
REMARK    7  A    between atoms: O_13  and  C_14
REMARK    8  A    between atoms: C_14  and  C_15
REMARK                            x       y       z     vdW  Elec       q    Type
REMARK                         _______ _______ _______ _____ _____    ______ ____
ROOT
ATOM      1  C   UNL     1       2.386   1.658  19.466  0.00  0.00    +0.000 C 
ENDROOT
BRANCH   1   2
ATOM      2  S   UNL     1       1.359   2.823  20.330  0.00  0.00    +0.000 S 
ATOM      3  O   UNL     1       1.804   2.868  21.711  0.00  0.00    +0.000 OA
ATOM      4  O   UNL     1      -0.022   2.519  20.010  0.00  0.00    +0.000 OA
BRANCH   2   9
ATOM      5  C   UNL     1       2.946   8.125  17.812  0.00  0.00    +0.000 C 
ATOM      6  C   UNL     1       2.514   6.833  18.441  0.00  0.00    +0.000 A 
ATOM      7  C   UNL     1       2.603   6.646  19.829  0.00  0.00    +0.000 A 
ATOM      8  C   UNL     1       2.221   5.434  20.408  0.00  0.00    +0.000 A 
ATOM      9  C   UNL     1       1.735   4.403  19.600  0.00  0.00    +0.000 A 
ATOM     10  C   UNL     1       1.653   4.569  18.215  0.00  0.00    +0.000 A 
ATOM     11  C   UNL     1       2.037   5.784  17.641  0.00  0.00    +0.000 A 
ENDBRANCH   2   9
ENDBRANCH   1   2
BRANCH   1  12
ATOM     12  C   UNL     1       3.556   2.377  18.806  0.00  0.00    +0.000 C 
BRANCH  12  13
ATOM     13  C   UNL     1       4.700   2.553  19.769  0.00  0.00    +0.000 C 
ATOM     14  O   UNL     1       5.019   1.729  20.616  0.00  0.00    +0.000 OA
BRANCH  13  15
ATOM     15  O   UNL     1       5.287   3.760  19.571  0.00  0.00    +0.000 OA
BRANCH  15  16
ATOM     16  C   UNL     1       5.317   4.254  18.220  0.00  0.00    +0.000 C 
BRANCH  16  17
ATOM     17  C   UNL     1       6.271   5.419  18.075  0.00  0.00    +0.000 A 
ATOM     18  C   UNL     1       6.033   6.458  17.164  0.00  0.00    +0.000 A 
ATOM     19  C   UNL     1       6.862   7.584  17.136  0.00  0.00    +0.000 A 
ATOM     20  C   UNL     1       7.929   7.690  18.026  0.00  0.00    +0.000 A 
ATOM     21  C   UNL     1       8.186   6.658  18.925  0.00  0.00    +0.000 A 
ATOM     22  C   UNL     1       7.367   5.528  18.947  0.00  0.00    +0.000 A 
ENDBRANCH  16  17
ENDBRANCH  15  16
ENDBRANCH  13  15
ENDBRANCH  12  13
ENDBRANCH   1  12
TORSDOF 7
ENDMDL
MODEL 7
REMARK VINA RESULT:      -6.6      3.719      7.039
REMARK  Name = 
REMARK  8 active torsions:
REMARK  status: ('A' for Active; 'I' for Inactive)
REMARK    1  A    between atoms: C_1  and  C_2
REMARK    2  A    between atoms: C_5  and  S_6
REMARK    3  A    between atoms: S_6  and  C_9
REMARK    4  A    between atoms: C_9  and  C_10
REMARK    5  A    between atoms: C_10  and  C_11
REMARK    6  A    between atoms: C_11  and  O_13
REMARK    7  A    between atoms: O_13  and  C_14
REMARK    8  A    between atoms: C_14  and  C_15
REMARK                            x       y       z     vdW  Elec       q    Type
REMARK                         _______ _______ _______ _____ _____    ______ ____
ROOT
ATOM      1  C   UNL     1       5.123   3.954  16.741  0.00  0.00    +0.000 C 
ENDROOT
BRANCH   1   2
ATOM      2  S   UNL     1       4.881   4.221  18.481  0.00  0.00    +0.000 S 
ATOM      3  O   UNL     1       6.180   4.487  19.073  0.00  0.00    +0.000 OA
ATOM      4  O   UNL     1       4.048   3.145  18.983  0.00  0.00    +0.000 OA
BRANCH   2   9
ATOM      5  C   UNL     1       1.405   9.206  18.688  0.00  0.00    +0.000 C 
ATOM      6  C   UNL     1       2.297   7.998  18.656  0.00  0.00    +0.000 A 
ATOM      7  C   UNL     1       3.182   7.789  17.588  0.00  0.00    +0.000 A 
ATOM      8  C   UNL     1       3.993   6.653  17.551  0.00  0.00    +0.000 A 
ATOM      9  C   UNL     1       3.930   5.722  18.592  0.00  0.00    +0.000 A 
ATOM     10  C   UNL     1       3.045   5.910  19.655  0.00  0.00    +0.000 A 
ATOM     11  C   UNL     1       2.235   7.049  19.688  0.00  0.00    +0.000 A 
ENDBRANCH   2   9
ENDBRANCH   1   2
BRANCH   1  12
ATOM     12  C   UNL     1       6.602   4.064  16.393  0.00  0.00    +0.000 C 
BRANCH  12  13
ATOM     13  C   UNL     1       6.913   5.390  15.753  0.00  0.00    +0.000 C 
ATOM     14  O   UNL     1       7.477   6.314  16.324  0.00  0.00    +0.000 OA
BRANCH  13  15
ATOM     15  O   UNL     1       6.450   5.406  14.478  0.00  0.00    +0.000 OA
BRANCH  15  16
ATOM     16  C   UNL     1       7.350   4.946  13.454  0.00  0.00    +0.000 C 
BRANCH  16  17
ATOM     17  C   UNL     1       6.693   3.923  12.554  0.00  0.00    +0.000 A 
ATOM     18  C   UNL     1       7.439   2.946  11.880  0.00  0.00    +0.000 A 
ATOM     19  C   UNL     1       6.799   1.937  11.154  0.00  0.00    +0.000 A 
ATOM     20  C   UNL     1       5.408   1.884  11.105  0.00  0.00    +0.000 A 
ATOM     21  C   UNL     1       4.654   2.857  11.757  0.00  0.00    +0.000 A 
ATOM     22  C   UNL     1       5.292   3.873  12.472  0.00  0.00    +0.000 A 
ENDBRANCH  16  17
ENDBRANCH  15  16
ENDBRANCH  13  15
ENDBRANCH  12  13
ENDBRANCH   1  12
TORSDOF 7
ENDMDL
MODEL 8
REMARK VINA RESULT:      -6.5      2.974      5.035
REMARK  Name = 
REMARK  8 active torsions:
REMARK  status: ('A' for Active; 'I' for Inactive)
REMARK    1  A    between atoms: C_1  and  C_2
REMARK    2  A    between atoms: C_5  and  S_6
REMARK    3  A    between atoms: S_6  and  C_9
REMARK    4  A    between atoms: C_9  and  C_10
REMARK    5  A    between atoms: C_10  and  C_11
REMARK    6  A    between atoms: C_11  and  O_13
REMARK    7  A    between atoms: O_13  and  C_14
REMARK    8  A    between atoms: C_14  and  C_15
REMARK                            x       y       z     vdW  Elec       q    Type
REMARK                         _______ _______ _______ _____ _____    ______ ____
ROOT
ATOM      1  C   UNL     1       5.318   5.693  18.202  0.00  0.00    +0.000 C 
ENDROOT
BRANCH   1   2
ATOM      2  S   UNL     1       6.799   5.979  17.262  0.00  0.00    +0.000 S 
ATOM      3  O   UNL     1       7.903   5.363  17.975  0.00  0.00    +0.000 OA
ATOM      4  O   UNL     1       6.839   7.388  16.917  0.00  0.00    +0.000 OA
BRANCH   2   9
ATOM      5  C   UNL     1       5.808   3.097  12.001  0.00  0.00    +0.000 C 
ATOM      6  C   UNL     1       6.077   3.774  13.314  0.00  0.00    +0.000 A 
ATOM      7  C   UNL     1       5.270   3.517  14.431  0.00  0.00    +0.000 A 
ATOM      8  C   UNL     1       5.510   4.166  15.644  0.00  0.00    +0.000 A 
ATOM      9  C   UNL     1       6.570   5.071  15.749  0.00  0.00    +0.000 A 
ATOM     10  C   UNL     1       7.375   5.346  14.641  0.00  0.00    +0.000 A 
ATOM     11  C   UNL     1       7.130   4.693  13.429  0.00  0.00    +0.000 A 
ENDBRANCH   2   9
ENDBRANCH   1   2
BRANCH   1  12
ATOM     12  C   UNL     1       4.199   6.603  17.711  0.00  0.00    +0.000 C 
BRANCH  12  13
ATOM     13  C   UNL     1       2.959   6.441  18.547  0.00  0.00    +0.000 C 
ATOM     14  O   UNL     1       2.841   6.861  19.692  0.00  0.00    +0.000 OA
BRANCH  13  15
ATOM     15  O   UNL     1       2.025   5.741  17.856  0.00  0.00    +0.000 OA
BRANCH  15  16
ATOM     16  C   UNL     1       2.247   4.327  17.714  0.00  0.00    +0.000 C 
BRANCH  16  17
ATOM     17  C   UNL     1       2.224   3.623  19.053  0.00  0.00    +0.000 A 
ATOM     18  C   UNL     1       3.385   3.080  19.621  0.00  0.00    +0.000 A 
ATOM     19  C   UNL     1       3.363   2.545  20.913  0.00  0.00    +0.000 A 
ATOM     20  C   UNL     1       2.185   2.560  21.656  0.00  0.00    +0.000 A 
ATOM     21  C   UNL     1       1.020   3.083  21.099  0.00  0.00    +0.000 A 
ATOM     22  C   UNL     1       1.037   3.606  19.804  0.00  0.00    +0.000 A 
ENDBRANCH  16  17
ENDBRANCH  15  16
ENDBRANCH  13  15
ENDBRANCH  12  13
ENDBRANCH   1  12
TORSDOF 7
ENDMDL
MODEL 9
REMARK VINA RESULT:      -6.5      3.093      5.115
REMARK  Name = 
REMARK  8 active torsions:
REMARK  status: ('A' for Active; 'I' for Inactive)
REMARK    1  A    between atoms: C_1  and  C_2
REMARK    2  A    between atoms: C_5  and  S_6
REMARK    3  A    between atoms: S_6  and  C_9
REMARK    4  A    between atoms: C_9  and  C_10
REMARK    5  A    between atoms: C_10  and  C_11
REMARK    6  A    between atoms: C_11  and  O_13
REMARK    7  A    between atoms: O_13  and  C_14
REMARK    8  A    between atoms: C_14  and  C_15
REMARK                            x       y       z     vdW  Elec       q    Type
REMARK                         _______ _______ _______ _____ _____    ______ ____
ROOT
ATOM      1  C   UNL     1       5.237   6.108  18.009  0.00  0.00    +0.000 C 
ENDROOT
BRANCH   1   2
ATOM      2  S   UNL     1       6.873   5.822  17.378  0.00  0.00    +0.000 S 
ATOM      3  O   UNL     1       7.542   4.900  18.278  0.00  0.00    +0.000 OA
ATOM      4  O   UNL     1       7.462   7.112  17.073  0.00  0.00    +0.000 OA
BRANCH   2   9
ATOM      5  C   UNL     1       5.833   3.144  12.019  0.00  0.00    +0.000 C 
ATOM      6  C   UNL     1       6.115   3.770  13.354  0.00  0.00    +0.000 A 
ATOM      7  C   UNL     1       5.330   3.457  14.473  0.00  0.00    +0.000 A 
ATOM      8  C   UNL     1       5.582   4.059  15.707  0.00  0.00    +0.000 A 
ATOM      9  C   UNL     1       6.632   4.973  15.832  0.00  0.00    +0.000 A 
ATOM     10  C   UNL     1       7.414   5.305  14.723  0.00  0.00    +0.000 A 
ATOM     11  C   UNL     1       7.158   4.699  13.490  0.00  0.00    +0.000 A 
ENDBRANCH   2   9
ENDBRANCH   1   2
BRANCH   1  12
ATOM     12  C   UNL     1       4.498   7.104  17.123  0.00  0.00    +0.000 C 
BRANCH  12  13
ATOM     13  C   UNL     1       3.222   7.566  17.772  0.00  0.00    +0.000 C 
ATOM     14  O   UNL     1       2.954   8.738  18.007  0.00  0.00    +0.000 OA
BRANCH  13  15
ATOM     15  O   UNL     1       2.446   6.496  18.077  0.00  0.00    +0.000 OA
BRANCH  15  16
ATOM     16  C   UNL     1       2.299   6.178  19.473  0.00  0.00    +0.000 C 
BRANCH  16  17
ATOM     17  C   UNL     1       1.815   4.759  19.672  0.00  0.00    +0.000 A 
ATOM     18  C   UNL     1       1.560   3.906  18.589  0.00  0.00    +0.000 A 
ATOM     19  C   UNL     1       1.235   2.563  18.800  0.00  0.00    +0.000 A 
ATOM     20  C   UNL     1       1.174   2.054  20.095  0.00  0.00    +0.000 A 
ATOM     21  C   UNL     1       1.410   2.892  21.182  0.00  0.00    +0.000 A 
ATOM     22  C   UNL     1       1.723   4.237  20.973  0.00  0.00    +0.000 A 
ENDBRANCH  16  17
ENDBRANCH  15  16
ENDBRANCH  13  15
ENDBRANCH  12  13
ENDBRANCH   1  12
TORSDOF 7
ENDMDL
