MODEL 1
REMARK VINA RESULT:      -7.3      0.000      0.000
REMARK  Name = 
REMARK  6 active torsions:
REMARK  status: ('A' for Active; 'I' for Inactive)
REMARK    1  A    between atoms: C_1  and  O_2
REMARK    2  A    between atoms: O_2  and  C_3
REMARK    3  A    between atoms: C_3  and  C_4
REMARK    4  A    between atoms: C_4  and  N_5
REMARK    5  A    between atoms: C_13  and  C_15
REMARK    6  A    between atoms: C_19  and  C_20
REMARK                            x       y       z     vdW  Elec       q    Type
REMARK                         _______ _______ _______ _____ _____    ______ ____
ROOT
ATOM      1  N   UNL     1       5.922   4.673  14.783  0.00  0.00    +0.000 N 
ATOM      2  C   UNL     1       5.702   3.392  15.394  0.00  0.00    +0.000 C 
ATOM      3  C   UNL     1       5.503   3.720  16.862  0.00  0.00    +0.000 C 
ATOM      4  C   UNL     1       4.978   5.174  16.883  0.00  0.00    +0.000 C 
ATOM      5  C   UNL     1       5.677   6.017  17.975  0.00  0.00    +0.000 C 
ATOM      6  C   UNL     1       5.192   5.665  19.378  0.00  0.00    +0.000 C 
ATOM      7  C   UNL     1       3.672   5.770  19.438  0.00  0.00    +0.000 C 
ATOM      8  N   UNL     1       3.088   4.881  18.433  0.00  0.00    +0.000 N 
ATOM      9  C   UNL     1       2.296   3.754  18.680  0.00  0.00    +0.000 C 
ATOM     10  O   UNL     1       1.690   3.196  17.764  0.00  0.00    +0.000 OA
ATOM     11  C   UNL     1       3.451   5.230  17.046  0.00  0.00    +0.000 C 
ATOM     12  C   UNL     1       5.420   5.720  15.534  0.00  0.00    +0.000 C 
ATOM     13  O   UNL     1       5.398   6.899  15.215  0.00  0.00    +0.000 OA
ENDROOT
BRANCH   9  14
ATOM     14  C   UNL     1       2.230   3.200  20.026  0.00  0.00    +0.000 A 
ATOM     15  C   UNL     1       1.250   3.311  21.039  0.00  0.00    +0.000 A 
ATOM     16  N   UNL     1       1.580   2.669  22.161  0.00  0.00    +0.000 NA
ATOM     17  O   UNL     1       2.846   2.171  21.927  0.00  0.00    +0.000 OA
ATOM     18  C   UNL     1       3.246   2.514  20.669  0.00  0.00    +0.000 A 
ATOM     19  C   UNL     1       4.617   2.110  20.310  0.00  0.00    +0.000 C 
ENDBRANCH   9  14
BRANCH   1  20
ATOM     20  C   UNL     1       6.750   4.865  13.597  0.00  0.00    +0.000 C 
BRANCH  20  21
ATOM     21  C   UNL     1       6.817   3.667  12.654  0.00  0.00    +0.000 C 
BRANCH  21  23
ATOM     22  C   UNL     1       5.485   2.159  11.431  0.00  0.00    +0.000 C 
ATOM     23  O   UNL     1       5.528   3.413  12.096  0.00  0.00    +0.000 OA
ENDBRANCH  21  23
ENDBRANCH  20  21
ENDBRANCH   1  20
TORSDOF 4
ENDMDL
MODEL 2
REMARK VINA RESULT:      -6.2      1.353      1.466
REMARK  Name = 
REMARK  6 active torsions:
REMARK  status: ('A' for Active; 'I' for Inactive)
REMARK    1  A    between atoms: C_1  and  O_2
REMARK    2  A    between atoms: O_2  and  C_3
REMARK    3  A    between atoms: C_3  and  C_4
REMARK    4  A    between atoms: C_4  and  N_5
REMARK    5  A    between atoms: C_13  and  C_15
REMARK    6  A    between atoms: C_19  and  C_20
REMARK                            x       y       z     vdW  Elec       q    Type
REMARK                         _______ _______ _______ _____ _____    ______ ____
ROOT
ATOM      1  N   UNL     1       6.520   4.844  14.524  0.00  0.00    +0.000 N 
ATOM      2  C   UNL     1       5.428   3.917  14.627  0.00  0.00    +0.000 C 
ATOM      3  C   UNL     1       5.307   3.663  16.118  0.00  0.00    +0.000 C 
ATOM      4  C   UNL     1       5.882   4.931  16.790  0.00  0.00    +0.000 C 
ATOM      5  C   UNL     1       6.813   4.576  17.974  0.00  0.00    +0.000 C 
ATOM      6  C   UNL     1       6.038   4.097  19.198  0.00  0.00    +0.000 C 
ATOM      7  C   UNL     1       4.980   5.130  19.572  0.00  0.00    +0.000 C 
ATOM      8  N   UNL     1       4.091   5.344  18.430  0.00  0.00    +0.000 N 
ATOM      9  C   UNL     1       2.728   5.036  18.367  0.00  0.00    +0.000 C 
ATOM     10  O   UNL     1       2.032   5.442  17.435  0.00  0.00    +0.000 OA
ATOM     11  C   UNL     1       4.772   5.895  17.241  0.00  0.00    +0.000 C 
ATOM     12  C   UNL     1       6.746   5.540  15.698  0.00  0.00    +0.000 C 
ATOM     13  O   UNL     1       7.554   6.441  15.865  0.00  0.00    +0.000 OA
ENDROOT
BRANCH   9  14
ATOM     14  C   UNL     1       2.136   4.178  19.384  0.00  0.00    +0.000 A 
ATOM     15  C   UNL     1       1.446   4.481  20.581  0.00  0.00    +0.000 A 
ATOM     16  N   UNL     1       1.081   3.395  21.265  0.00  0.00    +0.000 NA
ATOM     17  O   UNL     1       1.599   2.334  20.551  0.00  0.00    +0.000 OA
ATOM     18  C   UNL     1       2.254   2.801  19.450  0.00  0.00    +0.000 A 
ATOM     19  C   UNL     1       2.925   1.774  18.632  0.00  0.00    +0.000 C 
ENDBRANCH   9  14
BRANCH   1  20
ATOM     20  C   UNL     1       7.413   4.910  13.373  0.00  0.00    +0.000 C 
BRANCH  20  21
ATOM     21  C   UNL     1       6.829   4.368  12.070  0.00  0.00    +0.000 C 
BRANCH  21  23
ATOM     22  C   UNL     1       5.790   2.328  11.525  0.00  0.00    +0.000 C 
ATOM     23  O   UNL     1       6.963   2.948  12.030  0.00  0.00    +0.000 OA
ENDBRANCH  21  23
ENDBRANCH  20  21
ENDBRANCH   1  20
TORSDOF 4
ENDMDL
MODEL 3
REMARK VINA RESULT:      -6.0      1.675      2.159
REMARK  Name = 
REMARK  6 active torsions:
REMARK  status: ('A' for Active; 'I' for Inactive)
REMARK    1  A    between atoms: C_1  and  O_2
REMARK    2  A    between atoms: O_2  and  C_3
REMARK    3  A    between atoms: C_3  and  C_4
REMARK    4  A    between atoms: C_4  and  N_5
REMARK    5  A    between atoms: C_13  and  C_15
REMARK    6  A    between atoms: C_19  and  C_20
REMARK                            x       y       z     vdW  Elec       q    Type
REMARK                         _______ _______ _______ _____ _____    ______ ____
ROOT
ATOM      1  N   UNL     1       6.544   4.381  14.067  0.00  0.00    +0.000 N 
ATOM      2  C   UNL     1       5.477   3.518  14.491  0.00  0.00    +0.000 C 
ATOM      3  C   UNL     1       5.613   3.489  16.002  0.00  0.00    +0.000 C 
ATOM      4  C   UNL     1       6.308   4.819  16.370  0.00  0.00    +0.000 C 
ATOM      5  C   UNL     1       7.426   4.608  17.418  0.00  0.00    +0.000 C 
ATOM      6  C   UNL     1       6.870   4.341  18.813  0.00  0.00    +0.000 C 
ATOM      7  C   UNL     1       5.903   5.454  19.203  0.00  0.00    +0.000 C 
ATOM      8  N   UNL     1       4.832   5.531  18.208  0.00  0.00    +0.000 N 
ATOM      9  C   UNL     1       3.475   5.265  18.425  0.00  0.00    +0.000 C 
ATOM     10  O   UNL     1       2.633   5.555  17.574  0.00  0.00    +0.000 OA
ATOM     11  C   UNL     1       5.303   5.877  16.853  0.00  0.00    +0.000 C 
ATOM     12  C   UNL     1       6.977   5.231  15.068  0.00  0.00    +0.000 C 
ATOM     13  O   UNL     1       7.809   6.118  14.959  0.00  0.00    +0.000 OA
ENDROOT
BRANCH   9  14
ATOM     14  C   UNL     1       3.060   4.587  19.645  0.00  0.00    +0.000 A 
ATOM     15  C   UNL     1       3.241   3.256  20.087  0.00  0.00    +0.000 A 
ATOM     16  N   UNL     1       2.674   3.015  21.270  0.00  0.00    +0.000 NA
ATOM     17  O   UNL     1       2.033   4.190  21.604  0.00  0.00    +0.000 OA
ATOM     18  C   UNL     1       2.235   5.115  20.623  0.00  0.00    +0.000 A 
ATOM     19  C   UNL     1       1.539   6.400  20.814  0.00  0.00    +0.000 C 
ENDBRANCH   9  14
BRANCH   1  20
ATOM     20  C   UNL     1       7.225   4.245  12.784  0.00  0.00    +0.000 C 
BRANCH  20  21
ATOM     21  C   UNL     1       6.501   3.379  11.756  0.00  0.00    +0.000 C 
BRANCH  21  23
ATOM     22  C   UNL     1       6.519   1.135  11.046  0.00  0.00    +0.000 C 
ATOM     23  O   UNL     1       7.310   2.257  11.408  0.00  0.00    +0.000 OA
ENDBRANCH  21  23
ENDBRANCH  20  21
ENDBRANCH   1  20
TORSDOF 4
ENDMDL
MODEL 4
REMARK VINA RESULT:      -5.8      2.130      2.904
REMARK  Name = 
REMARK  6 active torsions:
REMARK  status: ('A' for Active; 'I' for Inactive)
REMARK    1  A    between atoms: C_1  and  O_2
REMARK    2  A    between atoms: O_2  and  C_3
REMARK    3  A    between atoms: C_3  and  C_4
REMARK    4  A    between atoms: C_4  and  N_5
REMARK    5  A    between atoms: C_13  and  C_15
REMARK    6  A    between atoms: C_19  and  C_20
REMARK                            x       y       z     vdW  Elec       q    Type
REMARK                         _______ _______ _______ _____ _____    ______ ____
ROOT
ATOM      1  N   UNL     1       6.218   4.312  13.745  0.00  0.00    +0.000 N 
ATOM      2  C   UNL     1       4.931   3.885  14.216  0.00  0.00    +0.000 C 
ATOM      3  C   UNL     1       5.062   3.933  15.727  0.00  0.00    +0.000 C 
ATOM      4  C   UNL     1       6.160   4.986  16.002  0.00  0.00    +0.000 C 
ATOM      5  C   UNL     1       7.155   4.502  17.083  0.00  0.00    +0.000 C 
ATOM      6  C   UNL     1       6.554   4.545  18.485  0.00  0.00    +0.000 C 
ATOM      7  C   UNL     1       6.011   5.941  18.769  0.00  0.00    +0.000 C 
ATOM      8  N   UNL     1       5.016   6.287  17.753  0.00  0.00    +0.000 N 
ATOM      9  C   UNL     1       3.649   6.500  17.965  0.00  0.00    +0.000 C 
ATOM     10  O   UNL     1       2.942   6.982  17.079  0.00  0.00    +0.000 OA
ATOM     11  C   UNL     1       5.563   6.350  16.383  0.00  0.00    +0.000 C 
ATOM     12  C   UNL     1       6.915   5.050  14.684  0.00  0.00    +0.000 C 
ATOM     13  O   UNL     1       7.993   5.602  14.521  0.00  0.00    +0.000 OA
ENDROOT
BRANCH   9  14
ATOM     14  C   UNL     1       3.044   6.095  19.226  0.00  0.00    +0.000 A 
ATOM     15  C   UNL     1       2.999   4.846  19.887  0.00  0.00    +0.000 A 
ATOM     16  N   UNL     1       2.310   4.881  21.028  0.00  0.00    +0.000 NA
ATOM     17  O   UNL     1       1.816   6.167  21.107  0.00  0.00    +0.000 OA
ATOM     18  C   UNL     1       2.225   6.880  20.019  0.00  0.00    +0.000 A 
ATOM     19  C   UNL     1       1.705   8.257  19.933  0.00  0.00    +0.000 C 
ENDBRANCH   9  14
BRANCH   1  20
ATOM     20  C   UNL     1       6.806   3.860  12.489  0.00  0.00    +0.000 C 
BRANCH  20  21
ATOM     21  C   UNL     1       6.000   2.798  11.744  0.00  0.00    +0.000 C 
BRANCH  21  23
ATOM     22  C   UNL     1       6.231   0.539  11.125  0.00  0.00    +0.000 C 
ATOM     23  O   UNL     1       6.875   1.801  11.220  0.00  0.00    +0.000 OA
ENDBRANCH  21  23
ENDBRANCH  20  21
ENDBRANCH   1  20
TORSDOF 4
ENDMDL
MODEL 5
REMARK VINA RESULT:      -5.8      0.968      1.454
REMARK  Name = 
REMARK  6 active torsions:
REMARK  status: ('A' for Active; 'I' for Inactive)
REMARK    1  A    between atoms: C_1  and  O_2
REMARK    2  A    between atoms: O_2  and  C_3
REMARK    3  A    between atoms: C_3  and  C_4
REMARK    4  A    between atoms: C_4  and  N_5
REMARK    5  A    between atoms: C_13  and  C_15
REMARK    6  A    between atoms: C_19  and  C_20
REMARK                            x       y       z     vdW  Elec       q    Type
REMARK                         _______ _______ _______ _____ _____    ______ ____
ROOT
ATOM      1  N   UNL     1       6.645   4.858  14.736  0.00  0.00    +0.000 N 
ATOM      2  C   UNL     1       6.849   3.708  15.573  0.00  0.00    +0.000 C 
ATOM      3  C   UNL     1       6.300   4.138  16.920  0.00  0.00    +0.000 C 
ATOM      4  C   UNL     1       5.251   5.227  16.599  0.00  0.00    +0.000 C 
ATOM      5  C   UNL     1       5.373   6.437  17.555  0.00  0.00    +0.000 C 
ATOM      6  C   UNL     1       4.843   6.128  18.952  0.00  0.00    +0.000 C 
ATOM      7  C   UNL     1       3.416   5.598  18.854  0.00  0.00    +0.000 C 
ATOM      8  N   UNL     1       3.401   4.408  18.004  0.00  0.00    +0.000 N 
ATOM      9  C   UNL     1       3.087   3.104  18.403  0.00  0.00    +0.000 C 
ATOM     10  O   UNL     1       2.908   2.215  17.569  0.00  0.00    +0.000 OA
ATOM     11  C   UNL     1       3.819   4.666  16.612  0.00  0.00    +0.000 C 
ATOM     12  C   UNL     1       5.657   5.700  15.212  0.00  0.00    +0.000 C 
ATOM     13  O   UNL     1       5.226   6.700  14.659  0.00  0.00    +0.000 OA
ENDROOT
BRANCH   9  14
ATOM     14  C   UNL     1       3.024   2.780  19.822  0.00  0.00    +0.000 A 
ATOM     15  C   UNL     1       3.941   2.126  20.676  0.00  0.00    +0.000 A 
ATOM     16  N   UNL     1       3.493   1.995  21.926  0.00  0.00    +0.000 NA
ATOM     17  O   UNL     1       2.212   2.508  21.900  0.00  0.00    +0.000 OA
ATOM     18  C   UNL     1       1.921   2.946  20.641  0.00  0.00    +0.000 A 
ATOM     19  C   UNL     1       0.551   3.453  20.450  0.00  0.00    +0.000 C 
ENDBRANCH   9  14
BRANCH   1  20
ATOM     20  C   UNL     1       7.512   5.198  13.614  0.00  0.00    +0.000 C 
BRANCH  20  21
ATOM     21  C   UNL     1       7.097   4.601  12.271  0.00  0.00    +0.000 C 
BRANCH  21  23
ATOM     22  C   UNL     1       5.202   3.260  11.882  0.00  0.00    +0.000 C 
ATOM     23  O   UNL     1       6.492   3.325  12.472  0.00  0.00    +0.000 OA
ENDBRANCH  21  23
ENDBRANCH  20  21
ENDBRANCH   1  20
TORSDOF 4
ENDMDL
MODEL 6
REMARK VINA RESULT:      -5.7      2.565      7.428
REMARK  Name = 
REMARK  6 active torsions:
REMARK  status: ('A' for Active; 'I' for Inactive)
REMARK    1  A    between atoms: C_1  and  O_2
REMARK    2  A    between atoms: O_2  and  C_3
REMARK    3  A    between atoms: C_3  and  C_4
REMARK    4  A    between atoms: C_4  and  N_5
REMARK    5  A    between atoms: C_13  and  C_15
REMARK    6  A    between atoms: C_19  and  C_20
REMARK                            x       y       z     vdW  Elec       q    Type
REMARK                         _______ _______ _______ _____ _____    ______ ____
ROOT
ATOM      1  N   UNL     1       2.872   6.251  19.325  0.00  0.00    +0.000 N 
ATOM      2  C   UNL     1       2.910   6.852  18.022  0.00  0.00    +0.000 C 
ATOM      3  C   UNL     1       4.353   6.677  17.584  0.00  0.00    +0.000 C 
ATOM      4  C   UNL     1       4.861   5.440  18.358  0.00  0.00    +0.000 C 
ATOM      5  C   UNL     1       6.275   5.674  18.943  0.00  0.00    +0.000 C 
ATOM      6  C   UNL     1       7.359   5.634  17.870  0.00  0.00    +0.000 C 
ATOM      7  C   UNL     1       7.257   4.330  17.085  0.00  0.00    +0.000 C 
ATOM      8  N   UNL     1       5.921   4.227  16.496  0.00  0.00    +0.000 N 
ATOM      9  C   UNL     1       5.612   4.229  15.131  0.00  0.00    +0.000 C 
ATOM     10  O   UNL     1       4.481   3.934  14.741  0.00  0.00    +0.000 OA
ATOM     11  C   UNL     1       4.834   4.170  17.493  0.00  0.00    +0.000 C 
ATOM     12  C   UNL     1       3.896   5.343  19.529  0.00  0.00    +0.000 C 
ATOM     13  O   UNL     1       4.053   4.633  20.510  0.00  0.00    +0.000 OA
ENDROOT
BRANCH   9  14
ATOM     14  C   UNL     1       6.621   4.639  14.164  0.00  0.00    +0.000 A 
ATOM     15  C   UNL     1       7.590   5.669  14.198  0.00  0.00    +0.000 A 
ATOM     16  N   UNL     1       8.319   5.740  13.083  0.00  0.00    +0.000 NA
ATOM     17  O   UNL     1       7.784   4.783  12.246  0.00  0.00    +0.000 OA
ATOM     18  C   UNL     1       6.753   4.150  12.876  0.00  0.00    +0.000 A 
ATOM     19  C   UNL     1       6.036   3.149  12.065  0.00  0.00    +0.000 C 
ENDBRANCH   9  14
BRANCH   1  20
ATOM     20  C   UNL     1       1.969   6.687  20.385  0.00  0.00    +0.000 C 
BRANCH  20  21
ATOM     21  C   UNL     1       1.599   8.168  20.351  0.00  0.00    +0.000 C 
BRANCH  21  23
ATOM     22  C   UNL     1      -0.055   9.122  21.727  0.00  0.00    +0.000 C 
ATOM     23  O   UNL     1       1.272   8.619  21.664  0.00  0.00    +0.000 OA
ENDBRANCH  21  23
ENDBRANCH  20  21
ENDBRANCH   1  20
TORSDOF 4
ENDMDL
MODEL 7
REMARK VINA RESULT:      -5.7      2.109      2.654
REMARK  Name = 
REMARK  6 active torsions:
REMARK  status: ('A' for Active; 'I' for Inactive)
REMARK    1  A    between atoms: C_1  and  O_2
REMARK    2  A    between atoms: O_2  and  C_3
REMARK    3  A    between atoms: C_3  and  C_4
REMARK    4  A    between atoms: C_4  and  N_5
REMARK    5  A    between atoms: C_13  and  C_15
REMARK    6  A    between atoms: C_19  and  C_20
REMARK                            x       y       z     vdW  Elec       q    Type
REMARK                         _______ _______ _______ _____ _____    ______ ____
ROOT
ATOM      1  N   UNL     1       6.278   4.490  13.885  0.00  0.00    +0.000 N 
ATOM      2  C   UNL     1       4.896   4.214  14.166  0.00  0.00    +0.000 C 
ATOM      3  C   UNL     1       4.834   4.180  15.682  0.00  0.00    +0.000 C 
ATOM      4  C   UNL     1       6.007   5.068  16.153  0.00  0.00    +0.000 C 
ATOM      5  C   UNL     1       6.786   4.414  17.320  0.00  0.00    +0.000 C 
ATOM      6  C   UNL     1       6.016   4.474  18.636  0.00  0.00    +0.000 C 
ATOM      7  C   UNL     1       5.616   5.916  18.932  0.00  0.00    +0.000 C 
ATOM      8  N   UNL     1       4.814   6.431  17.822  0.00  0.00    +0.000 N 
ATOM      9  C   UNL     1       3.468   6.810  17.874  0.00  0.00    +0.000 C 
ATOM     10  O   UNL     1       2.947   7.418  16.937  0.00  0.00    +0.000 OA
ATOM     11  C   UNL     1       5.539   6.481  16.537  0.00  0.00    +0.000 C 
ATOM     12  C   UNL     1       6.931   5.090  14.946  0.00  0.00    +0.000 C 
ATOM     13  O   UNL     1       8.081   5.505  14.951  0.00  0.00    +0.000 OA
ENDROOT
BRANCH   9  14
ATOM     14  C   UNL     1       2.657   6.434  19.024  0.00  0.00    +0.000 A 
ATOM     15  C   UNL     1       2.233   7.170  20.154  0.00  0.00    +0.000 A 
ATOM     16  N   UNL     1       1.516   6.445  21.014  0.00  0.00    +0.000 NA
ATOM     17  O   UNL     1       1.515   5.169  20.489  0.00  0.00    +0.000 OA
ATOM     18  C   UNL     1       2.221   5.154  19.322  0.00  0.00    +0.000 A 
ATOM     19  C   UNL     1       2.367   3.832  18.689  0.00  0.00    +0.000 C 
ENDBRANCH   9  14
BRANCH   1  20
ATOM     20  C   UNL     1       6.964   4.019  12.687  0.00  0.00    +0.000 C 
BRANCH  20  21
ATOM     21  C   UNL     1       6.192   2.994  11.861  0.00  0.00    +0.000 C 
BRANCH  21  23
ATOM     22  C   UNL     1       6.404   0.801  11.032  0.00  0.00    +0.000 C 
ATOM     23  O   UNL     1       7.085   2.005  11.353  0.00  0.00    +0.000 OA
ENDBRANCH  21  23
ENDBRANCH  20  21
ENDBRANCH   1  20
TORSDOF 4
ENDMDL
MODEL 8
REMARK VINA RESULT:      -5.6      2.044      7.031
REMARK  Name = 
REMARK  6 active torsions:
REMARK  status: ('A' for Active; 'I' for Inactive)
REMARK    1  A    between atoms: C_1  and  O_2
REMARK    2  A    between atoms: O_2  and  C_3
REMARK    3  A    between atoms: C_3  and  C_4
REMARK    4  A    between atoms: C_4  and  N_5
REMARK    5  A    between atoms: C_13  and  C_15
REMARK    6  A    between atoms: C_19  and  C_20
REMARK                            x       y       z     vdW  Elec       q    Type
REMARK                         _______ _______ _______ _____ _____    ______ ____
ROOT
ATOM      1  N   UNL     1       2.995   6.021  19.211  0.00  0.00    +0.000 N 
ATOM      2  C   UNL     1       2.908   6.546  17.877  0.00  0.00    +0.000 C 
ATOM      3  C   UNL     1       4.337   6.491  17.371  0.00  0.00    +0.000 C 
ATOM      4  C   UNL     1       5.008   5.359  18.181  0.00  0.00    +0.000 C 
ATOM      5  C   UNL     1       6.416   5.767  18.674  0.00  0.00    +0.000 C 
ATOM      6  C   UNL     1       7.446   5.774  17.548  0.00  0.00    +0.000 C 
ATOM      7  C   UNL     1       7.440   4.423  16.840  0.00  0.00    +0.000 C 
ATOM      8  N   UNL     1       6.096   4.152  16.330  0.00  0.00    +0.000 N 
ATOM      9  C   UNL     1       5.721   4.044  14.986  0.00  0.00    +0.000 C 
ATOM     10  O   UNL     1       4.609   3.615  14.674  0.00  0.00    +0.000 OA
ATOM     11  C   UNL     1       5.070   4.044  17.387  0.00  0.00    +0.000 C 
ATOM     12  C   UNL     1       4.116   5.234  19.406  0.00  0.00    +0.000 C 
ATOM     13  O   UNL     1       4.394   4.601  20.413  0.00  0.00    +0.000 OA
ENDROOT
BRANCH   9  14
ATOM     14  C   UNL     1       6.634   4.496  13.946  0.00  0.00    +0.000 A 
ATOM     15  C   UNL     1       7.547   5.575  13.901  0.00  0.00    +0.000 A 
ATOM     16  N   UNL     1       8.189   5.673  12.736  0.00  0.00    +0.000 NA
ATOM     17  O   UNL     1       7.645   4.680  11.946  0.00  0.00    +0.000 OA
ATOM     18  C   UNL     1       6.698   4.001  12.654  0.00  0.00    +0.000 A 
ATOM     19  C   UNL     1       5.978   2.956  11.905  0.00  0.00    +0.000 C 
ENDBRANCH   9  14
BRANCH   1  20
ATOM     20  C   UNL     1       2.105   6.425  20.293  0.00  0.00    +0.000 C 
BRANCH  20  21
ATOM     21  C   UNL     1       1.189   5.324  20.823  0.00  0.00    +0.000 C 
BRANCH  21  23
ATOM     22  C   UNL     1       1.120   3.002  20.445  0.00  0.00    +0.000 C 
ATOM     23  O   UNL     1       1.058   4.289  19.850  0.00  0.00    +0.000 OA
ENDBRANCH  21  23
ENDBRANCH  20  21
ENDBRANCH   1  20
TORSDOF 4
ENDMDL
MODEL 9
REMARK VINA RESULT:      -5.6      2.715      4.327
REMARK  Name = 
REMARK  6 active torsions:
REMARK  status: ('A' for Active; 'I' for Inactive)
REMARK    1  A    between atoms: C_1  and  O_2
REMARK    2  A    between atoms: O_2  and  C_3
REMARK    3  A    between atoms: C_3  and  C_4
REMARK    4  A    between atoms: C_4  and  N_5
REMARK    5  A    between atoms: C_13  and  C_15
REMARK    6  A    between atoms: C_19  and  C_20
REMARK                            x       y       z     vdW  Elec       q    Type
REMARK                         _______ _______ _______ _____ _____    ______ ____
ROOT
ATOM      1  N   UNL     1       7.105   6.838  17.583  0.00  0.00    +0.000 N 
ATOM      2  C   UNL     1       7.087   6.213  18.876  0.00  0.00    +0.000 C 
ATOM      3  C   UNL     1       5.609   6.105  19.206  0.00  0.00    +0.000 C 
ATOM      4  C   UNL     1       4.893   6.068  17.837  0.00  0.00    +0.000 C 
ATOM      5  C   UNL     1       3.644   6.982  17.823  0.00  0.00    +0.000 C 
ATOM      6  C   UNL     1       2.482   6.387  18.614  0.00  0.00    +0.000 C 
ATOM      7  C   UNL     1       2.186   4.978  18.111  0.00  0.00    +0.000 C 
ATOM      8  N   UNL     1       3.391   4.158  18.238  0.00  0.00    +0.000 N 
ATOM      9  C   UNL     1       3.557   3.045  19.070  0.00  0.00    +0.000 C 
ATOM     10  O   UNL     1       4.537   2.309  18.951  0.00  0.00    +0.000 OA
ATOM     11  C   UNL     1       4.524   4.635  17.420  0.00  0.00    +0.000 C 
ATOM     12  C   UNL     1       5.916   6.683  16.894  0.00  0.00    +0.000 C 
ATOM     13  O   UNL     1       5.686   7.041  15.749  0.00  0.00    +0.000 OA
ENDROOT
BRANCH   9  14
ATOM     14  C   UNL     1       2.589   2.786  20.127  0.00  0.00    +0.000 A 
ATOM     15  C   UNL     1       2.727   2.725  21.533  0.00  0.00    +0.000 A 
ATOM     16  N   UNL     1       1.589   2.426  22.160  0.00  0.00    +0.000 NA
ATOM     17  O   UNL     1       0.673   2.209  21.151  0.00  0.00    +0.000 OA
ATOM     18  C   UNL     1       1.275   2.391  19.941  0.00  0.00    +0.000 A 
ATOM     19  C   UNL     1       0.428   2.115  18.766  0.00  0.00    +0.000 C 
ENDBRANCH   9  14
BRANCH   1  20
ATOM     20  C   UNL     1       8.186   7.703  17.124  0.00  0.00    +0.000 C 
BRANCH  20  21
ATOM     21  C   UNL     1       8.120   9.143  17.627  0.00  0.00    +0.000 C 
BRANCH  21  23
ATOM     22  C   UNL     1       9.477  10.581  18.904  0.00  0.00    +0.000 C 
ATOM     23  O   UNL     1       8.908   9.283  18.807  0.00  0.00    +0.000 OA
ENDBRANCH  21  23
ENDBRANCH  20  21
ENDBRANCH   1  20
TORSDOF 4
ENDMDL
