MODEL 1
REMARK VINA RESULT:      -7.7      0.000      0.000
REMARK  Name = 
REMARK  4 active torsions:
REMARK  status: ('A' for Active; 'I' for Inactive)
REMARK    1  A    between atoms: C_1  and  C_2
REMARK    2  A    between atoms: C_2  and  N_3
REMARK    3  A    between atoms: N_5  and  C_6
REMARK    4  A    between atoms: C_9  and  C_10
REMARK                            x       y       z     vdW  Elec       q    Type
REMARK                         _______ _______ _______ _____ _____    ______ ____
ROOT
ATOM      1  N   UNL     1       3.296   4.642  19.291  0.00  0.00    +0.000 N 
ATOM      2  C   UNL     1       3.197   6.040  19.122  0.00  0.00    +0.000 A 
ATOM      3  N   UNL     1       2.533   6.763  20.096  0.00  0.00    +0.000 N 
ATOM      4  N   UNL     1       3.729   6.680  18.111  0.00  0.00    +0.000 NA
ATOM      5  C   UNL     1       4.423   5.911  17.185  0.00  0.00    +0.000 A 
ATOM      6  C   UNL     1       5.114   6.451  16.080  0.00  0.00    +0.000 A 
ATOM      7  C   UNL     1       5.715   5.452  15.340  0.00  0.00    +0.000 A 
ATOM      8  S   UNL     1       5.423   3.892  16.006  0.00  0.00    +0.000 S 
ATOM      9  C   UNL     1       4.520   4.558  17.274  0.00  0.00    +0.000 A 
ATOM     10  C   UNL     1       3.918   3.812  18.337  0.00  0.00    +0.000 A 
ATOM     11  O   UNL     1       3.931   2.584  18.416  0.00  0.00    +0.000 OA
ATOM     12  H   UNL     1       2.949   6.699  21.015  0.00  0.00    +0.000 HD
ENDROOT
BRANCH   3  13
ATOM     13  C   UNL     1       1.831   7.973  19.890  0.00  0.00    +0.000 A 
ATOM     14  C   UNL     1       1.794   8.610  18.642  0.00  0.00    +0.000 A 
ATOM     15  C   UNL     1       0.927   9.681  18.398  0.00  0.00    +0.000 A 
ATOM     16  C   UNL     1       0.072  10.143  19.401  0.00  0.00    +0.000 A 
ATOM     17  C   UNL     1      -0.969  11.183  19.108  0.00  0.00    +0.000 C 
ATOM     18  C   UNL     1       0.161   9.572  20.674  0.00  0.00    +0.000 A 
ATOM     19  C   UNL     1       1.024   8.494  20.913  0.00  0.00    +0.000 A 
ENDBRANCH   3  13
BRANCH   1  21
ATOM     20  C   UNL     1       1.149   3.714  20.137  0.00  0.00    +0.000 C 
ATOM     21  C   UNL     1       2.635   3.930  20.389  0.00  0.00    +0.000 C 
ENDBRANCH   1  21
TORSDOF 2
ENDMDL
MODEL 2
REMARK VINA RESULT:      -7.4      2.522      6.172
REMARK  Name = 
REMARK  4 active torsions:
REMARK  status: ('A' for Active; 'I' for Inactive)
REMARK    1  A    between atoms: C_1  and  C_2
REMARK    2  A    between atoms: C_2  and  N_3
REMARK    3  A    between atoms: N_5  and  C_6
REMARK    4  A    between atoms: C_9  and  C_10
REMARK                            x       y       z     vdW  Elec       q    Type
REMARK                         _______ _______ _______ _____ _____    ______ ____
ROOT
ATOM      1  N   UNL     1       3.257   4.258  19.133  0.00  0.00    +0.000 N 
ATOM      2  C   UNL     1       3.717   4.652  17.858  0.00  0.00    +0.000 A 
ATOM      3  N   UNL     1       4.326   3.695  17.067  0.00  0.00    +0.000 N 
ATOM      4  N   UNL     1       3.563   5.862  17.382  0.00  0.00    +0.000 NA
ATOM      5  C   UNL     1       2.905   6.772  18.200  0.00  0.00    +0.000 A 
ATOM      6  C   UNL     1       2.596   8.093  17.813  0.00  0.00    +0.000 A 
ATOM      7  C   UNL     1       1.934   8.760  18.824  0.00  0.00    +0.000 A 
ATOM      8  S   UNL     1       1.709   7.768  20.213  0.00  0.00    +0.000 S 
ATOM      9  C   UNL     1       2.474   6.462  19.452  0.00  0.00    +0.000 A 
ATOM     10  C   UNL     1       2.659   5.165  20.029  0.00  0.00    +0.000 A 
ATOM     11  O   UNL     1       2.339   4.867  21.180  0.00  0.00    +0.000 OA
ATOM     12  H   UNL     1       3.733   2.910  16.835  0.00  0.00    +0.000 HD
ENDROOT
BRANCH   3  13
ATOM     13  C   UNL     1       5.322   3.942  16.093  0.00  0.00    +0.000 A 
ATOM     14  C   UNL     1       5.105   3.707  14.728  0.00  0.00    +0.000 A 
ATOM     15  C   UNL     1       6.011   4.154  13.761  0.00  0.00    +0.000 A 
ATOM     16  C   UNL     1       7.163   4.849  14.136  0.00  0.00    +0.000 A 
ATOM     17  C   UNL     1       8.060   5.467  13.105  0.00  0.00    +0.000 C 
ATOM     18  C   UNL     1       7.433   5.014  15.498  0.00  0.00    +0.000 A 
ATOM     19  C   UNL     1       6.519   4.573  16.464  0.00  0.00    +0.000 A 
ENDBRANCH   3  13
BRANCH   1  21
ATOM     20  C   UNL     1       2.384   1.939  19.344  0.00  0.00    +0.000 C 
ATOM     21  C   UNL     1       3.499   2.920  19.681  0.00  0.00    +0.000 C 
ENDBRANCH   1  21
TORSDOF 2
ENDMDL
MODEL 3
REMARK VINA RESULT:      -7.4      1.587      3.256
REMARK  Name = 
REMARK  4 active torsions:
REMARK  status: ('A' for Active; 'I' for Inactive)
REMARK    1  A    between atoms: C_1  and  C_2
REMARK    2  A    between atoms: C_2  and  N_3
REMARK    3  A    between atoms: N_5  and  C_6
REMARK    4  A    between atoms: C_9  and  C_10
REMARK                            x       y       z     vdW  Elec       q    Type
REMARK                         _______ _______ _______ _____ _____    ______ ____
ROOT
ATOM      1  N   UNL     1       4.505   5.577  18.256  0.00  0.00    +0.000 N 
ATOM      2  C   UNL     1       3.202   6.120  18.269  0.00  0.00    +0.000 A 
ATOM      3  N   UNL     1       3.071   7.489  18.126  0.00  0.00    +0.000 N 
ATOM      4  N   UNL     1       2.122   5.388  18.376  0.00  0.00    +0.000 NA
ATOM      5  C   UNL     1       2.309   4.015  18.473  0.00  0.00    +0.000 A 
ATOM      6  C   UNL     1       1.251   3.082  18.523  0.00  0.00    +0.000 A 
ATOM      7  C   UNL     1       1.736   1.792  18.608  0.00  0.00    +0.000 A 
ATOM      8  S   UNL     1       3.457   1.750  18.627  0.00  0.00    +0.000 S 
ATOM      9  C   UNL     1       3.539   3.437  18.504  0.00  0.00    +0.000 A 
ATOM     10  C   UNL     1       4.748   4.201  18.434  0.00  0.00    +0.000 A 
ATOM     11  O   UNL     1       5.878   3.719  18.522  0.00  0.00    +0.000 OA
ATOM     12  H   UNL     1       3.432   7.850  17.254  0.00  0.00    +0.000 HD
ENDROOT
BRANCH   3  13
ATOM     13  C   UNL     1       2.026   8.278  18.661  0.00  0.00    +0.000 A 
ATOM     14  C   UNL     1       1.703   8.259  20.026  0.00  0.00    +0.000 A 
ATOM     15  C   UNL     1       0.820   9.195  20.575  0.00  0.00    +0.000 A 
ATOM     16  C   UNL     1       0.236  10.176  19.771  0.00  0.00    +0.000 A 
ATOM     17  C   UNL     1      -0.586  11.277  20.373  0.00  0.00    +0.000 C 
ATOM     18  C   UNL     1       0.485  10.152  18.395  0.00  0.00    +0.000 A 
ATOM     19  C   UNL     1       1.376   9.218  17.849  0.00  0.00    +0.000 A 
ENDBRANCH   3  13
BRANCH   1  21
ATOM     20  C   UNL     1       6.218   6.624  16.787  0.00  0.00    +0.000 C 
ATOM     21  C   UNL     1       5.709   6.413  18.207  0.00  0.00    +0.000 C 
ENDBRANCH   1  21
TORSDOF 2
ENDMDL
MODEL 4
REMARK VINA RESULT:      -7.4      1.044      1.161
REMARK  Name = 
REMARK  4 active torsions:
REMARK  status: ('A' for Active; 'I' for Inactive)
REMARK    1  A    between atoms: C_1  and  C_2
REMARK    2  A    between atoms: C_2  and  N_3
REMARK    3  A    between atoms: N_5  and  C_6
REMARK    4  A    between atoms: C_9  and  C_10
REMARK                            x       y       z     vdW  Elec       q    Type
REMARK                         _______ _______ _______ _____ _____    ______ ____
ROOT
ATOM      1  N   UNL     1       2.293   4.756  19.559  0.00  0.00    +0.000 N 
ATOM      2  C   UNL     1       2.494   6.148  19.682  0.00  0.00    +0.000 A 
ATOM      3  N   UNL     1       1.849   6.805  20.714  0.00  0.00    +0.000 N 
ATOM      4  N   UNL     1       3.281   6.831  18.891  0.00  0.00    +0.000 NA
ATOM      5  C   UNL     1       3.939   6.114  17.899  0.00  0.00    +0.000 A 
ATOM      6  C   UNL     1       4.875   6.685  17.011  0.00  0.00    +0.000 A 
ATOM      7  C   UNL     1       5.372   5.733  16.142  0.00  0.00    +0.000 A 
ATOM      8  S   UNL     1       4.688   4.179  16.428  0.00  0.00    +0.000 S 
ATOM      9  C   UNL     1       3.757   4.780  17.708  0.00  0.00    +0.000 A 
ATOM     10  C   UNL     1       2.873   4.001  18.521  0.00  0.00    +0.000 A 
ATOM     11  O   UNL     1       2.635   2.807  18.338  0.00  0.00    +0.000 OA
ATOM     12  H   UNL     1       2.106   6.481  21.636  0.00  0.00    +0.000 HD
ENDROOT
BRANCH   3  13
ATOM     13  C   UNL     1       1.433   8.157  20.698  0.00  0.00    +0.000 A 
ATOM     14  C   UNL     1       1.231   8.861  19.502  0.00  0.00    +0.000 A 
ATOM     15  C   UNL     1       0.618  10.118  19.494  0.00  0.00    +0.000 A 
ATOM     16  C   UNL     1       0.190  10.705  20.686  0.00  0.00    +0.000 A 
ATOM     17  C   UNL     1      -0.606  11.976  20.677  0.00  0.00    +0.000 C 
ATOM     18  C   UNL     1       0.462  10.052  21.892  0.00  0.00    +0.000 A 
ATOM     19  C   UNL     1       1.068   8.788  21.896  0.00  0.00    +0.000 A 
ENDBRANCH   3  13
BRANCH   1  21
ATOM     20  C   UNL     1       2.032   3.370  21.609  0.00  0.00    +0.000 C 
ATOM     21  C   UNL     1       1.353   4.015  20.408  0.00  0.00    +0.000 C 
ENDBRANCH   1  21
TORSDOF 2
ENDMDL
MODEL 5
REMARK VINA RESULT:      -7.4      0.444      1.160
REMARK  Name = 
REMARK  4 active torsions:
REMARK  status: ('A' for Active; 'I' for Inactive)
REMARK    1  A    between atoms: C_1  and  C_2
REMARK    2  A    between atoms: C_2  and  N_3
REMARK    3  A    between atoms: N_5  and  C_6
REMARK    4  A    between atoms: C_9  and  C_10
REMARK                            x       y       z     vdW  Elec       q    Type
REMARK                         _______ _______ _______ _____ _____    ______ ____
ROOT
ATOM      1  N   UNL     1       3.356   4.547  19.241  0.00  0.00    +0.000 N 
ATOM      2  C   UNL     1       3.240   5.946  19.085  0.00  0.00    +0.000 A 
ATOM      3  N   UNL     1       2.571   6.653  20.066  0.00  0.00    +0.000 N 
ATOM      4  N   UNL     1       3.763   6.600  18.077  0.00  0.00    +0.000 NA
ATOM      5  C   UNL     1       4.463   5.846  17.144  0.00  0.00    +0.000 A 
ATOM      6  C   UNL     1       5.145   6.403  16.041  0.00  0.00    +0.000 A 
ATOM      7  C   UNL     1       5.756   5.417  15.292  0.00  0.00    +0.000 A 
ATOM      8  S   UNL     1       5.484   3.848  15.946  0.00  0.00    +0.000 S 
ATOM      9  C   UNL     1       4.576   4.493  17.222  0.00  0.00    +0.000 A 
ATOM     10  C   UNL     1       3.985   3.733  18.280  0.00  0.00    +0.000 A 
ATOM     11  O   UNL     1       4.012   2.504  18.349  0.00  0.00    +0.000 OA
ATOM     12  H   UNL     1       2.989   6.586  20.983  0.00  0.00    +0.000 HD
ENDROOT
BRANCH   3  13
ATOM     13  C   UNL     1       1.854   7.857  19.871  0.00  0.00    +0.000 A 
ATOM     14  C   UNL     1       1.240   8.539  20.932  0.00  0.00    +0.000 A 
ATOM     15  C   UNL     1       0.723   9.828  20.764  0.00  0.00    +0.000 A 
ATOM     16  C   UNL     1       0.806  10.469  19.526  0.00  0.00    +0.000 A 
ATOM     17  C   UNL     1       0.399  11.905  19.373  0.00  0.00    +0.000 C 
ATOM     18  C   UNL     1       1.339   9.767  18.440  0.00  0.00    +0.000 A 
ATOM     19  C   UNL     1       1.863   8.479  18.614  0.00  0.00    +0.000 A 
ENDBRANCH   3  13
BRANCH   1  21
ATOM     20  C   UNL     1       1.223   3.580  20.080  0.00  0.00    +0.000 C 
ATOM     21  C   UNL     1       2.706   3.820  20.336  0.00  0.00    +0.000 C 
ENDBRANCH   1  21
TORSDOF 2
ENDMDL
MODEL 6
REMARK VINA RESULT:      -7.4      1.539      3.375
REMARK  Name = 
REMARK  4 active torsions:
REMARK  status: ('A' for Active; 'I' for Inactive)
REMARK    1  A    between atoms: C_1  and  C_2
REMARK    2  A    between atoms: C_2  and  N_3
REMARK    3  A    between atoms: N_5  and  C_6
REMARK    4  A    between atoms: C_9  and  C_10
REMARK                            x       y       z     vdW  Elec       q    Type
REMARK                         _______ _______ _______ _____ _____    ______ ____
ROOT
ATOM      1  N   UNL     1       4.325   5.730  18.303  0.00  0.00    +0.000 N 
ATOM      2  C   UNL     1       3.090   6.325  18.641  0.00  0.00    +0.000 A 
ATOM      3  N   UNL     1       2.783   7.545  18.068  0.00  0.00    +0.000 N 
ATOM      4  N   UNL     1       2.219   5.763  19.440  0.00  0.00    +0.000 NA
ATOM      5  C   UNL     1       2.559   4.517  19.953  0.00  0.00    +0.000 A 
ATOM      6  C   UNL     1       1.705   3.746  20.769  0.00  0.00    +0.000 A 
ATOM      7  C   UNL     1       2.305   2.553  21.120  0.00  0.00    +0.000 A 
ATOM      8  S   UNL     1       3.885   2.405  20.453  0.00  0.00    +0.000 S 
ATOM      9  C   UNL     1       3.749   3.912  19.693  0.00  0.00    +0.000 A 
ATOM     10  C   UNL     1       4.749   4.509  18.861  0.00  0.00    +0.000 A 
ATOM     11  O   UNL     1       5.860   4.021  18.655  0.00  0.00    +0.000 OA
ATOM     12  H   UNL     1       2.728   7.528  17.059  0.00  0.00    +0.000 HD
ENDROOT
BRANCH   3  13
ATOM     13  C   UNL     1       1.969   8.547  18.648  0.00  0.00    +0.000 A 
ATOM     14  C   UNL     1       1.292   9.499  17.873  0.00  0.00    +0.000 A 
ATOM     15  C   UNL     1       0.329  10.343  18.436  0.00  0.00    +0.000 A 
ATOM     16  C   UNL     1       0.017  10.255  19.794  0.00  0.00    +0.000 A 
ATOM     17  C   UNL     1      -1.121  11.041  20.376  0.00  0.00    +0.000 C 
ATOM     18  C   UNL     1       0.745   9.369  20.594  0.00  0.00    +0.000 A 
ATOM     19  C   UNL     1       1.704   8.520  20.025  0.00  0.00    +0.000 A 
ENDBRANCH   3  13
BRANCH   1  21
ATOM     20  C   UNL     1       5.185   6.045  15.990  0.00  0.00    +0.000 C 
ATOM     21  C   UNL     1       5.322   6.404  17.464  0.00  0.00    +0.000 C 
ENDBRANCH   1  21
TORSDOF 2
ENDMDL
MODEL 7
REMARK VINA RESULT:      -7.3      1.568      3.500
REMARK  Name = 
REMARK  4 active torsions:
REMARK  status: ('A' for Active; 'I' for Inactive)
REMARK    1  A    between atoms: C_1  and  C_2
REMARK    2  A    between atoms: C_2  and  N_3
REMARK    3  A    between atoms: N_5  and  C_6
REMARK    4  A    between atoms: C_9  and  C_10
REMARK                            x       y       z     vdW  Elec       q    Type
REMARK                         _______ _______ _______ _____ _____    ______ ____
ROOT
ATOM      1  N   UNL     1       4.380   5.822  18.276  0.00  0.00    +0.000 N 
ATOM      2  C   UNL     1       3.107   6.315  18.639  0.00  0.00    +0.000 A 
ATOM      3  N   UNL     1       2.712   7.531  18.114  0.00  0.00    +0.000 N 
ATOM      4  N   UNL     1       2.281   5.663  19.417  0.00  0.00    +0.000 NA
ATOM      5  C   UNL     1       2.710   4.426  19.881  0.00  0.00    +0.000 A 
ATOM      6  C   UNL     1       1.915   3.566  20.668  0.00  0.00    +0.000 A 
ATOM      7  C   UNL     1       2.599   2.405  20.973  0.00  0.00    +0.000 A 
ATOM      8  S   UNL     1       4.183   2.394  20.298  0.00  0.00    +0.000 S 
ATOM      9  C   UNL     1       3.938   3.916  19.596  0.00  0.00    +0.000 A 
ATOM     10  C   UNL     1       4.891   4.613  18.787  0.00  0.00    +0.000 A 
ATOM     11  O   UNL     1       6.032   4.212  18.560  0.00  0.00    +0.000 OA
ATOM     12  H   UNL     1       2.655   7.548  17.105  0.00  0.00    +0.000 HD
ENDROOT
BRANCH   3  13
ATOM     13  C   UNL     1       1.833   8.451  18.733  0.00  0.00    +0.000 A 
ATOM     14  C   UNL     1       1.585   8.431  20.113  0.00  0.00    +0.000 A 
ATOM     15  C   UNL     1       0.888   9.469  20.740  0.00  0.00    +0.000 A 
ATOM     16  C   UNL     1       0.420  10.557  20.000  0.00  0.00    +0.000 A 
ATOM     17  C   UNL     1      -0.187  11.748  20.680  0.00  0.00    +0.000 C 
ATOM     18  C   UNL     1       0.587  10.547  18.612  0.00  0.00    +0.000 A 
ATOM     19  C   UNL     1       1.293   9.509  17.987  0.00  0.00    +0.000 A 
ENDBRANCH   3  13
BRANCH   1  21
ATOM     20  C   UNL     1       5.198   6.293  15.974  0.00  0.00    +0.000 C 
ATOM     21  C   UNL     1       5.323   6.595  17.462  0.00  0.00    +0.000 C 
ENDBRANCH   1  21
TORSDOF 2
ENDMDL
MODEL 8
REMARK VINA RESULT:      -7.3      1.480      3.286
REMARK  Name = 
REMARK  4 active torsions:
REMARK  status: ('A' for Active; 'I' for Inactive)
REMARK    1  A    between atoms: C_1  and  C_2
REMARK    2  A    between atoms: C_2  and  N_3
REMARK    3  A    between atoms: N_5  and  C_6
REMARK    4  A    between atoms: C_9  and  C_10
REMARK                            x       y       z     vdW  Elec       q    Type
REMARK                         _______ _______ _______ _____ _____    ______ ____
ROOT
ATOM      1  N   UNL     1       3.958   5.645  17.233  0.00  0.00    +0.000 N 
ATOM      2  C   UNL     1       2.862   6.175  17.948  0.00  0.00    +0.000 A 
ATOM      3  N   UNL     1       2.641   7.538  17.874  0.00  0.00    +0.000 N 
ATOM      4  N   UNL     1       2.035   5.436  18.644  0.00  0.00    +0.000 NA
ATOM      5  C   UNL     1       2.277   4.068  18.648  0.00  0.00    +0.000 A 
ATOM      6  C   UNL     1       1.443   3.127  19.287  0.00  0.00    +0.000 A 
ATOM      7  C   UNL     1       1.927   1.845  19.117  0.00  0.00    +0.000 A 
ATOM      8  S   UNL     1       3.378   1.821  18.190  0.00  0.00    +0.000 S 
ATOM      9  C   UNL     1       3.338   3.504  18.010  0.00  0.00    +0.000 A 
ATOM     10  C   UNL     1       4.292   4.278  17.274  0.00  0.00    +0.000 A 
ATOM     11  O   UNL     1       5.296   3.810  16.738  0.00  0.00    +0.000 OA
ATOM     12  H   UNL     1       2.456   7.878  16.940  0.00  0.00    +0.000 HD
ENDROOT
BRANCH   3  13
ATOM     13  C   UNL     1       2.041   8.332  18.880  0.00  0.00    +0.000 A 
ATOM     14  C   UNL     1       1.393   9.541  18.588  0.00  0.00    +0.000 A 
ATOM     15  C   UNL     1       0.625  10.204  19.550  0.00  0.00    +0.000 A 
ATOM     16  C   UNL     1       0.483   9.672  20.834  0.00  0.00    +0.000 A 
ATOM     17  C   UNL     1      -0.461  10.288  21.823  0.00  0.00    +0.000 C 
ATOM     18  C   UNL     1       1.193   8.513  21.162  0.00  0.00    +0.000 A 
ATOM     19  C   UNL     1       1.956   7.847  20.193  0.00  0.00    +0.000 A 
ENDBRANCH   3  13
BRANCH   1  21
ATOM     20  C   UNL     1       6.090   6.917  17.390  0.00  0.00    +0.000 C 
ATOM     21  C   UNL     1       4.917   6.492  16.517  0.00  0.00    +0.000 C 
ENDBRANCH   1  21
TORSDOF 2
ENDMDL
MODEL 9
REMARK VINA RESULT:      -7.1      1.090      1.573
REMARK  Name = 
REMARK  4 active torsions:
REMARK  status: ('A' for Active; 'I' for Inactive)
REMARK    1  A    between atoms: C_1  and  C_2
REMARK    2  A    between atoms: C_2  and  N_3
REMARK    3  A    between atoms: N_5  and  C_6
REMARK    4  A    between atoms: C_9  and  C_10
REMARK                            x       y       z     vdW  Elec       q    Type
REMARK                         _______ _______ _______ _____ _____    ______ ____
ROOT
ATOM      1  N   UNL     1       2.388   4.706  19.527  0.00  0.00    +0.000 N 
ATOM      2  C   UNL     1       2.519   6.108  19.628  0.00  0.00    +0.000 A 
ATOM      3  N   UNL     1       1.836   6.750  20.644  0.00  0.00    +0.000 N 
ATOM      4  N   UNL     1       3.278   6.815  18.829  0.00  0.00    +0.000 NA
ATOM      5  C   UNL     1       3.977   6.115  17.854  0.00  0.00    +0.000 A 
ATOM      6  C   UNL     1       4.890   6.715  16.961  0.00  0.00    +0.000 A 
ATOM      7  C   UNL     1       5.438   5.774  16.111  0.00  0.00    +0.000 A 
ATOM      8  S   UNL     1       4.828   4.194  16.420  0.00  0.00    +0.000 S 
ATOM      9  C   UNL     1       3.861   4.770  17.685  0.00  0.00    +0.000 A 
ATOM     10  C   UNL     1       3.010   3.963  18.506  0.00  0.00    +0.000 A 
ATOM     11  O   UNL     1       2.832   2.756  18.342  0.00  0.00    +0.000 OA
ATOM     12  H   UNL     1       2.103   6.455  21.573  0.00  0.00    +0.000 HD
ENDROOT
BRANCH   3  13
ATOM     13  C   UNL     1       1.355   8.080  20.602  0.00  0.00    +0.000 A 
ATOM     14  C   UNL     1       1.070   8.806  21.768  0.00  0.00    +0.000 A 
ATOM     15  C   UNL     1       0.803  10.178  21.721  0.00  0.00    +0.000 A 
ATOM     16  C   UNL     1       0.815  10.861  20.503  0.00  0.00    +0.000 A 
ATOM     17  C   UNL     1       0.686  12.355  20.456  0.00  0.00    +0.000 C 
ATOM     18  C   UNL     1       1.014  10.133  19.326  0.00  0.00    +0.000 A 
ATOM     19  C   UNL     1       1.289   8.760  19.377  0.00  0.00    +0.000 A 
ENDBRANCH   3  13
BRANCH   1  21
ATOM     20  C   UNL     1       2.171   3.382  21.623  0.00  0.00    +0.000 C 
ATOM     21  C   UNL     1       1.480   3.935  20.383  0.00  0.00    +0.000 C 
ENDBRANCH   1  21
TORSDOF 2
ENDMDL
