MODEL 1
REMARK VINA RESULT:      -9.6      0.000      0.000
REMARK  Name = 
REMARK  1 active torsions:
REMARK  status: ('A' for Active; 'I' for Inactive)
REMARK    1  A    between atoms: C_7  and  C_8
REMARK                            x       y       z     vdW  Elec       q    Type
REMARK                         _______ _______ _______ _____ _____    ______ ____
ROOT
ATOM      1  O   UNL     1       1.008   4.192  17.153  0.00  0.00    +0.000 OA
ATOM      2  C   UNL     1       1.978   3.626  17.619  0.00  0.00    +0.000 C 
ATOM      3  O   UNL     1       2.021   2.319  18.015  0.00  0.00    +0.000 OA
ATOM      4  C   UNL     1       3.348   1.997  18.452  0.00  0.00    +0.000 C 
ATOM      5  C   UNL     1       4.091   3.261  18.282  0.00  0.00    +0.000 C 
ATOM      6  C   UNL     1       3.289   4.216  17.821  0.00  0.00    +0.000 C 
ATOM      7  C   UNL     1       3.714   5.622  17.581  0.00  0.00    +0.000 C 
ATOM      8  C   UNL     1       5.234   5.794  17.793  0.00  0.00    +0.000 A 
ATOM      9  C   UNL     1       5.844   7.036  17.541  0.00  0.00    +0.000 A 
ATOM     10  C   UNL     1       7.200   7.211  17.802  0.00  0.00    +0.000 A 
ATOM     11 CL   UNL     1       7.930   8.745  17.528  0.00  0.00    +0.000 Cl
ATOM     12  C   UNL     1       7.967   6.161  18.300  0.00  0.00    +0.000 A 
ATOM     13  C   UNL     1       7.377   4.916  18.539  0.00  0.00    +0.000 A 
ATOM     14  C   UNL     1       6.016   4.716  18.285  0.00  0.00    +0.000 A 
ATOM     15  N   UNL     1       5.414   3.474  18.564  0.00  0.00    +0.000 N 
ATOM     16  H   UNL     1       6.000   2.693  18.833  0.00  0.00    +0.000 HD
ENDROOT
BRANCH   7  17
ATOM     17  C   UNL     1       2.934   6.595  18.461  0.00  0.00    +0.000 A 
ATOM     18  C   UNL     1       2.631   6.264  19.790  0.00  0.00    +0.000 A 
ATOM     19  C   UNL     1       1.880   7.135  20.582  0.00  0.00    +0.000 A 
ATOM     20  C   UNL     1       1.429   8.347  20.057  0.00  0.00    +0.000 A 
ATOM     21  C   UNL     1       1.737   8.689  18.745  0.00  0.00    +0.000 A 
ATOM     22 CL   UNL     1       1.188  10.184  18.094  0.00  0.00    +0.000 Cl
ATOM     23  C   UNL     1       2.485   7.825  17.948  0.00  0.00    +0.000 A 
ENDBRANCH   7  17
TORSDOF 1
ENDMDL
MODEL 2
REMARK VINA RESULT:      -9.4      1.040      1.474
REMARK  Name = 
REMARK  1 active torsions:
REMARK  status: ('A' for Active; 'I' for Inactive)
REMARK    1  A    between atoms: C_7  and  C_8
REMARK                            x       y       z     vdW  Elec       q    Type
REMARK                         _______ _______ _______ _____ _____    ______ ____
ROOT
ATOM      1  O   UNL     1       1.068   4.228  17.186  0.00  0.00    +0.000 OA
ATOM      2  C   UNL     1       1.952   3.767  17.882  0.00  0.00    +0.000 C 
ATOM      3  O   UNL     1       1.893   2.581  18.559  0.00  0.00    +0.000 OA
ATOM      4  C   UNL     1       3.144   2.345  19.217  0.00  0.00    +0.000 C 
ATOM      5  C   UNL     1       3.955   3.528  18.866  0.00  0.00    +0.000 C 
ATOM      6  C   UNL     1       3.254   4.368  18.110  0.00  0.00    +0.000 C 
ATOM      7  C   UNL     1       3.764   5.678  17.621  0.00  0.00    +0.000 C 
ATOM      8  C   UNL     1       5.253   5.870  17.977  0.00  0.00    +0.000 A 
ATOM      9  C   UNL     1       5.941   7.014  17.535  0.00  0.00    +0.000 A 
ATOM     10  C   UNL     1       7.263   7.223  17.918  0.00  0.00    +0.000 A 
ATOM     11 CL   UNL     1       8.084   8.646  17.405  0.00  0.00    +0.000 Cl
ATOM     12  C   UNL     1       7.920   6.299  18.726  0.00  0.00    +0.000 A 
ATOM     13  C   UNL     1       7.254   5.149  19.158  0.00  0.00    +0.000 A 
ATOM     14  C   UNL     1       5.926   4.917  18.787  0.00  0.00    +0.000 A 
ATOM     15  N   UNL     1       5.243   3.778  19.256  0.00  0.00    +0.000 N 
ATOM     16  H   UNL     1       5.760   3.069  19.762  0.00  0.00    +0.000 HD
ENDROOT
BRANCH   7  17
ATOM     17  C   UNL     1       2.927   6.834  18.162  0.00  0.00    +0.000 A 
ATOM     18  C   UNL     1       2.586   7.913  17.332  0.00  0.00    +0.000 A 
ATOM     19  C   UNL     1       1.859   8.992  17.838  0.00  0.00    +0.000 A 
ATOM     20  C   UNL     1       1.459   9.002  19.176  0.00  0.00    +0.000 A 
ATOM     21  C   UNL     1       1.781   7.931  20.001  0.00  0.00    +0.000 A 
ATOM     22 CL   UNL     1       1.287   7.935  21.649  0.00  0.00    +0.000 Cl
ATOM     23  C   UNL     1       2.508   6.851  19.504  0.00  0.00    +0.000 A 
ENDBRANCH   7  17
TORSDOF 1
ENDMDL
MODEL 3
REMARK VINA RESULT:      -8.2      3.075      5.564
REMARK  Name = 
REMARK  1 active torsions:
REMARK  status: ('A' for Active; 'I' for Inactive)
REMARK    1  A    between atoms: C_7  and  C_8
REMARK                            x       y       z     vdW  Elec       q    Type
REMARK                         _______ _______ _______ _____ _____    ______ ____
ROOT
ATOM      1  O   UNL     1       2.494   8.845  17.098  0.00  0.00    +0.000 OA
ATOM      2  C   UNL     1       2.229   8.518  18.239  0.00  0.00    +0.000 C 
ATOM      3  O   UNL     1       1.719   9.342  19.203  0.00  0.00    +0.000 OA
ATOM      4  C   UNL     1       1.481   8.587  20.398  0.00  0.00    +0.000 C 
ATOM      5  C   UNL     1       1.916   7.222  20.044  0.00  0.00    +0.000 C 
ATOM      6  C   UNL     1       2.374   7.186  18.796  0.00  0.00    +0.000 C 
ATOM      7  C   UNL     1       2.930   5.969  18.144  0.00  0.00    +0.000 C 
ATOM      8  C   UNL     1       2.772   4.725  19.045  0.00  0.00    +0.000 A 
ATOM      9  C   UNL     1       3.167   3.460  18.575  0.00  0.00    +0.000 A 
ATOM     10  C   UNL     1       3.092   2.351  19.414  0.00  0.00    +0.000 A 
ATOM     11 CL   UNL     1       3.616   0.815  18.843  0.00  0.00    +0.000 Cl
ATOM     12  C   UNL     1       2.613   2.479  20.715  0.00  0.00    +0.000 A 
ATOM     13  C   UNL     1       2.199   3.727  21.189  0.00  0.00    +0.000 A 
ATOM     14  C   UNL     1       2.266   4.856  20.365  0.00  0.00    +0.000 A 
ATOM     15  N   UNL     1       1.887   6.120  20.857  0.00  0.00    +0.000 N 
ATOM     16  H   UNL     1       1.451   6.182  21.769  0.00  0.00    +0.000 HD
ENDROOT
BRANCH   7  17
ATOM     17  C   UNL     1       4.393   6.168  17.755  0.00  0.00    +0.000 A 
ATOM     18  C   UNL     1       4.735   6.548  16.450  0.00  0.00    +0.000 A 
ATOM     19  C   UNL     1       6.075   6.688  16.081  0.00  0.00    +0.000 A 
ATOM     20  C   UNL     1       7.086   6.456  17.015  0.00  0.00    +0.000 A 
ATOM     21  C   UNL     1       6.755   6.092  18.316  0.00  0.00    +0.000 A 
ATOM     22 CL   UNL     1       7.996   5.809  19.473  0.00  0.00    +0.000 Cl
ATOM     23  C   UNL     1       5.421   5.949  18.690  0.00  0.00    +0.000 A 
ENDBRANCH   7  17
TORSDOF 1
ENDMDL
MODEL 4
REMARK VINA RESULT:      -8.0      2.967      4.585
REMARK  Name = 
REMARK  1 active torsions:
REMARK  status: ('A' for Active; 'I' for Inactive)
REMARK    1  A    between atoms: C_7  and  C_8
REMARK                            x       y       z     vdW  Elec       q    Type
REMARK                         _______ _______ _______ _____ _____    ______ ____
ROOT
ATOM      1  O   UNL     1       6.156   7.654  17.399  0.00  0.00    +0.000 OA
ATOM      2  C   UNL     1       5.805   6.647  16.814  0.00  0.00    +0.000 C 
ATOM      3  O   UNL     1       6.215   6.271  15.566  0.00  0.00    +0.000 OA
ATOM      4  C   UNL     1       5.638   5.000  15.239  0.00  0.00    +0.000 C 
ATOM      5  C   UNL     1       4.829   4.664  16.426  0.00  0.00    +0.000 C 
ATOM      6  C   UNL     1       4.906   5.633  17.334  0.00  0.00    +0.000 C 
ATOM      7  C   UNL     1       4.173   5.627  18.629  0.00  0.00    +0.000 C 
ATOM      8  C   UNL     1       3.432   4.291  18.849  0.00  0.00    +0.000 A 
ATOM      9  C   UNL     1       2.741   4.059  20.052  0.00  0.00    +0.000 A 
ATOM     10  C   UNL     1       2.013   2.884  20.221  0.00  0.00    +0.000 A 
ATOM     11 CL   UNL     1       1.138   2.627  21.681  0.00  0.00    +0.000 Cl
ATOM     12  C   UNL     1       1.972   1.925  19.213  0.00  0.00    +0.000 A 
ATOM     13  C   UNL     1       2.668   2.135  18.019  0.00  0.00    +0.000 A 
ATOM     14  C   UNL     1       3.407   3.307  17.826  0.00  0.00    +0.000 A 
ATOM     15  N   UNL     1       4.075   3.536  16.607  0.00  0.00    +0.000 N 
ATOM     16  H   UNL     1       4.117   2.790  15.922  0.00  0.00    +0.000 HD
ENDROOT
BRANCH   7  17
ATOM     17  C   UNL     1       3.203   6.802  18.722  0.00  0.00    +0.000 A 
ATOM     18  C   UNL     1       2.985   7.633  17.614  0.00  0.00    +0.000 A 
ATOM     19  C   UNL     1       2.132   8.734  17.712  0.00  0.00    +0.000 A 
ATOM     20  C   UNL     1       1.482   9.012  18.916  0.00  0.00    +0.000 A 
ATOM     21  C   UNL     1       1.681   8.185  20.015  0.00  0.00    +0.000 A 
ATOM     22 CL   UNL     1       0.880   8.519  21.500  0.00  0.00    +0.000 Cl
ATOM     23  C   UNL     1       2.533   7.086  19.926  0.00  0.00    +0.000 A 
ENDBRANCH   7  17
TORSDOF 1
ENDMDL
MODEL 5
REMARK VINA RESULT:      -7.4      3.314      4.827
REMARK  Name = 
REMARK  1 active torsions:
REMARK  status: ('A' for Active; 'I' for Inactive)
REMARK    1  A    between atoms: C_7  and  C_8
REMARK                            x       y       z     vdW  Elec       q    Type
REMARK                         _______ _______ _______ _____ _____    ______ ____
ROOT
ATOM      1  O   UNL     1       1.145   7.494  21.387  0.00  0.00    +0.000 OA
ATOM      2  C   UNL     1       1.334   7.997  20.296  0.00  0.00    +0.000 C 
ATOM      3  O   UNL     1       0.692   9.101  19.808  0.00  0.00    +0.000 OA
ATOM      4  C   UNL     1       1.225   9.430  18.519  0.00  0.00    +0.000 C 
ATOM      5  C   UNL     1       2.249   8.394  18.285  0.00  0.00    +0.000 C 
ATOM      6  C   UNL     1       2.297   7.545  19.308  0.00  0.00    +0.000 C 
ATOM      7  C   UNL     1       3.193   6.358  19.369  0.00  0.00    +0.000 C 
ATOM      8  C   UNL     1       4.160   6.321  18.166  0.00  0.00    +0.000 A 
ATOM      9  C   UNL     1       5.140   5.316  18.082  0.00  0.00    +0.000 A 
ATOM     10  C   UNL     1       5.964   5.240  16.962  0.00  0.00    +0.000 A 
ATOM     11 CL   UNL     1       7.133   3.982  16.849  0.00  0.00    +0.000 Cl
ATOM     12  C   UNL     1       5.838   6.162  15.926  0.00  0.00    +0.000 A 
ATOM     13  C   UNL     1       4.880   7.177  16.006  0.00  0.00    +0.000 A 
ATOM     14  C   UNL     1       4.041   7.273  17.120  0.00  0.00    +0.000 A 
ATOM     15  N   UNL     1       3.049   8.272  17.181  0.00  0.00    +0.000 N 
ATOM     16  H   UNL     1       3.033   8.992  16.468  0.00  0.00    +0.000 HD
ENDROOT
BRANCH   7  17
ATOM     17  C   UNL     1       2.391   5.062  19.454  0.00  0.00    +0.000 A 
ATOM     18  C   UNL     1       1.732   4.559  18.323  0.00  0.00    +0.000 A 
ATOM     19  C   UNL     1       0.962   3.398  18.411  0.00  0.00    +0.000 A 
ATOM     20  C   UNL     1       0.847   2.723  19.628  0.00  0.00    +0.000 A 
ATOM     21  C   UNL     1       1.508   3.208  20.751  0.00  0.00    +0.000 A 
ATOM     22 CL   UNL     1       1.374   2.379  22.252  0.00  0.00    +0.000 Cl
ATOM     23  C   UNL     1       2.277   4.367  20.671  0.00  0.00    +0.000 A 
ENDBRANCH   7  17
TORSDOF 1
ENDMDL
MODEL 6
REMARK VINA RESULT:      -7.3      3.156      5.507
REMARK  Name = 
REMARK  1 active torsions:
REMARK  status: ('A' for Active; 'I' for Inactive)
REMARK    1  A    between atoms: C_7  and  C_8
REMARK                            x       y       z     vdW  Elec       q    Type
REMARK                         _______ _______ _______ _____ _____    ______ ____
ROOT
ATOM      1  O   UNL     1       2.567   8.638  16.855  0.00  0.00    +0.000 OA
ATOM      2  C   UNL     1       2.343   8.367  18.020  0.00  0.00    +0.000 C 
ATOM      3  O   UNL     1       1.884   9.242  18.964  0.00  0.00    +0.000 OA
ATOM      4  C   UNL     1       1.683   8.546  20.200  0.00  0.00    +0.000 C 
ATOM      5  C   UNL     1       2.085   7.159  19.893  0.00  0.00    +0.000 C 
ATOM      6  C   UNL     1       2.492   7.059  18.631  0.00  0.00    +0.000 C 
ATOM      7  C   UNL     1       3.006   5.806  18.014  0.00  0.00    +0.000 C 
ATOM      8  C   UNL     1       2.866   4.607  18.977  0.00  0.00    +0.000 A 
ATOM      9  C   UNL     1       3.226   3.316  18.551  0.00  0.00    +0.000 A 
ATOM     10  C   UNL     1       3.170   2.248  19.442  0.00  0.00    +0.000 A 
ATOM     11 CL   UNL     1       3.650   0.679  18.922  0.00  0.00    +0.000 Cl
ATOM     12  C   UNL     1       2.745   2.442  20.753  0.00  0.00    +0.000 A 
ATOM     13  C   UNL     1       2.367   3.717  21.185  0.00  0.00    +0.000 A 
ATOM     14  C   UNL     1       2.416   4.806  20.309  0.00  0.00    +0.000 A 
ATOM     15  N   UNL     1       2.074   6.096  20.756  0.00  0.00    +0.000 N 
ATOM     16  H   UNL     1       1.676   6.206  21.681  0.00  0.00    +0.000 HD
ENDROOT
BRANCH   7  17
ATOM     17  C   UNL     1       4.454   5.965  17.559  0.00  0.00    +0.000 A 
ATOM     18  C   UNL     1       5.380   6.646  18.363  0.00  0.00    +0.000 A 
ATOM     19  C   UNL     1       6.694   6.830  17.927  0.00  0.00    +0.000 A 
ATOM     20  C   UNL     1       7.098   6.331  16.688  0.00  0.00    +0.000 A 
ATOM     21  C   UNL     1       6.190   5.643  15.891  0.00  0.00    +0.000 A 
ATOM     22 CL   UNL     1       6.682   5.021  14.364  0.00  0.00    +0.000 Cl
ATOM     23  C   UNL     1       4.877   5.457  16.318  0.00  0.00    +0.000 A 
ENDBRANCH   7  17
TORSDOF 1
ENDMDL
MODEL 7
REMARK VINA RESULT:      -7.3      3.485      4.569
REMARK  Name = 
REMARK  1 active torsions:
REMARK  status: ('A' for Active; 'I' for Inactive)
REMARK    1  A    between atoms: C_7  and  C_8
REMARK                            x       y       z     vdW  Elec       q    Type
REMARK                         _______ _______ _______ _____ _____    ______ ____
ROOT
ATOM      1  O   UNL     1       5.685   4.036  20.241  0.00  0.00    +0.000 OA
ATOM      2  C   UNL     1       6.406   4.731  19.549  0.00  0.00    +0.000 C 
ATOM      3  O   UNL     1       7.366   5.585  20.012  0.00  0.00    +0.000 OA
ATOM      4  C   UNL     1       8.048   6.181  18.901  0.00  0.00    +0.000 C 
ATOM      5  C   UNL     1       7.381   5.595  17.723  0.00  0.00    +0.000 C 
ATOM      6  C   UNL     1       6.408   4.770  18.098  0.00  0.00    +0.000 C 
ATOM      7  C   UNL     1       5.511   4.049  17.154  0.00  0.00    +0.000 C 
ATOM      8  C   UNL     1       5.946   4.265  15.689  0.00  0.00    +0.000 A 
ATOM      9  C   UNL     1       5.270   3.603  14.649  0.00  0.00    +0.000 A 
ATOM     10  C   UNL     1       5.615   3.854  13.323  0.00  0.00    +0.000 A 
ATOM     11 CL   UNL     1       4.754   3.070  12.056  0.00  0.00    +0.000 Cl
ATOM     12  C   UNL     1       6.638   4.747  13.015  0.00  0.00    +0.000 A 
ATOM     13  C   UNL     1       7.331   5.398  14.040  0.00  0.00    +0.000 A 
ATOM     14  C   UNL     1       7.002   5.163  15.379  0.00  0.00    +0.000 A 
ATOM     15  N   UNL     1       7.673   5.849  16.409  0.00  0.00    +0.000 N 
ATOM     16  H   UNL     1       8.477   6.420  16.176  0.00  0.00    +0.000 HD
ENDROOT
BRANCH   7  17
ATOM     17  C   UNL     1       4.055   4.462  17.349  0.00  0.00    +0.000 A 
ATOM     18  C   UNL     1       3.032   3.504  17.301  0.00  0.00    +0.000 A 
ATOM     19  C   UNL     1       1.696   3.888  17.436  0.00  0.00    +0.000 A 
ATOM     20  C   UNL     1       1.368   5.232  17.626  0.00  0.00    +0.000 A 
ATOM     21  C   UNL     1       2.377   6.186  17.689  0.00  0.00    +0.000 A 
ATOM     22 CL   UNL     1       1.981   7.843  17.927  0.00  0.00    +0.000 Cl
ATOM     23  C   UNL     1       3.712   5.811  17.553  0.00  0.00    +0.000 A 
ENDBRANCH   7  17
TORSDOF 1
ENDMDL
MODEL 8
REMARK VINA RESULT:      -7.3      3.873      5.011
REMARK  Name = 
REMARK  1 active torsions:
REMARK  status: ('A' for Active; 'I' for Inactive)
REMARK    1  A    between atoms: C_7  and  C_8
REMARK                            x       y       z     vdW  Elec       q    Type
REMARK                         _______ _______ _______ _____ _____    ______ ____
ROOT
ATOM      1  O   UNL     1       5.903   4.036  20.266  0.00  0.00    +0.000 OA
ATOM      2  C   UNL     1       6.547   4.782  19.553  0.00  0.00    +0.000 C 
ATOM      3  O   UNL     1       7.431   5.729  19.988  0.00  0.00    +0.000 OA
ATOM      4  C   UNL     1       8.040   6.366  18.858  0.00  0.00    +0.000 C 
ATOM      5  C   UNL     1       7.412   5.702  17.698  0.00  0.00    +0.000 C 
ATOM      6  C   UNL     1       6.525   4.797  18.102  0.00  0.00    +0.000 C 
ATOM      7  C   UNL     1       5.685   3.982  17.183  0.00  0.00    +0.000 C 
ATOM      8  C   UNL     1       6.079   4.212  15.708  0.00  0.00    +0.000 A 
ATOM      9  C   UNL     1       5.451   3.474  14.688  0.00  0.00    +0.000 A 
ATOM     10  C   UNL     1       5.753   3.734  13.354  0.00  0.00    +0.000 A 
ATOM     11 CL   UNL     1       4.951   2.854  12.112  0.00  0.00    +0.000 Cl
ATOM     12  C   UNL     1       6.685   4.712  13.017  0.00  0.00    +0.000 A 
ATOM     13  C   UNL     1       7.329   5.441  14.021  0.00  0.00    +0.000 A 
ATOM     14  C   UNL     1       7.042   5.198  15.368  0.00  0.00    +0.000 A 
ATOM     15  N   UNL     1       7.662   5.961  16.377  0.00  0.00    +0.000 N 
ATOM     16  H   UNL     1       8.406   6.599  16.123  0.00  0.00    +0.000 HD
ENDROOT
BRANCH   7  17
ATOM     17  C   UNL     1       4.200   4.262  17.394  0.00  0.00    +0.000 A 
ATOM     18  C   UNL     1       3.701   5.568  17.283  0.00  0.00    +0.000 A 
ATOM     19  C   UNL     1       2.351   5.832  17.520  0.00  0.00    +0.000 A 
ATOM     20  C   UNL     1       1.483   4.794  17.863  0.00  0.00    +0.000 A 
ATOM     21  C   UNL     1       1.967   3.494  17.961  0.00  0.00    +0.000 A 
ATOM     22 CL   UNL     1       0.902   2.209  18.379  0.00  0.00    +0.000 Cl
ATOM     23  C   UNL     1       3.314   3.223  17.728  0.00  0.00    +0.000 A 
ENDBRANCH   7  17
TORSDOF 1
ENDMDL
MODEL 9
REMARK VINA RESULT:      -7.0      5.696      9.180
REMARK  Name = 
REMARK  1 active torsions:
REMARK  status: ('A' for Active; 'I' for Inactive)
REMARK    1  A    between atoms: C_7  and  C_8
REMARK                            x       y       z     vdW  Elec       q    Type
REMARK                         _______ _______ _______ _____ _____    ______ ____
ROOT
ATOM      1  O   UNL     1       2.117  12.814  20.992  0.00  0.00    +0.000 OA
ATOM      2  C   UNL     1       0.936  12.986  21.227  0.00  0.00    +0.000 C 
ATOM      3  O   UNL     1       0.431  13.703  22.275  0.00  0.00    +0.000 OA
ATOM      4  C   UNL     1      -0.999  13.734  22.186  0.00  0.00    +0.000 C 
ATOM      5  C   UNL     1      -1.293  12.947  20.972  0.00  0.00    +0.000 C 
ATOM      6  C   UNL     1      -0.169  12.491  20.427  0.00  0.00    +0.000 C 
ATOM      7  C   UNL     1      -0.118  11.625  19.218  0.00  0.00    +0.000 C 
ATOM      8  C   UNL     1      -1.518  11.447  18.593  0.00  0.00    +0.000 A 
ATOM      9  C   UNL     1      -1.669  10.724  17.397  0.00  0.00    +0.000 A 
ATOM     10  C   UNL     1      -2.939  10.501  16.872  0.00  0.00    +0.000 A 
ATOM     11 CL   UNL     1      -3.117   9.581  15.430  0.00  0.00    +0.000 Cl
ATOM     12  C   UNL     1      -4.068  11.003  17.516  0.00  0.00    +0.000 A 
ATOM     13  C   UNL     1      -3.931  11.739  18.696  0.00  0.00    +0.000 A 
ATOM     14  C   UNL     1      -2.666  11.974  19.242  0.00  0.00    +0.000 A 
ATOM     15  N   UNL     1      -2.532  12.681  20.453  0.00  0.00    +0.000 N 
ATOM     16  H   UNL     1      -3.350  13.122  20.857  0.00  0.00    +0.000 HD
ENDROOT
BRANCH   7  17
ATOM     17  C   UNL     1       0.507  10.268  19.534  0.00  0.00    +0.000 A 
ATOM     18  C   UNL     1       0.228   9.623  20.747  0.00  0.00    +0.000 A 
ATOM     19  C   UNL     1       0.833   8.404  21.056  0.00  0.00    +0.000 A 
ATOM     20  C   UNL     1       1.718   7.812  20.153  0.00  0.00    +0.000 A 
ATOM     21  C   UNL     1       1.990   8.438  18.941  0.00  0.00    +0.000 A 
ATOM     22 CL   UNL     1       3.076   7.713  17.822  0.00  0.00    +0.000 Cl
ATOM     23  C   UNL     1       1.391   9.656  18.627  0.00  0.00    +0.000 A 
ENDBRANCH   7  17
TORSDOF 1
ENDMDL
