MODEL 1
REMARK VINA RESULT:      -7.4      0.000      0.000
REMARK  Name = 
REMARK  8 active torsions:
REMARK  status: ('A' for Active; 'I' for Inactive)
REMARK    1  A    between atoms: C_1  and  C_2
REMARK    2  A    between atoms: C_2  and  C_3
REMARK    3  A    between atoms: C_3  and  C_4
REMARK    4  A    between atoms: C_4  and  C_5
REMARK    5  A    between atoms: C_10  and  O_11
REMARK    6  A    between atoms: O_11  and  C_12
REMARK    7  A    between atoms: C_13  and  O_14
REMARK    8  A    between atoms: O_14  and  C_15
REMARK                            x       y       z     vdW  Elec       q    Type
REMARK                         _______ _______ _______ _____ _____    ______ ____
ROOT
ATOM      1  C   UNL     1       0.525  12.040  19.781  0.00  0.00    +0.000 C 
ATOM      2  C   UNL     1      -0.382  12.122  21.022  0.00  0.00    +0.000 A 
ATOM      3  C   UNL     1      -0.573  11.009  21.838  0.00  0.00    +0.000 A 
ATOM      4  C   UNL     1      -1.295  11.156  23.043  0.00  0.00    +0.000 A 
ATOM      5  C   UNL     1      -1.856  12.390  23.417  0.00  0.00    +0.000 A 
ATOM      6  C   UNL     1      -1.671  13.520  22.624  0.00  0.00    +0.000 A 
ATOM      7  C   UNL     1      -0.904  13.391  21.455  0.00  0.00    +0.000 A 
ATOM      8  C   UNL     1       0.098   9.716  21.547  0.00  0.00    +0.000 C 
ATOM      9  O   UNL     1       0.067   8.844  22.408  0.00  0.00    +0.000 OA
ATOM     10  C   UNL     1       0.856   9.516  20.277  0.00  0.00    +0.000 A 
ATOM     11  C   UNL     1       1.463   8.234  19.905  0.00  0.00    +0.000 A 
ATOM     12  C   UNL     1       1.561   7.022  20.669  0.00  0.00    +0.000 A 
ATOM     13  C   UNL     1       2.214   5.907  20.145  0.00  0.00    +0.000 A 
ATOM     14  C   UNL     1       2.713   5.895  18.872  0.00  0.00    +0.000 A 
ATOM     15  C   UNL     1       2.644   7.000  18.079  0.00  0.00    +0.000 A 
ATOM     16  C   UNL     1       2.083   8.158  18.620  0.00  0.00    +0.000 A 
ATOM     17  C   UNL     1       2.219   9.279  17.855  0.00  0.00    +0.000 A 
ATOM     18  C   UNL     1       1.771  10.474  18.338  0.00  0.00    +0.000 A 
ATOM     19  N   UNL     1       1.051  10.603  19.481  0.00  0.00    +0.000 N 
ATOM     20  O   UNL     1       3.320   4.732  18.531  0.00  0.00    +0.000 OA
ATOM     21  C   UNL     1       3.301   4.057  19.799  0.00  0.00    +0.000 C 
ATOM     22  O   UNL     1       2.480   4.732  20.785  0.00  0.00    +0.000 OA
ENDROOT
BRANCH   1  24
ATOM     23  C   UNL     1      -1.620  11.908  18.076  0.00  0.00    +0.000 C 
ATOM     24  C   UNL     1      -0.249  12.438  18.454  0.00  0.00    +0.000 C 
ENDBRANCH   1  24
BRANCH   1  25
ATOM     25  C   UNL     1       1.829  12.873  20.102  0.00  0.00    +0.000 C 
ATOM     26  C   UNL     1       2.274  13.815  18.966  0.00  0.00    +0.000 C 
ENDBRANCH   1  25
BRANCH   6  27
ATOM     27  O   UNL     1      -2.176  14.750  22.905  0.00  0.00    +0.000 OA
ATOM     28  C   UNL     1      -2.166  15.251  24.229  0.00  0.00    +0.000 C 
ENDBRANCH   6  27
BRANCH   7  29
ATOM     29  O   UNL     1      -0.508  14.433  20.670  0.00  0.00    +0.000 OA
ATOM     30  C   UNL     1      -1.353  15.393  20.057  0.00  0.00    +0.000 C 
ENDBRANCH   7  29
TORSDOF 4
ENDMDL
MODEL 2
REMARK VINA RESULT:      -7.1      1.256      1.451
REMARK  Name = 
REMARK  8 active torsions:
REMARK  status: ('A' for Active; 'I' for Inactive)
REMARK    1  A    between atoms: C_1  and  C_2
REMARK    2  A    between atoms: C_2  and  C_3
REMARK    3  A    between atoms: C_3  and  C_4
REMARK    4  A    between atoms: C_4  and  C_5
REMARK    5  A    between atoms: C_10  and  O_11
REMARK    6  A    between atoms: O_11  and  C_12
REMARK    7  A    between atoms: C_13  and  O_14
REMARK    8  A    between atoms: O_14  and  C_15
REMARK                            x       y       z     vdW  Elec       q    Type
REMARK                         _______ _______ _______ _____ _____    ______ ____
ROOT
ATOM      1  C   UNL     1       0.538  10.943  19.570  0.00  0.00    +0.000 C 
ATOM      2  C   UNL     1      -0.223  10.821  20.902  0.00  0.00    +0.000 A 
ATOM      3  C   UNL     1      -0.101   9.677  21.689  0.00  0.00    +0.000 A 
ATOM      4  C   UNL     1      -0.698   9.656  22.969  0.00  0.00    +0.000 A 
ATOM      5  C   UNL     1      -1.443  10.748  23.449  0.00  0.00    +0.000 A 
ATOM      6  C   UNL     1      -1.570  11.907  22.688  0.00  0.00    +0.000 A 
ATOM      7  C   UNL     1      -0.929  11.953  21.439  0.00  0.00    +0.000 A 
ATOM      8  C   UNL     1       0.771   8.547  21.276  0.00  0.00    +0.000 C 
ATOM      9  O   UNL     1       1.007   7.671  22.100  0.00  0.00    +0.000 OA
ATOM     10  C   UNL     1       1.406   8.525  19.926  0.00  0.00    +0.000 A 
ATOM     11  C   UNL     1       2.205   7.395  19.440  0.00  0.00    +0.000 A 
ATOM     12  C   UNL     1       2.621   6.213  20.140  0.00  0.00    +0.000 A 
ATOM     13  C   UNL     1       3.416   5.258  19.504  0.00  0.00    +0.000 A 
ATOM     14  C   UNL     1       3.762   5.369  18.186  0.00  0.00    +0.000 A 
ATOM     15  C   UNL     1       3.391   6.453  17.450  0.00  0.00    +0.000 A 
ATOM     16  C   UNL     1       2.679   7.467  18.094  0.00  0.00    +0.000 A 
ATOM     17  C   UNL     1       2.509   8.607  17.365  0.00  0.00    +0.000 A 
ATOM     18  C   UNL     1       1.894   9.681  17.941  0.00  0.00    +0.000 A 
ATOM     19  N   UNL     1       1.296   9.644  19.158  0.00  0.00    +0.000 N 
ATOM     20  O   UNL     1       4.541   4.355  17.736  0.00  0.00    +0.000 OA
ATOM     21  C   UNL     1       4.795   3.666  18.971  0.00  0.00    +0.000 C 
ATOM     22  O   UNL     1       3.974   4.148  20.065  0.00  0.00    +0.000 OA
ENDROOT
BRANCH   1  24
ATOM     23  C   UNL     1      -1.667  10.361  18.044  0.00  0.00    +0.000 C 
ATOM     24  C   UNL     1      -0.443  11.205  18.350  0.00  0.00    +0.000 C 
ENDBRANCH   1  24
BRANCH   1  25
ATOM     25  C   UNL     1       1.683  12.011  19.783  0.00  0.00    +0.000 C 
ATOM     26  C   UNL     1       1.853  12.999  18.613  0.00  0.00    +0.000 C 
ENDBRANCH   1  25
BRANCH   6  27
ATOM     27  O   UNL     1      -2.270  13.008  23.070  0.00  0.00    +0.000 OA
ATOM     28  C   UNL     1      -3.507  12.880  23.748  0.00  0.00    +0.000 C 
ENDBRANCH   6  27
BRANCH   7  29
ATOM     29  O   UNL     1      -0.833  13.068  20.659  0.00  0.00    +0.000 OA
ATOM     30  C   UNL     1      -1.913  13.846  20.170  0.00  0.00    +0.000 C 
ENDBRANCH   7  29
TORSDOF 4
ENDMDL
MODEL 3
REMARK VINA RESULT:      -6.1      1.860      3.736
REMARK  Name = 
REMARK  8 active torsions:
REMARK  status: ('A' for Active; 'I' for Inactive)
REMARK    1  A    between atoms: C_1  and  C_2
REMARK    2  A    between atoms: C_2  and  C_3
REMARK    3  A    between atoms: C_3  and  C_4
REMARK    4  A    between atoms: C_4  and  C_5
REMARK    5  A    between atoms: C_10  and  O_11
REMARK    6  A    between atoms: O_11  and  C_12
REMARK    7  A    between atoms: C_13  and  O_14
REMARK    8  A    between atoms: O_14  and  C_15
REMARK                            x       y       z     vdW  Elec       q    Type
REMARK                         _______ _______ _______ _____ _____    ______ ____
ROOT
ATOM      1  C   UNL     1       0.130  10.337  20.500  0.00  0.00    +0.000 C 
ATOM      2  C   UNL     1       0.599  11.607  19.767  0.00  0.00    +0.000 A 
ATOM      3  C   UNL     1       1.566  11.533  18.766  0.00  0.00    +0.000 A 
ATOM      4  C   UNL     1       1.870  12.692  18.018  0.00  0.00    +0.000 A 
ATOM      5  C   UNL     1       1.247  13.924  18.287  0.00  0.00    +0.000 A 
ATOM      6  C   UNL     1       0.269  14.021  19.275  0.00  0.00    +0.000 A 
ATOM      7  C   UNL     1      -0.077  12.858  19.981  0.00  0.00    +0.000 A 
ATOM      8  C   UNL     1       2.165  10.234  18.367  0.00  0.00    +0.000 C 
ATOM      9  O   UNL     1       2.843  10.202  17.345  0.00  0.00    +0.000 OA
ATOM     10  C   UNL     1       1.882   8.991  19.141  0.00  0.00    +0.000 A 
ATOM     11  C   UNL     1       2.514   7.702  18.840  0.00  0.00    +0.000 A 
ATOM     12  C   UNL     1       3.379   7.351  17.748  0.00  0.00    +0.000 A 
ATOM     13  C   UNL     1       3.856   6.047  17.616  0.00  0.00    +0.000 A 
ATOM     14  C   UNL     1       3.587   5.082  18.547  0.00  0.00    +0.000 A 
ATOM     15  C   UNL     1       2.789   5.342  19.619  0.00  0.00    +0.000 A 
ATOM     16  C   UNL     1       2.220   6.614  19.717  0.00  0.00    +0.000 A 
ATOM     17  C   UNL     1       1.280   6.753  20.695  0.00  0.00    +0.000 A 
ATOM     18  C   UNL     1       0.614   7.938  20.814  0.00  0.00    +0.000 A 
ATOM     19  N   UNL     1       0.932   9.056  20.115  0.00  0.00    +0.000 N 
ATOM     20  O   UNL     1       4.126   3.873  18.256  0.00  0.00    +0.000 OA
ATOM     21  C   UNL     1       4.632   4.134  16.936  0.00  0.00    +0.000 C 
ATOM     22  O   UNL     1       4.591   5.540  16.584  0.00  0.00    +0.000 OA
ENDROOT
BRANCH   1  24
ATOM     23  C   UNL     1      -0.776  10.292  23.089  0.00  0.00    +0.000 C 
ATOM     24  C   UNL     1       0.337  10.448  22.069  0.00  0.00    +0.000 C 
ENDBRANCH   1  24
BRANCH   1  25
ATOM     25  C   UNL     1      -1.343  10.035  20.013  0.00  0.00    +0.000 C 
ATOM     26  C   UNL     1      -1.520  10.055  18.482  0.00  0.00    +0.000 C 
ENDBRANCH   1  25
BRANCH   6  27
ATOM     27  O   UNL     1      -0.383  15.167  19.604  0.00  0.00    +0.000 OA
ATOM     28  C   UNL     1      -0.378  16.280  18.728  0.00  0.00    +0.000 C 
ENDBRANCH   6  27
BRANCH   7  29
ATOM     29  O   UNL     1      -1.118  12.765  20.857  0.00  0.00    +0.000 OA
ATOM     30  C   UNL     1      -2.461  13.145  20.609  0.00  0.00    +0.000 C 
ENDBRANCH   7  29
TORSDOF 4
ENDMDL
MODEL 4
REMARK VINA RESULT:      -6.1      1.624      3.586
REMARK  Name = 
REMARK  8 active torsions:
REMARK  status: ('A' for Active; 'I' for Inactive)
REMARK    1  A    between atoms: C_1  and  C_2
REMARK    2  A    between atoms: C_2  and  C_3
REMARK    3  A    between atoms: C_3  and  C_4
REMARK    4  A    between atoms: C_4  and  C_5
REMARK    5  A    between atoms: C_10  and  O_11
REMARK    6  A    between atoms: O_11  and  C_12
REMARK    7  A    between atoms: C_13  and  O_14
REMARK    8  A    between atoms: O_14  and  C_15
REMARK                            x       y       z     vdW  Elec       q    Type
REMARK                         _______ _______ _______ _____ _____    ______ ____
ROOT
ATOM      1  C   UNL     1      -0.527  11.707  20.699  0.00  0.00    +0.000 C 
ATOM      2  C   UNL     1       0.149  12.837  19.902  0.00  0.00    +0.000 A 
ATOM      3  C   UNL     1       1.185  12.558  19.013  0.00  0.00    +0.000 A 
ATOM      4  C   UNL     1       1.686  13.595  18.194  0.00  0.00    +0.000 A 
ATOM      5  C   UNL     1       1.188  14.907  18.285  0.00  0.00    +0.000 A 
ATOM      6  C   UNL     1       0.146  15.209  19.158  0.00  0.00    +0.000 A 
ATOM      7  C   UNL     1      -0.394  14.168  19.931  0.00  0.00    +0.000 A 
ATOM      8  C   UNL     1       1.662  11.168  18.796  0.00  0.00    +0.000 C 
ATOM      9  O   UNL     1       2.419  10.958  17.854  0.00  0.00    +0.000 OA
ATOM     10  C   UNL     1       1.170  10.048  19.651  0.00  0.00    +0.000 A 
ATOM     11  C   UNL     1       1.672   8.676  19.534  0.00  0.00    +0.000 A 
ATOM     12  C   UNL     1       2.583   8.124  18.571  0.00  0.00    +0.000 A 
ATOM     13  C   UNL     1       2.916   6.769  18.608  0.00  0.00    +0.000 A 
ATOM     14  C   UNL     1       2.456   5.940  19.593  0.00  0.00    +0.000 A 
ATOM     15  C   UNL     1       1.602   6.393  20.552  0.00  0.00    +0.000 A 
ATOM     16  C   UNL     1       1.179   7.721  20.475  0.00  0.00    +0.000 A 
ATOM     17  C   UNL     1       0.179   8.060  21.338  0.00  0.00    +0.000 A 
ATOM     18  C   UNL     1      -0.354   9.315  21.281  0.00  0.00    +0.000 A 
ATOM     19  N   UNL     1       0.152  10.315  20.516  0.00  0.00    +0.000 N 
ATOM     20  O   UNL     1       2.875   4.657  19.470  0.00  0.00    +0.000 OA
ATOM     21  C   UNL     1       3.521   4.725  18.188  0.00  0.00    +0.000 C 
ATOM     22  O   UNL     1       3.675   6.084  17.705  0.00  0.00    +0.000 OA
ENDROOT
BRANCH   1  24
ATOM     23  C   UNL     1      -1.633  11.856  23.206  0.00  0.00    +0.000 C 
ATOM     24  C   UNL     1      -0.446  11.957  22.264  0.00  0.00    +0.000 C 
ENDBRANCH   1  24
BRANCH   1  25
ATOM     25  C   UNL     1      -1.976  11.515  20.099  0.00  0.00    +0.000 C 
ATOM     26  C   UNL     1      -1.998  11.142  18.605  0.00  0.00    +0.000 C 
ENDBRANCH   1  25
BRANCH   6  27
ATOM     27  O   UNL     1      -0.396  16.446  19.313  0.00  0.00    +0.000 OA
ATOM     28  C   UNL     1      -0.713  17.243  18.186  0.00  0.00    +0.000 C 
ENDBRANCH   6  27
BRANCH   7  29
ATOM     29  O   UNL     1      -1.511  14.278  20.705  0.00  0.00    +0.000 OA
ATOM     30  C   UNL     1      -1.730  15.230  21.733  0.00  0.00    +0.000 C 
ENDBRANCH   7  29
TORSDOF 4
ENDMDL
MODEL 5
REMARK VINA RESULT:      -6.0      8.226     10.727
REMARK  Name = 
REMARK  8 active torsions:
REMARK  status: ('A' for Active; 'I' for Inactive)
REMARK    1  A    between atoms: C_1  and  C_2
REMARK    2  A    between atoms: C_2  and  C_3
REMARK    3  A    between atoms: C_3  and  C_4
REMARK    4  A    between atoms: C_4  and  C_5
REMARK    5  A    between atoms: C_10  and  O_11
REMARK    6  A    between atoms: O_11  and  C_12
REMARK    7  A    between atoms: C_13  and  O_14
REMARK    8  A    between atoms: O_14  and  C_15
REMARK                            x       y       z     vdW  Elec       q    Type
REMARK                         _______ _______ _______ _____ _____    ______ ____
ROOT
ATOM      1  C   UNL     1       8.739  15.163  21.722  0.00  0.00    +0.000 C 
ATOM      2  C   UNL     1       9.654  14.085  21.115  0.00  0.00    +0.000 A 
ATOM      3  C   UNL     1       9.583  12.764  21.553  0.00  0.00    +0.000 A 
ATOM      4  C   UNL     1      10.334  11.775  20.878  0.00  0.00    +0.000 A 
ATOM      5  C   UNL     1      11.177  12.102  19.801  0.00  0.00    +0.000 A 
ATOM      6  C   UNL     1      11.256  13.412  19.337  0.00  0.00    +0.000 A 
ATOM      7  C   UNL     1      10.467  14.388  19.968  0.00  0.00    +0.000 A 
ATOM      8  C   UNL     1       8.621  12.351  22.607  0.00  0.00    +0.000 C 
ATOM      9  O   UNL     1       8.454  11.151  22.797  0.00  0.00    +0.000 OA
ATOM     10  C   UNL     1       7.823  13.367  23.354  0.00  0.00    +0.000 A 
ATOM     11  C   UNL     1       6.924  13.019  24.459  0.00  0.00    +0.000 A 
ATOM     12  C   UNL     1       6.549  11.721  24.947  0.00  0.00    +0.000 A 
ATOM     13  C   UNL     1       5.643  11.597  26.001  0.00  0.00    +0.000 A 
ATOM     14  C   UNL     1       5.141  12.688  26.653  0.00  0.00    +0.000 A 
ATOM     15  C   UNL     1       5.462  13.952  26.260  0.00  0.00    +0.000 A 
ATOM     16  C   UNL     1       6.289  14.099  25.144  0.00  0.00    +0.000 A 
ATOM     17  C   UNL     1       6.414  15.375  24.681  0.00  0.00    +0.000 A 
ATOM     18  C   UNL     1       7.139  15.605  23.548  0.00  0.00    +0.000 A 
ATOM     19  N   UNL     1       7.882  14.657  22.924  0.00  0.00    +0.000 N 
ATOM     20  O   UNL     1       4.271  12.382  27.646  0.00  0.00    +0.000 OA
ATOM     21  C   UNL     1       4.144  10.965  27.441  0.00  0.00    +0.000 C 
ATOM     22  O   UNL     1       5.114  10.442  26.498  0.00  0.00    +0.000 OA
ENDROOT
BRANCH   1  24
ATOM     23  C   UNL     1      10.769  16.195  23.252  0.00  0.00    +0.000 C 
ATOM     24  C   UNL     1       9.570  16.367  22.338  0.00  0.00    +0.000 C 
ENDBRANCH   1  24
BRANCH   1  25
ATOM     25  C   UNL     1       7.674  15.546  20.619  0.00  0.00    +0.000 C 
ATOM     26  C   UNL     1       7.487  17.062  20.419  0.00  0.00    +0.000 C 
ENDBRANCH   1  25
BRANCH   6  27
ATOM     27  O   UNL     1      12.043  13.819  18.306  0.00  0.00    +0.000 OA
ATOM     28  C   UNL     1      11.897  13.251  17.017  0.00  0.00    +0.000 C 
ENDBRANCH   6  27
BRANCH   7  29
ATOM     29  O   UNL     1      10.321  15.669  19.526  0.00  0.00    +0.000 OA
ATOM     30  C   UNL     1      11.350  16.636  19.398  0.00  0.00    +0.000 C 
ENDBRANCH   7  29
TORSDOF 4
ENDMDL
MODEL 6
REMARK VINA RESULT:      -6.0      7.924     10.277
REMARK  Name = 
REMARK  8 active torsions:
REMARK  status: ('A' for Active; 'I' for Inactive)
REMARK    1  A    between atoms: C_1  and  C_2
REMARK    2  A    between atoms: C_2  and  C_3
REMARK    3  A    between atoms: C_3  and  C_4
REMARK    4  A    between atoms: C_4  and  C_5
REMARK    5  A    between atoms: C_10  and  O_11
REMARK    6  A    between atoms: O_11  and  C_12
REMARK    7  A    between atoms: C_13  and  O_14
REMARK    8  A    between atoms: O_14  and  C_15
REMARK                            x       y       z     vdW  Elec       q    Type
REMARK                         _______ _______ _______ _____ _____    ______ ____
ROOT
ATOM      1  C   UNL     1       7.996  14.728  20.718  0.00  0.00    +0.000 C 
ATOM      2  C   UNL     1       8.936  13.651  20.149  0.00  0.00    +0.000 A 
ATOM      3  C   UNL     1       9.086  12.425  20.795  0.00  0.00    +0.000 A 
ATOM      4  C   UNL     1       9.844  11.408  20.172  0.00  0.00    +0.000 A 
ATOM      5  C   UNL     1      10.479  11.620  18.936  0.00  0.00    +0.000 A 
ATOM      6  C   UNL     1      10.336  12.832  18.265  0.00  0.00    +0.000 A 
ATOM      7  C   UNL     1       9.535  13.824  18.853  0.00  0.00    +0.000 A 
ATOM      8  C   UNL     1       8.340  12.114  22.042  0.00  0.00    +0.000 C 
ATOM      9  O   UNL     1       8.345  10.955  22.442  0.00  0.00    +0.000 OA
ATOM     10  C   UNL     1       7.542  13.165  22.738  0.00  0.00    +0.000 A 
ATOM     11  C   UNL     1       6.858  12.932  24.014  0.00  0.00    +0.000 A 
ATOM     12  C   UNL     1       6.713  11.709  24.754  0.00  0.00    +0.000 A 
ATOM     13  C   UNL     1       5.988  11.686  25.945  0.00  0.00    +0.000 A 
ATOM     14  C   UNL     1       5.459  12.823  26.490  0.00  0.00    +0.000 A 
ATOM     15  C   UNL     1       5.568  14.023  25.857  0.00  0.00    +0.000 A 
ATOM     16  C   UNL     1       6.204  14.051  24.614  0.00  0.00    +0.000 A 
ATOM     17  C   UNL     1       6.110  15.233  23.942  0.00  0.00    +0.000 A 
ATOM     18  C   UNL     1       6.633  15.330  22.685  0.00  0.00    +0.000 A 
ATOM     19  N   UNL     1       7.386  14.361  22.106  0.00  0.00    +0.000 N 
ATOM     20  O   UNL     1       4.782  12.614  27.646  0.00  0.00    +0.000 OA
ATOM     21  C   UNL     1       4.796  11.178  27.690  0.00  0.00    +0.000 C 
ATOM     22  O   UNL     1       5.676  10.592  26.697  0.00  0.00    +0.000 OA
ENDROOT
BRANCH   1  24
ATOM     23  C   UNL     1      10.110  16.190  21.680  0.00  0.00    +0.000 C 
ATOM     24  C   UNL     1       8.758  16.092  20.996  0.00  0.00    +0.000 C 
ENDBRANCH   1  24
BRANCH   1  25
ATOM     25  C   UNL     1       6.746  14.813  19.755  0.00  0.00    +0.000 C 
ATOM     26  C   UNL     1       6.371  16.246  19.329  0.00  0.00    +0.000 C 
ENDBRANCH   1  25
BRANCH   6  27
ATOM     27  O   UNL     1      10.913  13.125  17.070  0.00  0.00    +0.000 OA
ATOM     28  C   UNL     1      12.322  13.190  16.944  0.00  0.00    +0.000 C 
ENDBRANCH   6  27
BRANCH   7  29
ATOM     29  O   UNL     1       9.177  14.991  18.245  0.00  0.00    +0.000 OA
ATOM     30  C   UNL     1      10.055  16.007  17.792  0.00  0.00    +0.000 C 
ENDBRANCH   7  29
TORSDOF 4
ENDMDL
MODEL 7
REMARK VINA RESULT:      -5.9      8.540     11.052
REMARK  Name = 
REMARK  8 active torsions:
REMARK  status: ('A' for Active; 'I' for Inactive)
REMARK    1  A    between atoms: C_1  and  C_2
REMARK    2  A    between atoms: C_2  and  C_3
REMARK    3  A    between atoms: C_3  and  C_4
REMARK    4  A    between atoms: C_4  and  C_5
REMARK    5  A    between atoms: C_10  and  O_11
REMARK    6  A    between atoms: O_11  and  C_12
REMARK    7  A    between atoms: C_13  and  O_14
REMARK    8  A    between atoms: O_14  and  C_15
REMARK                            x       y       z     vdW  Elec       q    Type
REMARK                         _______ _______ _______ _____ _____    ______ ____
ROOT
ATOM      1  C   UNL     1       9.432  14.919  21.476  0.00  0.00    +0.000 C 
ATOM      2  C   UNL     1       9.709  13.707  20.570  0.00  0.00    +0.000 A 
ATOM      3  C   UNL     1       9.396  12.417  20.994  0.00  0.00    +0.000 A 
ATOM      4  C   UNL     1       9.530  11.343  20.085  0.00  0.00    +0.000 A 
ATOM      5  C   UNL     1      10.007  11.543  18.778  0.00  0.00    +0.000 A 
ATOM      6  C   UNL     1      10.316  12.824  18.326  0.00  0.00    +0.000 A 
ATOM      7  C   UNL     1      10.129  13.901  19.208  0.00  0.00    +0.000 A 
ATOM      8  C   UNL     1       8.779  12.170  22.322  0.00  0.00    +0.000 C 
ATOM      9  O   UNL     1       8.331  11.051  22.551  0.00  0.00    +0.000 OA
ATOM     10  C   UNL     1       8.635  13.274  23.316  0.00  0.00    +0.000 A 
ATOM     11  C   UNL     1       8.111  13.065  24.669  0.00  0.00    +0.000 A 
ATOM     12  C   UNL     1       7.552  11.876  25.251  0.00  0.00    +0.000 A 
ATOM     13  C   UNL     1       7.072  11.889  26.561  0.00  0.00    +0.000 A 
ATOM     14  C   UNL     1       7.182  12.993  27.359  0.00  0.00    +0.000 A 
ATOM     15  C   UNL     1       7.715  14.153  26.885  0.00  0.00    +0.000 A 
ATOM     16  C   UNL     1       8.111  14.192  25.547  0.00  0.00    +0.000 A 
ATOM     17  C   UNL     1       8.450  15.427  25.079  0.00  0.00    +0.000 A 
ATOM     18  C   UNL     1       8.774  15.575  23.762  0.00  0.00    +0.000 A 
ATOM     19  N   UNL     1       8.931  14.537  22.903  0.00  0.00    +0.000 N 
ATOM     20  O   UNL     1       6.658  12.830  28.598  0.00  0.00    +0.000 OA
ATOM     21  C   UNL     1       6.045  11.539  28.443  0.00  0.00    +0.000 C 
ATOM     22  O   UNL     1       6.423  10.879  27.208  0.00  0.00    +0.000 OA
ENDROOT
BRANCH   1  24
ATOM     23  C   UNL     1      10.902  17.236  21.430  0.00  0.00    +0.000 C 
ATOM     24  C   UNL     1      10.748  15.761  21.757  0.00  0.00    +0.000 C 
ENDBRANCH   1  24
BRANCH   1  25
ATOM     25  C   UNL     1       8.222  15.711  20.839  0.00  0.00    +0.000 C 
ATOM     26  C   UNL     1       6.952  14.866  20.629  0.00  0.00    +0.000 C 
ENDBRANCH   1  25
BRANCH   6  27
ATOM     27  O   UNL     1      10.784  13.111  17.082  0.00  0.00    +0.000 OA
ATOM     28  C   UNL     1      12.174  13.220  16.840  0.00  0.00    +0.000 C 
ENDBRANCH   6  27
BRANCH   7  29
ATOM     29  O   UNL     1      10.236  15.215  18.859  0.00  0.00    +0.000 OA
ATOM     30  C   UNL     1       9.575  15.854  17.779  0.00  0.00    +0.000 C 
ENDBRANCH   7  29
TORSDOF 4
ENDMDL
MODEL 8
REMARK VINA RESULT:      -5.9      1.890      7.868
REMARK  Name = 
REMARK  8 active torsions:
REMARK  status: ('A' for Active; 'I' for Inactive)
REMARK    1  A    between atoms: C_1  and  C_2
REMARK    2  A    between atoms: C_2  and  C_3
REMARK    3  A    between atoms: C_3  and  C_4
REMARK    4  A    between atoms: C_4  and  C_5
REMARK    5  A    between atoms: C_10  and  O_11
REMARK    6  A    between atoms: O_11  and  C_12
REMARK    7  A    between atoms: C_13  and  O_14
REMARK    8  A    between atoms: O_14  and  C_15
REMARK                            x       y       z     vdW  Elec       q    Type
REMARK                         _______ _______ _______ _____ _____    ______ ____
ROOT
ATOM      1  C   UNL     1       0.325  12.034  19.837  0.00  0.00    +0.000 C 
ATOM      2  C   UNL     1       0.468  10.729  20.639  0.00  0.00    +0.000 A 
ATOM      3  C   UNL     1      -0.208  10.560  21.846  0.00  0.00    +0.000 A 
ATOM      4  C   UNL     1      -0.169   9.300  22.485  0.00  0.00    +0.000 A 
ATOM      5  C   UNL     1       0.567   8.228  21.950  0.00  0.00    +0.000 A 
ATOM      6  C   UNL     1       1.242   8.368  20.740  0.00  0.00    +0.000 A 
ATOM      7  C   UNL     1       1.157   9.601  20.073  0.00  0.00    +0.000 A 
ATOM      8  C   UNL     1      -1.093  11.622  22.391  0.00  0.00    +0.000 C 
ATOM      9  O   UNL     1      -1.823  11.337  23.334  0.00  0.00    +0.000 OA
ATOM     10  C   UNL     1      -1.150  12.970  21.754  0.00  0.00    +0.000 A 
ATOM     11  C   UNL     1      -1.941  14.077  22.301  0.00  0.00    +0.000 A 
ATOM     12  C   UNL     1      -2.856  14.076  23.408  0.00  0.00    +0.000 A 
ATOM     13  C   UNL     1      -3.546  15.237  23.756  0.00  0.00    +0.000 A 
ATOM     14  C   UNL     1      -3.326  16.426  23.118  0.00  0.00    +0.000 A 
ATOM     15  C   UNL     1      -2.461  16.512  22.070  0.00  0.00    +0.000 A 
ATOM     16  C   UNL     1      -1.835  15.339  21.642  0.00  0.00    +0.000 A 
ATOM     17  C   UNL     1      -1.138  15.448  20.474  0.00  0.00    +0.000 A 
ATOM     18  C   UNL     1      -0.559  14.335  19.937  0.00  0.00    +0.000 A 
ATOM     19  N   UNL     1      -0.498  13.137  20.571  0.00  0.00    +0.000 N 
ATOM     20  O   UNL     1      -4.086  17.448  23.582  0.00  0.00    +0.000 OA
ATOM     21  C   UNL     1      -4.946  16.732  24.484  0.00  0.00    +0.000 C 
ATOM     22  O   UNL     1      -4.518  15.364  24.704  0.00  0.00    +0.000 OA
ENDROOT
BRANCH   1  24
ATOM     23  C   UNL     1       2.278  13.051  18.200  0.00  0.00    +0.000 C 
ATOM     24  C   UNL     1       1.729  12.727  19.578  0.00  0.00    +0.000 C 
ENDBRANCH   1  24
BRANCH   1  25
ATOM     25  C   UNL     1      -0.533  11.700  18.552  0.00  0.00    +0.000 C 
ATOM     26  C   UNL     1      -1.918  11.096  18.855  0.00  0.00    +0.000 C 
ENDBRANCH   1  25
BRANCH   6  27
ATOM     27  O   UNL     1       1.978   7.390  20.149  0.00  0.00    +0.000 OA
ATOM     28  C   UNL     1       1.800   6.033  20.511  0.00  0.00    +0.000 C 
ENDBRANCH   6  27
BRANCH   7  29
ATOM     29  O   UNL     1       1.629   9.835  18.815  0.00  0.00    +0.000 OA
ATOM     30  C   UNL     1       1.650   8.910  17.740  0.00  0.00    +0.000 C 
ENDBRANCH   7  29
TORSDOF 4
ENDMDL
MODEL 9
REMARK VINA RESULT:      -5.8      7.565      9.187
REMARK  Name = 
REMARK  8 active torsions:
REMARK  status: ('A' for Active; 'I' for Inactive)
REMARK    1  A    between atoms: C_1  and  C_2
REMARK    2  A    between atoms: C_2  and  C_3
REMARK    3  A    between atoms: C_3  and  C_4
REMARK    4  A    between atoms: C_4  and  C_5
REMARK    5  A    between atoms: C_10  and  O_11
REMARK    6  A    between atoms: O_11  and  C_12
REMARK    7  A    between atoms: C_13  and  O_14
REMARK    8  A    between atoms: O_14  and  C_15
REMARK                            x       y       z     vdW  Elec       q    Type
REMARK                         _______ _______ _______ _____ _____    ______ ____
ROOT
ATOM      1  C   UNL     1       6.390  15.021  22.800  0.00  0.00    +0.000 C 
ATOM      2  C   UNL     1       6.351  13.752  23.670  0.00  0.00    +0.000 A 
ATOM      3  C   UNL     1       7.186  12.672  23.390  0.00  0.00    +0.000 A 
ATOM      4  C   UNL     1       7.227  11.583  24.289  0.00  0.00    +0.000 A 
ATOM      5  C   UNL     1       6.416  11.549  25.437  0.00  0.00    +0.000 A 
ATOM      6  C   UNL     1       5.580  12.620  25.745  0.00  0.00    +0.000 A 
ATOM      7  C   UNL     1       5.581  13.729  24.885  0.00  0.00    +0.000 A 
ATOM      8  C   UNL     1       8.146  12.713  22.256  0.00  0.00    +0.000 C 
ATOM      9  O   UNL     1       8.997  11.834  22.190  0.00  0.00    +0.000 OA
ATOM     10  C   UNL     1       8.123  13.838  21.276  0.00  0.00    +0.000 A 
ATOM     11  C   UNL     1       8.990  13.882  20.094  0.00  0.00    +0.000 A 
ATOM     12  C   UNL     1      10.050  12.991  19.714  0.00  0.00    +0.000 A 
ATOM     13  C   UNL     1      10.789  13.225  18.555  0.00  0.00    +0.000 A 
ATOM     14  C   UNL     1      10.491  14.253  17.704  0.00  0.00    +0.000 A 
ATOM     15  C   UNL     1       9.490  15.131  17.986  0.00  0.00    +0.000 A 
ATOM     16  C   UNL     1       8.802  14.973  19.191  0.00  0.00    +0.000 A 
ATOM     17  C   UNL     1       7.951  15.990  19.509  0.00  0.00    +0.000 A 
ATOM     18  C   UNL     1       7.295  15.960  20.706  0.00  0.00    +0.000 A 
ATOM     19  N   UNL     1       7.314  14.898  21.550  0.00  0.00    +0.000 N 
ATOM     20  O   UNL     1      11.316  14.335  16.631  0.00  0.00    +0.000 OA
ATOM     21  C   UNL     1      12.288  13.337  16.984  0.00  0.00    +0.000 C 
ATOM     22  O   UNL     1      11.885  12.536  18.124  0.00  0.00    +0.000 OA
ENDROOT
BRANCH   1  24
ATOM     23  C   UNL     1       4.058  14.333  21.528  0.00  0.00    +0.000 C 
ATOM     24  C   UNL     1       4.968  15.358  22.180  0.00  0.00    +0.000 C 
ENDBRANCH   1  24
BRANCH   1  25
ATOM     25  C   UNL     1       7.058  16.160  23.667  0.00  0.00    +0.000 C 
ATOM     26  C   UNL     1       8.481  15.831  24.157  0.00  0.00    +0.000 C 
ENDBRANCH   1  25
BRANCH   6  27
ATOM     27  O   UNL     1       4.763  12.673  26.830  0.00  0.00    +0.000 OA
ATOM     28  C   UNL     1       5.096  11.984  28.021  0.00  0.00    +0.000 C 
ENDBRANCH   6  27
BRANCH   7  29
ATOM     29  O   UNL     1       4.941  14.906  25.139  0.00  0.00    +0.000 OA
ATOM     30  C   UNL     1       5.073  15.699  26.307  0.00  0.00    +0.000 C 
ENDBRANCH   7  29
TORSDOF 4
ENDMDL
