MODEL 1
REMARK VINA RESULT:      -7.8      0.000      0.000
REMARK  Name = 
REMARK  7 active torsions:
REMARK  status: ('A' for Active; 'I' for Inactive)
REMARK    1  A    between atoms: C_1  and  O_2
REMARK    2  A    between atoms: O_2  and  C_3
REMARK    3  A    between atoms: C_6  and  C_7
REMARK    4  A    between atoms: C_15  and  O_16
REMARK    5  A    between atoms: O_16  and  C_17
REMARK    6  A    between atoms: C_26  and  O_27
REMARK    7  A    between atoms: O_27  and  C_28
REMARK                            x       y       z     vdW  Elec       q    Type
REMARK                         _______ _______ _______ _____ _____    ______ ____
ROOT
ATOM      1  C   UNL     1       4.423   4.532  19.009  0.00  0.00    +0.000 C 
ATOM      2  C   UNL     1       3.390   5.633  18.755  0.00  0.00    +0.000 A 
ATOM      3  C   UNL     1       3.772   6.988  18.786  0.00  0.00    +0.000 A 
ATOM      4  C   UNL     1       2.878   7.916  18.298  0.00  0.00    +0.000 A 
ATOM      5  C   UNL     1       1.679   7.538  17.734  0.00  0.00    +0.000 A 
ATOM      6  C   UNL     1       1.272   6.225  17.694  0.00  0.00    +0.000 A 
ATOM      7  C   UNL     1       2.109   5.269  18.272  0.00  0.00    +0.000 A 
ATOM      8  O   UNL     1       1.654   3.978  18.227  0.00  0.00    +0.000 OA
ATOM      9  C   UNL     1       2.361   2.993  18.978  0.00  0.00    +0.000 C 
ATOM     10  C   UNL     1       2.887   1.912  18.034  0.00  0.00    +0.000 C 
ATOM     11  O   UNL     1       3.968   1.283  18.730  0.00  0.00    +0.000 OA
ATOM     12  C   UNL     1       4.383   2.117  19.728  0.00  0.00    +0.000 C 
ATOM     13  O   UNL     1       5.247   1.834  20.543  0.00  0.00    +0.000 OA
ATOM     14  C   UNL     1       3.637   3.408  19.687  0.00  0.00    +0.000 C 
ATOM     15  O   UNL     1       0.975   8.605  17.264  0.00  0.00    +0.000 OA
ATOM     16  C   UNL     1       1.716   9.674  17.886  0.00  0.00    +0.000 C 
ATOM     17  O   UNL     1       3.042   9.267  18.285  0.00  0.00    +0.000 OA
ENDROOT
BRANCH   1  21
ATOM     18  C   UNL     1       6.540   4.677  15.224  0.00  0.00    +0.000 A 
ATOM     19  C   UNL     1       5.213   4.299  15.268  0.00  0.00    +0.000 A 
ATOM     20  C   UNL     1       4.578   4.102  16.492  0.00  0.00    +0.000 A 
ATOM     21  C   UNL     1       5.249   4.298  17.715  0.00  0.00    +0.000 A 
ATOM     22  C   UNL     1       6.648   4.481  17.657  0.00  0.00    +0.000 A 
ATOM     23  C   UNL     1       7.268   4.707  16.413  0.00  0.00    +0.000 A 
BRANCH  18  25
ATOM     24  C   UNL     1       6.729   4.122  12.926  0.00  0.00    +0.000 C 
ATOM     25  O   UNL     1       7.007   5.031  13.985  0.00  0.00    +0.000 OA
ENDBRANCH  18  25
BRANCH  22  26
ATOM     26  O   UNL     1       7.356   4.557  18.828  0.00  0.00    +0.000 OA
ATOM     27  C   UNL     1       7.828   5.867  19.184  0.00  0.00    +0.000 C 
ENDBRANCH  22  26
ENDBRANCH   1  21
BRANCH   9  28
ATOM     28  O   UNL     1       1.489   2.262  19.873  0.00  0.00    +0.000 OA
ATOM     29  C   UNL     1       1.253   2.825  21.151  0.00  0.00    +0.000 C 
ENDBRANCH   9  28
TORSDOF 4
ENDMDL
MODEL 2
REMARK VINA RESULT:      -7.1      8.430     11.846
REMARK  Name = 
REMARK  7 active torsions:
REMARK  status: ('A' for Active; 'I' for Inactive)
REMARK    1  A    between atoms: C_1  and  O_2
REMARK    2  A    between atoms: O_2  and  C_3
REMARK    3  A    between atoms: C_6  and  C_7
REMARK    4  A    between atoms: C_15  and  O_16
REMARK    5  A    between atoms: O_16  and  C_17
REMARK    6  A    between atoms: C_26  and  O_27
REMARK    7  A    between atoms: O_27  and  C_28
REMARK                            x       y       z     vdW  Elec       q    Type
REMARK                         _______ _______ _______ _____ _____    ______ ____
ROOT
ATOM      1  C   UNL     1       9.170  13.731  18.231  0.00  0.00    +0.000 C 
ATOM      2  C   UNL     1       8.026  14.746  18.183  0.00  0.00    +0.000 A 
ATOM      3  C   UNL     1       6.698  14.314  18.002  0.00  0.00    +0.000 A 
ATOM      4  C   UNL     1       5.692  15.228  18.229  0.00  0.00    +0.000 A 
ATOM      5  C   UNL     1       5.959  16.502  18.681  0.00  0.00    +0.000 A 
ATOM      6  C   UNL     1       7.245  16.959  18.859  0.00  0.00    +0.000 A 
ATOM      7  C   UNL     1       8.291  16.090  18.543  0.00  0.00    +0.000 A 
ATOM      8  O   UNL     1       9.552  16.595  18.718  0.00  0.00    +0.000 OA
ATOM      9  C   UNL     1      10.652  15.835  18.219  0.00  0.00    +0.000 C 
ATOM     10  C   UNL     1      11.587  15.472  19.372  0.00  0.00    +0.000 C 
ATOM     11  O   UNL     1      12.331  14.335  18.923  0.00  0.00    +0.000 OA
ATOM     12  C   UNL     1      11.665  13.768  17.876  0.00  0.00    +0.000 C 
ATOM     13  O   UNL     1      12.082  12.819  17.230  0.00  0.00    +0.000 OA
ATOM     14  C   UNL     1      10.369  14.465  17.628  0.00  0.00    +0.000 C 
ATOM     15  O   UNL     1       4.822  17.220  18.893  0.00  0.00    +0.000 OA
ATOM     16  C   UNL     1       3.871  16.368  18.222  0.00  0.00    +0.000 C 
ATOM     17  O   UNL     1       4.357  15.019  18.063  0.00  0.00    +0.000 OA
ENDROOT
BRANCH   1  21
ATOM     18  C   UNL     1       8.476  11.887  22.097  0.00  0.00    +0.000 A 
ATOM     19  C   UNL     1       8.495  13.262  21.972  0.00  0.00    +0.000 A 
ATOM     20  C   UNL     1       8.870  13.854  20.768  0.00  0.00    +0.000 A 
ATOM     21  C   UNL     1       9.220  13.083  19.641  0.00  0.00    +0.000 A 
ATOM     22  C   UNL     1       9.395  11.697  19.841  0.00  0.00    +0.000 A 
ATOM     23  C   UNL     1       8.983  11.112  21.054  0.00  0.00    +0.000 A 
BRANCH  18  25
ATOM     24  C   UNL     1       8.311  12.050  24.458  0.00  0.00    +0.000 C 
ATOM     25  O   UNL     1       7.909  11.412  23.250  0.00  0.00    +0.000 OA
ENDBRANCH  18  25
BRANCH  22  26
ATOM     26  O   UNL     1       9.849  10.929  18.800  0.00  0.00    +0.000 OA
ATOM     27  C   UNL     1       8.907   9.984  18.269  0.00  0.00    +0.000 C 
ENDBRANCH  22  26
ENDBRANCH   1  21
BRANCH   9  28
ATOM     28  O   UNL     1      11.493  16.613  17.335  0.00  0.00    +0.000 OA
ATOM     29  C   UNL     1      11.382  18.022  17.406  0.00  0.00    +0.000 C 
ENDBRANCH   9  28
TORSDOF 4
ENDMDL
MODEL 3
REMARK VINA RESULT:      -6.4      7.231     10.950
REMARK  Name = 
REMARK  7 active torsions:
REMARK  status: ('A' for Active; 'I' for Inactive)
REMARK    1  A    between atoms: C_1  and  O_2
REMARK    2  A    between atoms: O_2  and  C_3
REMARK    3  A    between atoms: C_6  and  C_7
REMARK    4  A    between atoms: C_15  and  O_16
REMARK    5  A    between atoms: O_16  and  C_17
REMARK    6  A    between atoms: C_26  and  O_27
REMARK    7  A    between atoms: O_27  and  C_28
REMARK                            x       y       z     vdW  Elec       q    Type
REMARK                         _______ _______ _______ _____ _____    ______ ____
ROOT
ATOM      1  C   UNL     1      -0.765  12.878  20.977  0.00  0.00    +0.000 C 
ATOM      2  C   UNL     1      -0.882  14.339  20.534  0.00  0.00    +0.000 A 
ATOM      3  C   UNL     1      -0.144  14.809  19.431  0.00  0.00    +0.000 A 
ATOM      4  C   UNL     1      -0.479  16.042  18.916  0.00  0.00    +0.000 A 
ATOM      5  C   UNL     1      -1.540  16.769  19.411  0.00  0.00    +0.000 A 
ATOM      6  C   UNL     1      -2.276  16.343  20.493  0.00  0.00    +0.000 A 
ATOM      7  C   UNL     1      -1.899  15.144  21.102  0.00  0.00    +0.000 A 
ATOM      8  O   UNL     1      -2.648  14.770  22.185  0.00  0.00    +0.000 OA
ATOM      9  C   UNL     1      -2.187  13.672  22.970  0.00  0.00    +0.000 C 
ATOM     10  C   UNL     1      -3.240  12.563  22.965  0.00  0.00    +0.000 C 
ATOM     11  O   UNL     1      -2.537  11.362  23.300  0.00  0.00    +0.000 OA
ATOM     12  C   UNL     1      -1.205  11.564  23.082  0.00  0.00    +0.000 C 
ATOM     13  O   UNL     1      -0.336  10.746  23.340  0.00  0.00    +0.000 OA
ATOM     14  C   UNL     1      -0.961  12.913  22.494  0.00  0.00    +0.000 C 
ATOM     15  O   UNL     1      -1.733  17.929  18.724  0.00  0.00    +0.000 OA
ATOM     16  C   UNL     1      -0.495  17.978  17.985  0.00  0.00    +0.000 C 
ATOM     17  O   UNL     1       0.143  16.687  17.890  0.00  0.00    +0.000 OA
ENDROOT
BRANCH   1  21
ATOM     18  C   UNL     1      -3.007  10.957  17.796  0.00  0.00    +0.000 A 
ATOM     19  C   UNL     1      -3.601  11.920  18.588  0.00  0.00    +0.000 A 
ATOM     20  C   UNL     1      -2.936  12.424  19.703  0.00  0.00    +0.000 A 
ATOM     21  C   UNL     1      -1.641  11.991  20.051  0.00  0.00    +0.000 A 
ATOM     22  C   UNL     1      -1.132  10.869  19.362  0.00  0.00    +0.000 A 
ATOM     23  C   UNL     1      -1.804  10.392  18.219  0.00  0.00    +0.000 A 
BRANCH  18  25
ATOM     24  C   UNL     1      -2.879  10.079  15.597  0.00  0.00    +0.000 C 
ATOM     25  O   UNL     1      -3.660  10.677  16.625  0.00  0.00    +0.000 OA
ENDBRANCH  18  25
BRANCH  22  26
ATOM     26  O   UNL     1       0.073  10.344  19.749  0.00  0.00    +0.000 OA
ATOM     27  C   UNL     1       0.978  10.015  18.682  0.00  0.00    +0.000 C 
ENDBRANCH  22  26
ENDBRANCH   1  21
BRANCH   9  28
ATOM     28  O   UNL     1      -2.067  14.016  24.370  0.00  0.00    +0.000 OA
ATOM     29  C   UNL     1      -3.210  14.557  25.006  0.00  0.00    +0.000 C 
ENDBRANCH   9  28
TORSDOF 4
ENDMDL
MODEL 4
REMARK VINA RESULT:      -6.4      6.726     10.257
REMARK  Name = 
REMARK  7 active torsions:
REMARK  status: ('A' for Active; 'I' for Inactive)
REMARK    1  A    between atoms: C_1  and  O_2
REMARK    2  A    between atoms: O_2  and  C_3
REMARK    3  A    between atoms: C_6  and  C_7
REMARK    4  A    between atoms: C_15  and  O_16
REMARK    5  A    between atoms: O_16  and  C_17
REMARK    6  A    between atoms: C_26  and  O_27
REMARK    7  A    between atoms: O_27  and  C_28
REMARK                            x       y       z     vdW  Elec       q    Type
REMARK                         _______ _______ _______ _____ _____    ______ ____
ROOT
ATOM      1  C   UNL     1       0.119  12.327  20.897  0.00  0.00    +0.000 C 
ATOM      2  C   UNL     1       0.622  13.651  20.316  0.00  0.00    +0.000 A 
ATOM      3  C   UNL     1       1.703  13.667  19.414  0.00  0.00    +0.000 A 
ATOM      4  C   UNL     1       1.943  14.836  18.726  0.00  0.00    +0.000 A 
ATOM      5  C   UNL     1       1.122  15.935  18.855  0.00  0.00    +0.000 A 
ATOM      6  C   UNL     1       0.062  15.955  19.733  0.00  0.00    +0.000 A 
ATOM      7  C   UNL     1      -0.149  14.822  20.521  0.00  0.00    +0.000 A 
ATOM      8  O   UNL     1      -1.202  14.895  21.392  0.00  0.00    +0.000 OA
ATOM      9  C   UNL     1      -1.341  13.859  22.363  0.00  0.00    +0.000 C 
ATOM     10  C   UNL     1      -2.685  13.157  22.171  0.00  0.00    +0.000 C 
ATOM     11  O   UNL     1      -2.541  11.871  22.783  0.00  0.00    +0.000 OA
ATOM     12  C   UNL     1      -1.210  11.600  22.912  0.00  0.00    +0.000 C 
ATOM     13  O   UNL     1      -0.762  10.606  23.461  0.00  0.00    +0.000 OA
ATOM     14  C   UNL     1      -0.385  12.681  22.298  0.00  0.00    +0.000 C 
ATOM     15  O   UNL     1       1.505  16.960  18.046  0.00  0.00    +0.000 OA
ATOM     16  C   UNL     1       2.812  16.488  17.662  0.00  0.00    +0.000 C 
ATOM     17  O   UNL     1       2.962  15.065  17.852  0.00  0.00    +0.000 OA
ENDROOT
BRANCH   1  21
ATOM     18  C   UNL     1      -1.805  10.575  17.424  0.00  0.00    +0.000 A 
ATOM     19  C   UNL     1      -2.066  11.882  17.782  0.00  0.00    +0.000 A 
ATOM     20  C   UNL     1      -1.573  12.396  18.980  0.00  0.00    +0.000 A 
ATOM     21  C   UNL     1      -0.783  11.619  19.850  0.00  0.00    +0.000 A 
ATOM     22  C   UNL     1      -0.697  10.237  19.576  0.00  0.00    +0.000 A 
ATOM     23  C   UNL     1      -1.175   9.740  18.347  0.00  0.00    +0.000 A 
BRANCH  18  25
ATOM     24  C   UNL     1      -3.199  11.017  15.557  0.00  0.00    +0.000 C 
ATOM     25  O   UNL     1      -2.168  10.234  16.148  0.00  0.00    +0.000 OA
ENDBRANCH  18  25
BRANCH  22  26
ATOM     26  O   UNL     1      -0.037   9.425  20.462  0.00  0.00    +0.000 OA
ATOM     27  C   UNL     1       1.239   8.933  20.021  0.00  0.00    +0.000 C 
ENDBRANCH  22  26
ENDBRANCH   1  21
BRANCH   9  28
ATOM     28  O   UNL     1      -1.422  14.381  23.710  0.00  0.00    +0.000 OA
ATOM     29  C   UNL     1      -1.779  15.743  23.857  0.00  0.00    +0.000 C 
ENDBRANCH   9  28
TORSDOF 4
ENDMDL
MODEL 5
REMARK VINA RESULT:      -6.4      6.597     10.275
REMARK  Name = 
REMARK  7 active torsions:
REMARK  status: ('A' for Active; 'I' for Inactive)
REMARK    1  A    between atoms: C_1  and  O_2
REMARK    2  A    between atoms: O_2  and  C_3
REMARK    3  A    between atoms: C_6  and  C_7
REMARK    4  A    between atoms: C_15  and  O_16
REMARK    5  A    between atoms: O_16  and  C_17
REMARK    6  A    between atoms: C_26  and  O_27
REMARK    7  A    between atoms: O_27  and  C_28
REMARK                            x       y       z     vdW  Elec       q    Type
REMARK                         _______ _______ _______ _____ _____    ______ ____
ROOT
ATOM      1  C   UNL     1      -1.927  11.933  20.262  0.00  0.00    +0.000 C 
ATOM      2  C   UNL     1      -2.222  11.226  18.937  0.00  0.00    +0.000 A 
ATOM      3  C   UNL     1      -3.313  11.629  18.143  0.00  0.00    +0.000 A 
ATOM      4  C   UNL     1      -3.379  11.147  16.854  0.00  0.00    +0.000 A 
ATOM      5  C   UNL     1      -2.384  10.352  16.327  0.00  0.00    +0.000 A 
ATOM      6  C   UNL     1      -1.309   9.933  17.077  0.00  0.00    +0.000 A 
ATOM      7  C   UNL     1      -1.264  10.322  18.418  0.00  0.00    +0.000 A 
ATOM      8  O   UNL     1      -0.187   9.865  19.129  0.00  0.00    +0.000 OA
ATOM      9  C   UNL     1      -0.191  10.054  20.544  0.00  0.00    +0.000 C 
ATOM     10  C   UNL     1       1.013  10.903  20.949  0.00  0.00    +0.000 C 
ATOM     11  O   UNL     1       0.678  11.467  22.221  0.00  0.00    +0.000 OA
ATOM     12  C   UNL     1      -0.675  11.396  22.383  0.00  0.00    +0.000 C 
ATOM     13  O   UNL     1      -1.264  11.734  23.398  0.00  0.00    +0.000 OA
ATOM     14  C   UNL     1      -1.329  10.847  21.159  0.00  0.00    +0.000 C 
ATOM     15  O   UNL     1      -2.618  10.034  15.024  0.00  0.00    +0.000 OA
ATOM     16  C   UNL     1      -3.996  10.445  14.920  0.00  0.00    +0.000 C 
ATOM     17  O   UNL     1      -4.372  11.380  15.953  0.00  0.00    +0.000 OA
ENDROOT
BRANCH   1  21
ATOM     18  C   UNL     1      -0.403  15.734  18.827  0.00  0.00    +0.000 A 
ATOM     19  C   UNL     1       0.108  14.548  18.340  0.00  0.00    +0.000 A 
ATOM     20  C   UNL     1      -0.268  13.333  18.909  0.00  0.00    +0.000 A 
ATOM     21  C   UNL     1      -1.187  13.268  19.976  0.00  0.00    +0.000 A 
ATOM     22  C   UNL     1      -1.539  14.486  20.594  0.00  0.00    +0.000 A 
ATOM     23  C   UNL     1      -1.175  15.705  19.989  0.00  0.00    +0.000 A 
BRANCH  18  25
ATOM     24  C   UNL     1      -1.070  17.904  18.141  0.00  0.00    +0.000 C 
ATOM     25  O   UNL     1      -0.122  16.845  18.076  0.00  0.00    +0.000 OA
ENDBRANCH  18  25
BRANCH  22  26
ATOM     26  O   UNL     1      -2.336  14.457  21.709  0.00  0.00    +0.000 OA
ATOM     27  C   UNL     1      -1.844  15.189  22.843  0.00  0.00    +0.000 C 
ENDBRANCH  22  26
ENDBRANCH   1  21
BRANCH   9  28
ATOM     28  O   UNL     1       0.016   8.813  21.258  0.00  0.00    +0.000 OA
ATOM     29  C   UNL     1       1.255   8.154  21.070  0.00  0.00    +0.000 C 
ENDBRANCH   9  28
TORSDOF 4
ENDMDL
MODEL 6
REMARK VINA RESULT:      -6.3      9.881     13.569
REMARK  Name = 
REMARK  7 active torsions:
REMARK  status: ('A' for Active; 'I' for Inactive)
REMARK    1  A    between atoms: C_1  and  O_2
REMARK    2  A    between atoms: O_2  and  C_3
REMARK    3  A    between atoms: C_6  and  C_7
REMARK    4  A    between atoms: C_15  and  O_16
REMARK    5  A    between atoms: O_16  and  C_17
REMARK    6  A    between atoms: C_26  and  O_27
REMARK    7  A    between atoms: O_27  and  C_28
REMARK                            x       y       z     vdW  Elec       q    Type
REMARK                         _______ _______ _______ _____ _____    ______ ____
ROOT
ATOM      1  C   UNL     1      -4.513  12.611  21.779  0.00  0.00    +0.000 C 
ATOM      2  C   UNL     1      -3.180  13.088  21.198  0.00  0.00    +0.000 A 
ATOM      3  C   UNL     1      -2.558  12.369  20.160  0.00  0.00    +0.000 A 
ATOM      4  C   UNL     1      -1.511  12.975  19.500  0.00  0.00    +0.000 A 
ATOM      5  C   UNL     1      -1.122  14.264  19.790  0.00  0.00    +0.000 A 
ATOM      6  C   UNL     1      -1.703  14.992  20.803  0.00  0.00    +0.000 A 
ATOM      7  C   UNL     1      -2.699  14.371  21.558  0.00  0.00    +0.000 A 
ATOM      8  O   UNL     1      -3.234  15.127  22.567  0.00  0.00    +0.000 OA
ATOM      9  C   UNL     1      -4.102  14.482  23.498  0.00  0.00    +0.000 C 
ATOM     10  C   UNL     1      -5.478  15.146  23.458  0.00  0.00    +0.000 C 
ATOM     11  O   UNL     1      -6.390  14.177  23.984  0.00  0.00    +0.000 OA
ATOM     12  C   UNL     1      -5.801  12.947  23.919  0.00  0.00    +0.000 C 
ATOM     13  O   UNL     1      -6.302  11.923  24.356  0.00  0.00    +0.000 OA
ATOM     14  C   UNL     1      -4.470  13.030  23.250  0.00  0.00    +0.000 C 
ATOM     15  O   UNL     1      -0.109  14.688  18.985  0.00  0.00    +0.000 OA
ATOM     16  C   UNL     1       0.282  13.426  18.406  0.00  0.00    +0.000 C 
ATOM     17  O   UNL     1      -0.755  12.428  18.508  0.00  0.00    +0.000 OA
ENDROOT
BRANCH   1  21
ATOM     18  C   UNL     1      -7.208  13.581  18.519  0.00  0.00    +0.000 A 
ATOM     19  C   UNL     1      -6.338  14.532  19.013  0.00  0.00    +0.000 A 
ATOM     20  C   UNL     1      -5.585  14.272  20.156  0.00  0.00    +0.000 A 
ATOM     21  C   UNL     1      -5.667  13.038  20.831  0.00  0.00    +0.000 A 
ATOM     22  C   UNL     1      -6.701  12.161  20.442  0.00  0.00    +0.000 A 
ATOM     23  C   UNL     1      -7.432  12.426  19.267  0.00  0.00    +0.000 A 
BRANCH  18  25
ATOM     24  C   UNL     1      -7.002  14.751  16.466  0.00  0.00    +0.000 C 
ATOM     25  O   UNL     1      -7.747  13.862  17.291  0.00  0.00    +0.000 OA
ENDBRANCH  18  25
BRANCH  22  26
ATOM     26  O   UNL     1      -6.891  11.003  21.150  0.00  0.00    +0.000 OA
ATOM     27  C   UNL     1      -7.466   9.911  20.414  0.00  0.00    +0.000 C 
ENDBRANCH  22  26
ENDBRANCH   1  21
BRANCH   9  28
ATOM     28  O   UNL     1      -3.673  14.677  24.866  0.00  0.00    +0.000 OA
ATOM     29  C   UNL     1      -2.951  15.858  25.158  0.00  0.00    +0.000 C 
ENDBRANCH   9  28
TORSDOF 4
ENDMDL
MODEL 7
REMARK VINA RESULT:      -6.3      7.498     12.533
REMARK  Name = 
REMARK  7 active torsions:
REMARK  status: ('A' for Active; 'I' for Inactive)
REMARK    1  A    between atoms: C_1  and  O_2
REMARK    2  A    between atoms: O_2  and  C_3
REMARK    3  A    between atoms: C_6  and  C_7
REMARK    4  A    between atoms: C_15  and  O_16
REMARK    5  A    between atoms: O_16  and  C_17
REMARK    6  A    between atoms: C_26  and  O_27
REMARK    7  A    between atoms: O_27  and  C_28
REMARK                            x       y       z     vdW  Elec       q    Type
REMARK                         _______ _______ _______ _____ _____    ______ ____
ROOT
ATOM      1  C   UNL     1      -2.236  12.970  23.231  0.00  0.00    +0.000 C 
ATOM      2  C   UNL     1      -1.131  12.067  22.679  0.00  0.00    +0.000 A 
ATOM      3  C   UNL     1      -1.254  10.666  22.749  0.00  0.00    +0.000 A 
ATOM      4  C   UNL     1      -0.371   9.908  22.011  0.00  0.00    +0.000 A 
ATOM      5  C   UNL     1       0.560  10.489  21.178  0.00  0.00    +0.000 A 
ATOM      6  C   UNL     1       0.713  11.854  21.092  0.00  0.00    +0.000 A 
ATOM      7  C   UNL     1      -0.099  12.649  21.902  0.00  0.00    +0.000 A 
ATOM      8  O   UNL     1       0.102  13.999  21.797  0.00  0.00    +0.000 OA
ATOM      9  C   UNL     1      -0.546  14.848  22.743  0.00  0.00    +0.000 C 
ATOM     10  C   UNL     1      -1.474  15.816  22.009  0.00  0.00    +0.000 C 
ATOM     11  O   UNL     1      -2.431  16.246  22.982  0.00  0.00    +0.000 OA
ATOM     12  C   UNL     1      -2.427  15.357  24.017  0.00  0.00    +0.000 C 
ATOM     13  O   UNL     1      -3.087  15.486  25.036  0.00  0.00    +0.000 OA
ATOM     14  C   UNL     1      -1.507  14.217  23.735  0.00  0.00    +0.000 C 
ATOM     15  O   UNL     1       1.292   9.561  20.501  0.00  0.00    +0.000 OA
ATOM     16  C   UNL     1       0.930   8.380  21.245  0.00  0.00    +0.000 C 
ATOM     17  O   UNL     1      -0.298   8.549  21.985  0.00  0.00    +0.000 OA
ENDROOT
BRANCH   1  21
ATOM     18  C   UNL     1      -5.355  12.366  20.275  0.00  0.00    +0.000 A 
ATOM     19  C   UNL     1      -4.063  12.653  19.880  0.00  0.00    +0.000 A 
ATOM     20  C   UNL     1      -3.099  13.000  20.824  0.00  0.00    +0.000 A 
ATOM     21  C   UNL     1      -3.395  13.049  22.201  0.00  0.00    +0.000 A 
ATOM     22  C   UNL     1      -4.754  12.956  22.569  0.00  0.00    +0.000 A 
ATOM     23  C   UNL     1      -5.710  12.577  21.607  0.00  0.00    +0.000 A 
BRANCH  18  25
ATOM     24  C   UNL     1      -5.507  11.250  18.187  0.00  0.00    +0.000 C 
ATOM     25  O   UNL     1      -6.165  11.851  19.297  0.00  0.00    +0.000 OA
ENDBRANCH  18  25
BRANCH  22  26
ATOM     26  O   UNL     1      -5.097  13.118  23.886  0.00  0.00    +0.000 OA
ATOM     27  C   UNL     1      -6.435  12.726  24.232  0.00  0.00    +0.000 C 
ENDBRANCH  22  26
ENDBRANCH   1  21
BRANCH   9  28
ATOM     28  O   UNL     1       0.388  15.724  23.417  0.00  0.00    +0.000 OA
ATOM     29  C   UNL     1       1.154  16.600  22.612  0.00  0.00    +0.000 C 
ENDBRANCH   9  28
TORSDOF 4
ENDMDL
MODEL 8
REMARK VINA RESULT:      -6.2      7.935     12.277
REMARK  Name = 
REMARK  7 active torsions:
REMARK  status: ('A' for Active; 'I' for Inactive)
REMARK    1  A    between atoms: C_1  and  O_2
REMARK    2  A    between atoms: O_2  and  C_3
REMARK    3  A    between atoms: C_6  and  C_7
REMARK    4  A    between atoms: C_15  and  O_16
REMARK    5  A    between atoms: O_16  and  C_17
REMARK    6  A    between atoms: C_26  and  O_27
REMARK    7  A    between atoms: O_27  and  C_28
REMARK                            x       y       z     vdW  Elec       q    Type
REMARK                         _______ _______ _______ _____ _____    ______ ____
ROOT
ATOM      1  C   UNL     1      -2.068  14.114  21.647  0.00  0.00    +0.000 C 
ATOM      2  C   UNL     1      -3.541  13.709  21.738  0.00  0.00    +0.000 A 
ATOM      3  C   UNL     1      -4.152  13.003  20.685  0.00  0.00    +0.000 A 
ATOM      4  C   UNL     1      -5.386  12.438  20.924  0.00  0.00    +0.000 A 
ATOM      5  C   UNL     1      -5.981  12.498  22.165  0.00  0.00    +0.000 A 
ATOM      6  C   UNL     1      -5.417  13.187  23.214  0.00  0.00    +0.000 A 
ATOM      7  C   UNL     1      -4.214  13.856  22.977  0.00  0.00    +0.000 A 
ATOM      8  O   UNL     1      -3.699  14.543  24.043  0.00  0.00    +0.000 OA
ATOM      9  C   UNL     1      -2.590  15.409  23.809  0.00  0.00    +0.000 C 
ATOM     10  C   UNL     1      -1.399  14.953  24.651  0.00  0.00    +0.000 C 
ATOM     11  O   UNL     1      -0.241  15.498  24.010  0.00  0.00    +0.000 OA
ATOM     12  C   UNL     1      -0.572  15.830  22.728  0.00  0.00    +0.000 C 
ATOM     13  O   UNL     1       0.185  16.382  21.945  0.00  0.00    +0.000 OA
ATOM     14  C   UNL     1      -1.976  15.430  22.421  0.00  0.00    +0.000 C 
ATOM     15  O   UNL     1      -7.167  11.830  22.198  0.00  0.00    +0.000 OA
ATOM     16  C   UNL     1      -7.376  11.640  20.784  0.00  0.00    +0.000 C 
ATOM     17  O   UNL     1      -6.154  11.763  20.025  0.00  0.00    +0.000 OA
ENDROOT
BRANCH   1  21
ATOM     18  C   UNL     1      -0.148  10.257  22.169  0.00  0.00    +0.000 A 
ATOM     19  C   UNL     1      -1.097  10.693  23.072  0.00  0.00    +0.000 A 
ATOM     20  C   UNL     1      -1.599  11.990  22.994  0.00  0.00    +0.000 A 
ATOM     21  C   UNL     1      -1.179  12.888  21.993  0.00  0.00    +0.000 A 
ATOM     22  C   UNL     1      -0.069  12.504  21.211  0.00  0.00    +0.000 A 
ATOM     23  C   UNL     1       0.406  11.179  21.282  0.00  0.00    +0.000 A 
BRANCH  18  25
ATOM     24  C   UNL     1       1.162   8.459  21.347  0.00  0.00    +0.000 C 
ATOM     25  O   UNL     1       0.130   8.916  22.214  0.00  0.00    +0.000 OA
ENDBRANCH  18  25
BRANCH  22  26
ATOM     26  O   UNL     1       0.446  13.396  20.306  0.00  0.00    +0.000 OA
ATOM     27  C   UNL     1       0.207  13.085  18.924  0.00  0.00    +0.000 C 
ENDBRANCH  22  26
ENDBRANCH   1  21
BRANCH   9  28
ATOM     28  O   UNL     1      -2.841  16.754  24.281  0.00  0.00    +0.000 OA
ATOM     29  C   UNL     1      -4.034  16.974  25.011  0.00  0.00    +0.000 C 
ENDBRANCH   9  28
TORSDOF 4
ENDMDL
MODEL 9
REMARK VINA RESULT:      -6.2      8.721     13.716
REMARK  Name = 
REMARK  7 active torsions:
REMARK  status: ('A' for Active; 'I' for Inactive)
REMARK    1  A    between atoms: C_1  and  O_2
REMARK    2  A    between atoms: O_2  and  C_3
REMARK    3  A    between atoms: C_6  and  C_7
REMARK    4  A    between atoms: C_15  and  O_16
REMARK    5  A    between atoms: O_16  and  C_17
REMARK    6  A    between atoms: C_26  and  O_27
REMARK    7  A    between atoms: O_27  and  C_28
REMARK                            x       y       z     vdW  Elec       q    Type
REMARK                         _______ _______ _______ _____ _____    ______ ____
ROOT
ATOM      1  C   UNL     1      -3.736  13.787  23.425  0.00  0.00    +0.000 C 
ATOM      2  C   UNL     1      -2.430  13.063  23.090  0.00  0.00    +0.000 A 
ATOM      3  C   UNL     1      -2.247  11.718  23.462  0.00  0.00    +0.000 A 
ATOM      4  C   UNL     1      -1.178  11.042  22.913  0.00  0.00    +0.000 A 
ATOM      5  C   UNL     1      -0.353  11.631  21.980  0.00  0.00    +0.000 A 
ATOM      6  C   UNL     1      -0.498  12.945  21.600  0.00  0.00    +0.000 A 
ATOM      7  C   UNL     1      -1.509  13.688  22.213  0.00  0.00    +0.000 A 
ATOM      8  O   UNL     1      -1.605  14.995  21.818  0.00  0.00    +0.000 OA
ATOM      9  C   UNL     1      -2.475  15.854  22.552  0.00  0.00    +0.000 C 
ATOM     10  C   UNL     1      -3.551  16.410  21.619  0.00  0.00    +0.000 C 
ATOM     11  O   UNL     1      -4.632  16.807  22.468  0.00  0.00    +0.000 OA
ATOM     12  C   UNL     1      -4.490  16.180  23.672  0.00  0.00    +0.000 C 
ATOM     13  O   UNL     1      -5.219  16.367  24.633  0.00  0.00    +0.000 OA
ATOM     14  C   UNL     1      -3.328  15.245  23.650  0.00  0.00    +0.000 C 
ATOM     15  O   UNL     1       0.602  10.772  21.526  0.00  0.00    +0.000 OA
ATOM     16  C   UNL     1       0.467   9.723  22.507  0.00  0.00    +0.000 C 
ATOM     17  O   UNL     1      -0.807   9.760  23.183  0.00  0.00    +0.000 OA
ENDROOT
BRANCH   1  21
ATOM     18  C   UNL     1      -6.457  11.890  20.627  0.00  0.00    +0.000 A 
ATOM     19  C   UNL     1      -5.255  12.410  20.190  0.00  0.00    +0.000 A 
ATOM     20  C   UNL     1      -4.454  13.154  21.053  0.00  0.00    +0.000 A 
ATOM     21  C   UNL     1      -4.824  13.384  22.393  0.00  0.00    +0.000 A 
ATOM     22  C   UNL     1      -6.138  13.028  22.766  0.00  0.00    +0.000 A 
ATOM     23  C   UNL     1      -6.922  12.251  21.891  0.00  0.00    +0.000 A 
BRANCH  18  25
ATOM     24  C   UNL     1      -6.322  10.657  18.606  0.00  0.00    +0.000 C 
ATOM     25  O   UNL     1      -7.066  11.018  19.764  0.00  0.00    +0.000 OA
ENDBRANCH  18  25
BRANCH  22  26
ATOM     26  O   UNL     1      -6.578  13.342  24.026  0.00  0.00    +0.000 OA
ATOM     27  C   UNL     1      -7.860  13.987  24.092  0.00  0.00    +0.000 C 
ENDBRANCH  22  26
ENDBRANCH   1  21
BRANCH   9  28
ATOM     28  O   UNL     1      -1.796  17.040  23.028  0.00  0.00    +0.000 OA
ATOM     29  C   UNL     1      -0.854  16.875  24.071  0.00  0.00    +0.000 C 
ENDBRANCH   9  28
TORSDOF 4
ENDMDL
