MODEL 1
REMARK VINA RESULT:      -8.0      0.000      0.000
REMARK  Name = 
REMARK  5 active torsions:
REMARK  status: ('A' for Active; 'I' for Inactive)
REMARK    1  A    between atoms: C_2  and  O_3
REMARK    2  A    between atoms: C_2  and  C_4
REMARK    3  A    between atoms: C_10  and  C_11
REMARK    4  A    between atoms: C_12  and  C_13
REMARK    5  A    between atoms: C_20  and  O_21
REMARK                            x       y       z     vdW  Elec       q    Type
REMARK                         _______ _______ _______ _____ _____    ______ ____
ROOT
ATOM      1  C   UNL     1       6.306   4.026  13.959  0.00  0.00    +0.000 A 
ATOM      2  C   UNL     1       5.293   3.387  14.687  0.00  0.00    +0.000 A 
ATOM      3  C   UNL     1       5.018   3.772  16.002  0.00  0.00    +0.000 A 
ATOM      4  C   UNL     1       5.763   4.797  16.610  0.00  0.00    +0.000 A 
ATOM      5  C   UNL     1       5.558   5.202  17.932  0.00  0.00    +0.000 A 
ATOM      6  C   UNL     1       6.353   6.209  18.478  0.00  0.00    +0.000 A 
ATOM      7  C   UNL     1       7.331   6.796  17.683  0.00  0.00    +0.000 A 
ATOM      8  N   UNL     1       7.539   6.433  16.396  0.00  0.00    +0.000 NA
ATOM      9  C   UNL     1       6.774   5.451  15.885  0.00  0.00    +0.000 A 
ATOM     10  C   UNL     1       7.019   5.058  14.575  0.00  0.00    +0.000 A 
ENDROOT
BRANCH   1  12
ATOM     11  O   UNL     1       7.247   4.213  11.785  0.00  0.00    +0.000 OA
ATOM     12  C   UNL     1       6.587   3.552  12.576  0.00  0.00    +0.000 C 
BRANCH  12  13
ATOM     13  O   UNL     1       6.058   2.355  12.254  0.00  0.00    +0.000 OA
ATOM     14  H   UNL     1       5.506   2.390  11.440  0.00  0.00    +0.000 HD
ENDBRANCH  12  13
ENDBRANCH   1  12
BRANCH   7  15
ATOM     15  C   UNL     1       8.203   7.842  18.231  0.00  0.00    +0.000 C 
ATOM     16  C   UNL     1       8.152   9.135  17.873  0.00  0.00    +0.000 C 
BRANCH  16  17
ATOM     17  C   UNL     1       9.044  10.081  18.448  0.00  0.00    +0.000 A 
ATOM     18  C   UNL     1       9.310  10.327  19.791  0.00  0.00    +0.000 A 
ATOM     19  C   UNL     1      10.270  11.365  19.864  0.00  0.00    +0.000 A 
ATOM     20  C   UNL     1      10.546  11.708  18.567  0.00  0.00    +0.000 A 
ATOM     21  O   UNL     1       9.821  10.950  17.712  0.00  0.00    +0.000 OA
ENDBRANCH  16  17
ENDBRANCH   7  15
BRANCH  10  22
ATOM     22  O   UNL     1       8.022   5.725  13.895  0.00  0.00    +0.000 OA
ATOM     23  H   UNL     1       8.370   6.363  14.564  0.00  0.00    +0.000 HD
ENDBRANCH  10  22
TORSDOF 5
ENDMDL
MODEL 2
REMARK VINA RESULT:      -7.7      4.606      7.356
REMARK  Name = 
REMARK  5 active torsions:
REMARK  status: ('A' for Active; 'I' for Inactive)
REMARK    1  A    between atoms: C_2  and  O_3
REMARK    2  A    between atoms: C_2  and  C_4
REMARK    3  A    between atoms: C_10  and  C_11
REMARK    4  A    between atoms: C_12  and  C_13
REMARK    5  A    between atoms: C_20  and  O_21
REMARK                            x       y       z     vdW  Elec       q    Type
REMARK                         _______ _______ _______ _____ _____    ______ ____
ROOT
ATOM      1  C   UNL     1       2.383   3.980  20.754  0.00  0.00    +0.000 A 
ATOM      2  C   UNL     1       1.776   5.184  21.136  0.00  0.00    +0.000 A 
ATOM      3  C   UNL     1       1.937   6.334  20.357  0.00  0.00    +0.000 A 
ATOM      4  C   UNL     1       2.717   6.293  19.188  0.00  0.00    +0.000 A 
ATOM      5  C   UNL     1       2.943   7.417  18.387  0.00  0.00    +0.000 A 
ATOM      6  C   UNL     1       3.750   7.308  17.256  0.00  0.00    +0.000 A 
ATOM      7  C   UNL     1       4.305   6.073  16.944  0.00  0.00    +0.000 A 
ATOM      8  N   UNL     1       4.090   4.968  17.694  0.00  0.00    +0.000 NA
ATOM      9  C   UNL     1       3.320   5.087  18.791  0.00  0.00    +0.000 A 
ATOM     10  C   UNL     1       3.135   3.957  19.576  0.00  0.00    +0.000 A 
ENDROOT
BRANCH   1  12
ATOM     11  O   UNL     1       1.130   2.486  22.112  0.00  0.00    +0.000 OA
ATOM     12  C   UNL     1       2.215   2.794  21.639  0.00  0.00    +0.000 C 
BRANCH  12  13
ATOM     13  O   UNL     1       3.339   2.093  21.889  0.00  0.00    +0.000 OA
ATOM     14  H   UNL     1       3.958   2.080  21.124  0.00  0.00    +0.000 HD
ENDBRANCH  12  13
ENDBRANCH   1  12
BRANCH   7  15
ATOM     15  C   UNL     1       5.179   5.927  15.775  0.00  0.00    +0.000 C 
ATOM     16  C   UNL     1       5.574   4.748  15.266  0.00  0.00    +0.000 C 
BRANCH  16  17
ATOM     17  C   UNL     1       6.433   4.698  14.134  0.00  0.00    +0.000 A 
ATOM     18  C   UNL     1       6.332   3.905  12.996  0.00  0.00    +0.000 A 
ATOM     19  C   UNL     1       7.424   4.213  12.150  0.00  0.00    +0.000 A 
ATOM     20  C   UNL     1       8.144   5.177  12.807  0.00  0.00    +0.000 A 
ATOM     21  O   UNL     1       7.563   5.475  13.992  0.00  0.00    +0.000 OA
ENDBRANCH  16  17
ENDBRANCH   7  15
BRANCH  10  22
ATOM     22  O   UNL     1       3.745   2.789  19.153  0.00  0.00    +0.000 OA
ATOM     23  H   UNL     1       4.542   3.109  18.665  0.00  0.00    +0.000 HD
ENDBRANCH  10  22
TORSDOF 5
ENDMDL
MODEL 3
REMARK VINA RESULT:      -7.4      4.617      8.027
REMARK  Name = 
REMARK  5 active torsions:
REMARK  status: ('A' for Active; 'I' for Inactive)
REMARK    1  A    between atoms: C_2  and  O_3
REMARK    2  A    between atoms: C_2  and  C_4
REMARK    3  A    between atoms: C_10  and  C_11
REMARK    4  A    between atoms: C_12  and  C_13
REMARK    5  A    between atoms: C_20  and  O_21
REMARK                            x       y       z     vdW  Elec       q    Type
REMARK                         _______ _______ _______ _____ _____    ______ ____
ROOT
ATOM      1  C   UNL     1       2.671   3.974  20.051  0.00  0.00    +0.000 A 
ATOM      2  C   UNL     1       2.626   5.363  20.231  0.00  0.00    +0.000 A 
ATOM      3  C   UNL     1       3.194   6.218  19.282  0.00  0.00    +0.000 A 
ATOM      4  C   UNL     1       3.823   5.689  18.142  0.00  0.00    +0.000 A 
ATOM      5  C   UNL     1       4.439   6.491  17.175  0.00  0.00    +0.000 A 
ATOM      6  C   UNL     1       5.068   5.896  16.083  0.00  0.00    +0.000 A 
ATOM      7  C   UNL     1       5.059   4.510  15.976  0.00  0.00    +0.000 A 
ATOM      8  N   UNL     1       4.457   3.714  16.890  0.00  0.00    +0.000 NA
ATOM      9  C   UNL     1       3.864   4.298  17.947  0.00  0.00    +0.000 A 
ATOM     10  C   UNL     1       3.282   3.472  18.899  0.00  0.00    +0.000 A 
ENDROOT
BRANCH   1  12
ATOM     11  O   UNL     1       2.784   2.539  21.941  0.00  0.00    +0.000 OA
ATOM     12  C   UNL     1       2.087   3.106  21.110  0.00  0.00    +0.000 C 
BRANCH  12  13
ATOM     13  O   UNL     1       0.746   2.980  21.083  0.00  0.00    +0.000 OA
ATOM     14  H   UNL     1       0.359   3.210  20.208  0.00  0.00    +0.000 HD
ENDBRANCH  12  13
ENDBRANCH   1  12
BRANCH   7  15
ATOM     15  C   UNL     1       5.732   3.849  14.853  0.00  0.00    +0.000 C 
ATOM     16  C   UNL     1       5.294   3.877  13.584  0.00  0.00    +0.000 C 
BRANCH  16  17
ATOM     17  C   UNL     1       6.003   3.197  12.557  0.00  0.00    +0.000 A 
ATOM     18  C   UNL     1       7.250   3.491  12.015  0.00  0.00    +0.000 A 
ATOM     19  C   UNL     1       7.532   2.528  11.016  0.00  0.00    +0.000 A 
ATOM     20  C   UNL     1       6.448   1.691  10.991  0.00  0.00    +0.000 A 
ATOM     21  O   UNL     1       5.528   2.079  11.904  0.00  0.00    +0.000 OA
ENDBRANCH  16  17
ENDBRANCH   7  15
BRANCH  10  22
ATOM     22  O   UNL     1       3.343   2.108  18.671  0.00  0.00    +0.000 OA
ATOM     23  H   UNL     1       2.772   1.982  17.875  0.00  0.00    +0.000 HD
ENDBRANCH  10  22
TORSDOF 5
ENDMDL
MODEL 4
REMARK VINA RESULT:      -7.4      6.832      7.944
REMARK  Name = 
REMARK  5 active torsions:
REMARK  status: ('A' for Active; 'I' for Inactive)
REMARK    1  A    between atoms: C_2  and  O_3
REMARK    2  A    between atoms: C_2  and  C_4
REMARK    3  A    between atoms: C_10  and  C_11
REMARK    4  A    between atoms: C_12  and  C_13
REMARK    5  A    between atoms: C_20  and  O_21
REMARK                            x       y       z     vdW  Elec       q    Type
REMARK                         _______ _______ _______ _____ _____    ______ ____
ROOT
ATOM      1  C   UNL     1       3.712   4.126  19.407  0.00  0.00    +0.000 A 
ATOM      2  C   UNL     1       4.231   4.303  18.117  0.00  0.00    +0.000 A 
ATOM      3  C   UNL     1       4.021   5.503  17.430  0.00  0.00    +0.000 A 
ATOM      4  C   UNL     1       3.279   6.538  18.025  0.00  0.00    +0.000 A 
ATOM      5  C   UNL     1       3.007   7.746  17.375  0.00  0.00    +0.000 A 
ATOM      6  C   UNL     1       2.242   8.718  18.016  0.00  0.00    +0.000 A 
ATOM      7  C   UNL     1       1.774   8.465  19.301  0.00  0.00    +0.000 A 
ATOM      8  N   UNL     1       2.036   7.310  19.956  0.00  0.00    +0.000 NA
ATOM      9  C   UNL     1       2.764   6.374  19.322  0.00  0.00    +0.000 A 
ATOM     10  C   UNL     1       2.997   5.177  19.988  0.00  0.00    +0.000 A 
ENDROOT
BRANCH   1  12
ATOM     11  O   UNL     1       3.139   2.370  20.901  0.00  0.00    +0.000 OA
ATOM     12  C   UNL     1       3.928   2.816  20.080  0.00  0.00    +0.000 C 
BRANCH  12  13
ATOM     13  O   UNL     1       5.055   2.163  19.731  0.00  0.00    +0.000 OA
ATOM     14  H   UNL     1       5.508   1.749  20.500  0.00  0.00    +0.000 HD
ENDBRANCH  12  13
ENDBRANCH   1  12
BRANCH   7  15
ATOM     15  C   UNL     1       0.945   9.455  19.997  0.00  0.00    +0.000 C 
ATOM     16  C   UNL     1       0.675   9.428  21.312  0.00  0.00    +0.000 C 
BRANCH  16  17
ATOM     17  C   UNL     1      -0.149  10.423  21.904  0.00  0.00    +0.000 A 
ATOM     18  C   UNL     1      -0.927  10.342  23.054  0.00  0.00    +0.000 A 
ATOM     19  C   UNL     1      -1.567  11.591  23.238  0.00  0.00    +0.000 A 
ATOM     20  C   UNL     1      -1.155  12.378  22.195  0.00  0.00    +0.000 A 
ATOM     21  O   UNL     1      -0.309  11.694  21.392  0.00  0.00    +0.000 OA
ENDBRANCH  16  17
ENDBRANCH   7  15
BRANCH  10  22
ATOM     22  O   UNL     1       2.474   5.054  21.263  0.00  0.00    +0.000 OA
ATOM     23  H   UNL     1       1.521   5.284  21.144  0.00  0.00    +0.000 HD
ENDBRANCH  10  22
TORSDOF 5
ENDMDL
MODEL 5
REMARK VINA RESULT:      -7.4      4.569      7.623
REMARK  Name = 
REMARK  5 active torsions:
REMARK  status: ('A' for Active; 'I' for Inactive)
REMARK    1  A    between atoms: C_2  and  O_3
REMARK    2  A    between atoms: C_2  and  C_4
REMARK    3  A    between atoms: C_10  and  C_11
REMARK    4  A    between atoms: C_12  and  C_13
REMARK    5  A    between atoms: C_20  and  O_21
REMARK                            x       y       z     vdW  Elec       q    Type
REMARK                         _______ _______ _______ _____ _____    ______ ____
ROOT
ATOM      1  C   UNL     1       1.929   6.909  20.208  0.00  0.00    +0.000 A 
ATOM      2  C   UNL     1       1.559   5.803  20.985  0.00  0.00    +0.000 A 
ATOM      3  C   UNL     1       1.935   4.513  20.602  0.00  0.00    +0.000 A 
ATOM      4  C   UNL     1       2.680   4.312  19.427  0.00  0.00    +0.000 A 
ATOM      5  C   UNL     1       3.056   3.044  18.974  0.00  0.00    +0.000 A 
ATOM      6  C   UNL     1       3.773   2.919  17.785  0.00  0.00    +0.000 A 
ATOM      7  C   UNL     1       4.108   4.070  17.080  0.00  0.00    +0.000 A 
ATOM      8  N   UNL     1       3.769   5.309  17.505  0.00  0.00    +0.000 NA
ATOM      9  C   UNL     1       3.066   5.416  18.647  0.00  0.00    +0.000 A 
ATOM     10  C   UNL     1       2.690   6.689  19.056  0.00  0.00    +0.000 A 
ENDROOT
BRANCH   1  12
ATOM     11  O   UNL     1       1.007   9.068  19.846  0.00  0.00    +0.000 OA
ATOM     12  C   UNL     1       1.470   8.258  20.637  0.00  0.00    +0.000 C 
BRANCH  12  13
ATOM     13  O   UNL     1       1.610   8.528  21.950  0.00  0.00    +0.000 OA
ATOM     14  H   UNL     1       0.943   8.068  22.507  0.00  0.00    +0.000 HD
ENDBRANCH  12  13
ENDBRANCH   1  12
BRANCH   7  15
ATOM     15  C   UNL     1       4.840   3.975  15.812  0.00  0.00    +0.000 C 
ATOM     16  C   UNL     1       5.795   4.835  15.423  0.00  0.00    +0.000 C 
BRANCH  16  17
ATOM     17  C   UNL     1       6.448   4.675  14.170  0.00  0.00    +0.000 A 
ATOM     18  C   UNL     1       6.189   3.752  13.162  0.00  0.00    +0.000 A 
ATOM     19  C   UNL     1       7.105   3.986  12.109  0.00  0.00    +0.000 A 
ATOM     20  C   UNL     1       7.882   5.039  12.518  0.00  0.00    +0.000 A 
ATOM     21  O   UNL     1       7.500   5.459  13.746  0.00  0.00    +0.000 OA
ENDBRANCH  16  17
ENDBRANCH   7  15
BRANCH  10  22
ATOM     22  O   UNL     1       3.088   7.749  18.262  0.00  0.00    +0.000 OA
ATOM     23  H   UNL     1       2.241   8.078  17.874  0.00  0.00    +0.000 HD
ENDBRANCH  10  22
TORSDOF 5
ENDMDL
MODEL 6
REMARK VINA RESULT:      -7.2      4.297      7.971
REMARK  Name = 
REMARK  5 active torsions:
REMARK  status: ('A' for Active; 'I' for Inactive)
REMARK    1  A    between atoms: C_2  and  O_3
REMARK    2  A    between atoms: C_2  and  C_4
REMARK    3  A    between atoms: C_10  and  C_11
REMARK    4  A    between atoms: C_12  and  C_13
REMARK    5  A    between atoms: C_20  and  O_21
REMARK                            x       y       z     vdW  Elec       q    Type
REMARK                         _______ _______ _______ _____ _____    ______ ____
ROOT
ATOM      1  C   UNL     1       2.027   4.144  19.444  0.00  0.00    +0.000 A 
ATOM      2  C   UNL     1       2.216   5.489  19.791  0.00  0.00    +0.000 A 
ATOM      3  C   UNL     1       3.068   6.300  19.035  0.00  0.00    +0.000 A 
ATOM      4  C   UNL     1       3.749   5.770  17.926  0.00  0.00    +0.000 A 
ATOM      5  C   UNL     1       4.640   6.522  17.153  0.00  0.00    +0.000 A 
ATOM      6  C   UNL     1       5.301   5.922  16.083  0.00  0.00    +0.000 A 
ATOM      7  C   UNL     1       5.048   4.584  15.802  0.00  0.00    +0.000 A 
ATOM      8  N   UNL     1       4.180   3.840  16.525  0.00  0.00    +0.000 NA
ATOM      9  C   UNL     1       3.558   4.425  17.564  0.00  0.00    +0.000 A 
ATOM     10  C   UNL     1       2.697   3.644  18.324  0.00  0.00    +0.000 A 
ENDROOT
BRANCH   1  12
ATOM     11  O   UNL     1       1.371   3.134  21.493  0.00  0.00    +0.000 OA
ATOM     12  C   UNL     1       1.141   3.312  20.304  0.00  0.00    +0.000 C 
BRANCH  12  13
ATOM     13  O   UNL     1       0.079   2.762  19.683  0.00  0.00    +0.000 OA
ATOM     14  H   UNL     1      -0.141   3.211  18.836  0.00  0.00    +0.000 HD
ENDBRANCH  12  13
ENDBRANCH   1  12
BRANCH   7  15
ATOM     15  C   UNL     1       5.744   3.914  14.698  0.00  0.00    +0.000 C 
ATOM     16  C   UNL     1       5.263   3.814  13.448  0.00  0.00    +0.000 C 
BRANCH  16  17
ATOM     17  C   UNL     1       6.000   3.136  12.440  0.00  0.00    +0.000 A 
ATOM     18  C   UNL     1       5.630   2.030  11.682  0.00  0.00    +0.000 A 
ATOM     19  C   UNL     1       6.700   1.719  10.809  0.00  0.00    +0.000 A 
ATOM     20  C   UNL     1       7.675   2.645  11.071  0.00  0.00    +0.000 A 
ATOM     21  O   UNL     1       7.271   3.496  12.042  0.00  0.00    +0.000 OA
ENDBRANCH  16  17
ENDBRANCH   7  15
BRANCH  10  22
ATOM     22  O   UNL     1       2.535   2.326  17.936  0.00  0.00    +0.000 OA
ATOM     23  H   UNL     1       1.557   2.236  17.829  0.00  0.00    +0.000 HD
ENDBRANCH  10  22
TORSDOF 5
ENDMDL
MODEL 7
REMARK VINA RESULT:      -7.2      0.650      1.063
REMARK  Name = 
REMARK  5 active torsions:
REMARK  status: ('A' for Active; 'I' for Inactive)
REMARK    1  A    between atoms: C_2  and  O_3
REMARK    2  A    between atoms: C_2  and  C_4
REMARK    3  A    between atoms: C_10  and  C_11
REMARK    4  A    between atoms: C_12  and  C_13
REMARK    5  A    between atoms: C_20  and  O_21
REMARK                            x       y       z     vdW  Elec       q    Type
REMARK                         _______ _______ _______ _____ _____    ______ ____
ROOT
ATOM      1  C   UNL     1       6.247   3.958  14.099  0.00  0.00    +0.000 A 
ATOM      2  C   UNL     1       5.370   3.214  14.899  0.00  0.00    +0.000 A 
ATOM      3  C   UNL     1       5.202   3.534  16.249  0.00  0.00    +0.000 A 
ATOM      4  C   UNL     1       5.919   4.601  16.818  0.00  0.00    +0.000 A 
ATOM      5  C   UNL     1       5.820   4.947  18.170  0.00  0.00    +0.000 A 
ATOM      6  C   UNL     1       6.582   6.001  18.671  0.00  0.00    +0.000 A 
ATOM      7  C   UNL     1       7.421   6.693  17.805  0.00  0.00    +0.000 A 
ATOM      8  N   UNL     1       7.524   6.387  16.491  0.00  0.00    +0.000 NA
ATOM      9  C   UNL     1       6.794   5.360  16.021  0.00  0.00    +0.000 A 
ATOM     10  C   UNL     1       6.933   5.029  14.680  0.00  0.00    +0.000 A 
ENDROOT
BRANCH   1  12
ATOM     11  O   UNL     1       5.579   2.895  12.082  0.00  0.00    +0.000 OA
ATOM     12  C   UNL     1       6.421   3.552  12.677  0.00  0.00    +0.000 C 
BRANCH  12  13
ATOM     13  O   UNL     1       7.572   3.949  12.097  0.00  0.00    +0.000 OA
ATOM     14  H   UNL     1       7.717   3.534  11.218  0.00  0.00    +0.000 HD
ENDBRANCH  12  13
ENDBRANCH   1  12
BRANCH   7  15
ATOM     15  C   UNL     1       8.257   7.792  18.303  0.00  0.00    +0.000 C 
ATOM     16  C   UNL     1       8.095   9.080  17.963  0.00  0.00    +0.000 C 
BRANCH  16  17
ATOM     17  C   UNL     1       8.959  10.082  18.484  0.00  0.00    +0.000 A 
ATOM     18  C   UNL     1       9.444  11.227  17.862  0.00  0.00    +0.000 A 
ATOM     19  C   UNL     1      10.270  11.911  18.786  0.00  0.00    +0.000 A 
ATOM     20  C   UNL     1      10.255  11.156  19.929  0.00  0.00    +0.000 A 
ATOM     21  O   UNL     1       9.477  10.061  19.762  0.00  0.00    +0.000 OA
ENDBRANCH  16  17
ENDBRANCH   7  15
BRANCH  10  22
ATOM     22  O   UNL     1       7.803   5.799  13.928  0.00  0.00    +0.000 OA
ATOM     23  H   UNL     1       7.252   6.084  13.159  0.00  0.00    +0.000 HD
ENDBRANCH  10  22
TORSDOF 5
ENDMDL
MODEL 8
REMARK VINA RESULT:      -7.2      5.721      8.417
REMARK  Name = 
REMARK  5 active torsions:
REMARK  status: ('A' for Active; 'I' for Inactive)
REMARK    1  A    between atoms: C_2  and  O_3
REMARK    2  A    between atoms: C_2  and  C_4
REMARK    3  A    between atoms: C_10  and  C_11
REMARK    4  A    between atoms: C_12  and  C_13
REMARK    5  A    between atoms: C_20  and  O_21
REMARK                            x       y       z     vdW  Elec       q    Type
REMARK                         _______ _______ _______ _____ _____    ______ ____
ROOT
ATOM      1  C   UNL     1       0.525  10.569  19.349  0.00  0.00    +0.000 A 
ATOM      2  C   UNL     1       0.157  10.108  20.620  0.00  0.00    +0.000 A 
ATOM      3  C   UNL     1       0.598   8.861  21.073  0.00  0.00    +0.000 A 
ATOM      4  C   UNL     1       1.408   8.056  20.253  0.00  0.00    +0.000 A 
ATOM      5  C   UNL     1       1.852   6.787  20.638  0.00  0.00    +0.000 A 
ATOM      6  C   UNL     1       2.631   6.033  19.761  0.00  0.00    +0.000 A 
ATOM      7  C   UNL     1       2.958   6.571  18.522  0.00  0.00    +0.000 A 
ATOM      8  N   UNL     1       2.554   7.802  18.133  0.00  0.00    +0.000 NA
ATOM      9  C   UNL     1       1.791   8.515  18.981  0.00  0.00    +0.000 A 
ATOM     10  C   UNL     1       1.350   9.762  18.560  0.00  0.00    +0.000 A 
ENDROOT
BRANCH   1  12
ATOM     11  O   UNL     1      -1.143  12.250  19.152  0.00  0.00    +0.000 OA
ATOM     12  C   UNL     1      -0.004  11.885  18.896  0.00  0.00    +0.000 C 
BRANCH  12  13
ATOM     13  O   UNL     1       0.853  12.639  18.178  0.00  0.00    +0.000 OA
ATOM     14  H   UNL     1       0.800  12.461  17.213  0.00  0.00    +0.000 HD
ENDBRANCH  12  13
ENDBRANCH   1  12
BRANCH   7  15
ATOM     15  C   UNL     1       3.756   5.796  17.565  0.00  0.00    +0.000 C 
ATOM     16  C   UNL     1       4.751   6.305  16.821  0.00  0.00    +0.000 C 
BRANCH  16  17
ATOM     17  C   UNL     1       5.467   5.483  15.908  0.00  0.00    +0.000 A 
ATOM     18  C   UNL     1       5.311   4.126  15.648  0.00  0.00    +0.000 A 
ATOM     19  C   UNL     1       6.256   3.759  14.659  0.00  0.00    +0.000 A 
ATOM     20  C   UNL     1       6.945   4.904  14.359  0.00  0.00    +0.000 A 
ATOM     21  O   UNL     1       6.485   5.940  15.097  0.00  0.00    +0.000 OA
ENDBRANCH  16  17
ENDBRANCH   7  15
BRANCH  10  22
ATOM     22  O   UNL     1       1.748  10.179  17.302  0.00  0.00    +0.000 OA
ATOM     23  H   UNL     1       2.552   9.634  17.122  0.00  0.00    +0.000 HD
ENDBRANCH  10  22
TORSDOF 5
ENDMDL
MODEL 9
REMARK VINA RESULT:      -7.2      3.539      4.397
REMARK  Name = 
REMARK  5 active torsions:
REMARK  status: ('A' for Active; 'I' for Inactive)
REMARK    1  A    between atoms: C_2  and  O_3
REMARK    2  A    between atoms: C_2  and  C_4
REMARK    3  A    between atoms: C_10  and  C_11
REMARK    4  A    between atoms: C_12  and  C_13
REMARK    5  A    between atoms: C_20  and  O_21
REMARK                            x       y       z     vdW  Elec       q    Type
REMARK                         _______ _______ _______ _____ _____    ______ ____
ROOT
ATOM      1  C   UNL     1       2.983   3.989  18.452  0.00  0.00    +0.000 A 
ATOM      2  C   UNL     1       3.188   3.262  17.272  0.00  0.00    +0.000 A 
ATOM      3  C   UNL     1       4.314   3.506  16.480  0.00  0.00    +0.000 A 
ATOM      4  C   UNL     1       5.245   4.490  16.857  0.00  0.00    +0.000 A 
ATOM      5  C   UNL     1       6.371   4.803  16.088  0.00  0.00    +0.000 A 
ATOM      6  C   UNL     1       7.237   5.810  16.511  0.00  0.00    +0.000 A 
ATOM      7  C   UNL     1       6.963   6.475  17.701  0.00  0.00    +0.000 A 
ATOM      8  N   UNL     1       5.889   6.181  18.469  0.00  0.00    +0.000 NA
ATOM      9  C   UNL     1       5.052   5.216  18.044  0.00  0.00    +0.000 A 
ATOM     10  C   UNL     1       3.932   4.946  18.820  0.00  0.00    +0.000 A 
ENDROOT
BRANCH   1  12
ATOM     11  O   UNL     1       1.263   4.554  19.992  0.00  0.00    +0.000 OA
ATOM     12  C   UNL     1       1.748   3.720  19.240  0.00  0.00    +0.000 C 
BRANCH  12  13
ATOM     13  O   UNL     1       1.210   2.494  19.075  0.00  0.00    +0.000 OA
ATOM     14  H   UNL     1       0.544   2.276  19.765  0.00  0.00    +0.000 HD
ENDBRANCH  12  13
ENDBRANCH   1  12
BRANCH   7  15
ATOM     15  C   UNL     1       7.839   7.557  18.164  0.00  0.00    +0.000 C 
ATOM     16  C   UNL     1       7.718   8.842  17.794  0.00  0.00    +0.000 C 
BRANCH  16  17
ATOM     17  C   UNL     1       8.620   9.826  18.283  0.00  0.00    +0.000 A 
ATOM     18  C   UNL     1       8.959  11.054  17.725  0.00  0.00    +0.000 A 
ATOM     19  C   UNL     1       9.899  11.678  18.580  0.00  0.00    +0.000 A 
ATOM     20  C   UNL     1      10.094  10.806  19.619  0.00  0.00    +0.000 A 
ATOM     21  O   UNL     1       9.337   9.697  19.454  0.00  0.00    +0.000 OA
ENDBRANCH  16  17
ENDBRANCH   7  15
BRANCH  10  22
ATOM     22  O   UNL     1       3.778   5.682  19.981  0.00  0.00    +0.000 OA
ATOM     23  H   UNL     1       4.677   5.659  20.390  0.00  0.00    +0.000 HD
ENDBRANCH  10  22
TORSDOF 5
ENDMDL
