MODEL 1
REMARK VINA RESULT:      -8.3      0.000      0.000
REMARK  Name = 
REMARK  5 active torsions:
REMARK  status: ('A' for Active; 'I' for Inactive)
REMARK    1  A    between atoms: C_1  and  C_2
REMARK    2  A    between atoms: C_2  and  O_3
REMARK    3  A    between atoms: O_3  and  C_4
REMARK    4  A    between atoms: C_4  and  C_6
REMARK    5  A    between atoms: C_17  and  N_18
REMARK                            x       y       z     vdW  Elec       q    Type
REMARK                         _______ _______ _______ _____ _____    ______ ____
ROOT
ATOM      1  C   UNL     1       5.577   5.161  15.741  0.00  0.00    +0.000 A 
ATOM      2  C   UNL     1       4.893   4.153  16.411  0.00  0.00    +0.000 A 
ATOM      3  C   UNL     1       3.979   4.543  17.399  0.00  0.00    +0.000 A 
ATOM      4  C   UNL     1       3.816   5.911  17.619  0.00  0.00    +0.000 A 
ATOM      5  C   UNL     1       4.530   6.875  16.922  0.00  0.00    +0.000 A 
ATOM      6  N   UNL     1       5.415   6.487  15.981  0.00  0.00    +0.000 NA
ATOM      7  N   UNL     1       2.867   6.048  18.601  0.00  0.00    +0.000 N 
ATOM      8  C   UNL     1       2.420   4.820  19.031  0.00  0.00    +0.000 A 
ATOM      9  C   UNL     1       1.464   4.521  20.007  0.00  0.00    +0.000 A 
ATOM     10  C   UNL     1       1.221   3.177  20.279  0.00  0.00    +0.000 A 
ATOM     11  C   UNL     1       1.913   2.177  19.603  0.00  0.00    +0.000 A 
ATOM     12  C   UNL     1       2.857   2.474  18.603  0.00  0.00    +0.000 A 
ATOM     13  C   UNL     1       3.117   3.841  18.314  0.00  0.00    +0.000 A 
ATOM     14  H   UNL     1       2.543   6.930  18.967  0.00  0.00    +0.000 HD
ENDROOT
BRANCH  12  15
ATOM     15  N   UNL     1       3.544   1.395  18.016  0.00  0.00    +0.000 N 
ATOM     16  H   UNL     1       3.555   0.565  18.602  0.00  0.00    +0.000 HD
ATOM     17  H   UNL     1       3.264   1.185  17.069  0.00  0.00    +0.000 HD
ENDBRANCH  12  15
BRANCH   1  18
ATOM     18  C   UNL     1       6.622   4.733  14.763  0.00  0.00    +0.000 C 
ATOM     19  O   UNL     1       7.644   5.373  14.550  0.00  0.00    +0.000 OA
BRANCH  18  20
ATOM     20  O   UNL     1       6.210   3.639  14.076  0.00  0.00    +0.000 OA
BRANCH  20  22
ATOM     21  C   UNL     1       5.144   3.224  11.984  0.00  0.00    +0.000 C 
ATOM     22  C   UNL     1       6.414   3.708  12.660  0.00  0.00    +0.000 C 
ENDBRANCH  20  22
ENDBRANCH  18  20
ENDBRANCH   1  18
TORSDOF 4
ENDMDL
MODEL 2
REMARK VINA RESULT:      -7.8      1.577      1.769
REMARK  Name = 
REMARK  5 active torsions:
REMARK  status: ('A' for Active; 'I' for Inactive)
REMARK    1  A    between atoms: C_1  and  C_2
REMARK    2  A    between atoms: C_2  and  O_3
REMARK    3  A    between atoms: O_3  and  C_4
REMARK    4  A    between atoms: C_4  and  C_6
REMARK    5  A    between atoms: C_17  and  N_18
REMARK                            x       y       z     vdW  Elec       q    Type
REMARK                         _______ _______ _______ _____ _____    ______ ____
ROOT
ATOM      1  C   UNL     1       5.709   5.979  17.224  0.00  0.00    +0.000 A 
ATOM      2  C   UNL     1       5.361   4.898  18.026  0.00  0.00    +0.000 A 
ATOM      3  C   UNL     1       4.117   4.950  18.670  0.00  0.00    +0.000 A 
ATOM      4  C   UNL     1       3.322   6.073  18.441  0.00  0.00    +0.000 A 
ATOM      5  C   UNL     1       3.723   7.127  17.632  0.00  0.00    +0.000 A 
ATOM      6  N   UNL     1       4.927   7.071  17.026  0.00  0.00    +0.000 NA
ATOM      7  N   UNL     1       2.159   5.892  19.148  0.00  0.00    +0.000 N 
ATOM      8  C   UNL     1       2.180   4.700  19.833  0.00  0.00    +0.000 A 
ATOM      9  C   UNL     1       1.202   4.141  20.663  0.00  0.00    +0.000 A 
ATOM     10  C   UNL     1       1.492   2.923  21.272  0.00  0.00    +0.000 A 
ATOM     11  C   UNL     1       2.716   2.296  21.061  0.00  0.00    +0.000 A 
ATOM     12  C   UNL     1       3.693   2.842  20.208  0.00  0.00    +0.000 A 
ATOM     13  C   UNL     1       3.411   4.085  19.578  0.00  0.00    +0.000 A 
ATOM     14  H   UNL     1       1.393   6.547  19.171  0.00  0.00    +0.000 HD
ENDROOT
BRANCH  12  15
ATOM     15  N   UNL     1       4.919   2.160  20.103  0.00  0.00    +0.000 N 
ATOM     16  H   UNL     1       5.570   2.608  19.465  0.00  0.00    +0.000 HD
ATOM     17  H   UNL     1       5.351   1.936  20.988  0.00  0.00    +0.000 HD
ENDBRANCH  12  15
BRANCH   1  18
ATOM     18  C   UNL     1       7.078   5.961  16.625  0.00  0.00    +0.000 C 
ATOM     19  O   UNL     1       7.830   6.926  16.641  0.00  0.00    +0.000 OA
BRANCH  18  20
ATOM     20  O   UNL     1       7.292   4.796  15.964  0.00  0.00    +0.000 OA
BRANCH  20  22
ATOM     21  C   UNL     1       5.997   3.864  14.193  0.00  0.00    +0.000 C 
ATOM     22  C   UNL     1       7.085   4.861  14.549  0.00  0.00    +0.000 C 
ENDBRANCH  20  22
ENDBRANCH  18  20
ENDBRANCH   1  18
TORSDOF 4
ENDMDL
MODEL 3
REMARK VINA RESULT:      -7.8      2.181      3.018
REMARK  Name = 
REMARK  5 active torsions:
REMARK  status: ('A' for Active; 'I' for Inactive)
REMARK    1  A    between atoms: C_1  and  C_2
REMARK    2  A    between atoms: C_2  and  O_3
REMARK    3  A    between atoms: O_3  and  C_4
REMARK    4  A    between atoms: C_4  and  C_6
REMARK    5  A    between atoms: C_17  and  N_18
REMARK                            x       y       z     vdW  Elec       q    Type
REMARK                         _______ _______ _______ _____ _____    ______ ____
ROOT
ATOM      1  C   UNL     1       5.700   5.789  17.087  0.00  0.00    +0.000 A 
ATOM      2  C   UNL     1       5.346   4.752  17.943  0.00  0.00    +0.000 A 
ATOM      3  C   UNL     1       4.108   4.851  18.594  0.00  0.00    +0.000 A 
ATOM      4  C   UNL     1       3.324   5.971  18.318  0.00  0.00    +0.000 A 
ATOM      5  C   UNL     1       3.731   6.980  17.456  0.00  0.00    +0.000 A 
ATOM      6  N   UNL     1       4.929   6.879  16.843  0.00  0.00    +0.000 NA
ATOM      7  N   UNL     1       2.166   5.838  19.042  0.00  0.00    +0.000 N 
ATOM      8  C   UNL     1       2.178   4.680  19.784  0.00  0.00    +0.000 A 
ATOM      9  C   UNL     1       1.201   4.174  20.648  0.00  0.00    +0.000 A 
ATOM     10  C   UNL     1       1.482   2.983  21.312  0.00  0.00    +0.000 A 
ATOM     11  C   UNL     1       2.697   2.332  21.121  0.00  0.00    +0.000 A 
ATOM     12  C   UNL     1       3.672   2.824  20.235  0.00  0.00    +0.000 A 
ATOM     13  C   UNL     1       3.400   4.039  19.549  0.00  0.00    +0.000 A 
ATOM     14  H   UNL     1       1.408   6.503  19.040  0.00  0.00    +0.000 HD
ENDROOT
BRANCH  12  15
ATOM     15  N   UNL     1       4.890   2.123  20.153  0.00  0.00    +0.000 N 
ATOM     16  H   UNL     1       5.058   1.724  19.235  0.00  0.00    +0.000 HD
ATOM     17  H   UNL     1       5.691   2.632  20.496  0.00  0.00    +0.000 HD
ENDBRANCH  12  15
BRANCH   1  18
ATOM     18  C   UNL     1       7.063   5.726  16.478  0.00  0.00    +0.000 C 
ATOM     19  O   UNL     1       7.558   4.692  16.049  0.00  0.00    +0.000 OA
BRANCH  18  20
ATOM     20  O   UNL     1       7.693   6.921  16.597  0.00  0.00    +0.000 OA
BRANCH  20  22
ATOM     21  C   UNL     1       8.116   8.857  17.923  0.00  0.00    +0.000 C 
ATOM     22  C   UNL     1       7.911   7.353  17.944  0.00  0.00    +0.000 C 
ENDBRANCH  20  22
ENDBRANCH  18  20
ENDBRANCH   1  18
TORSDOF 4
ENDMDL
MODEL 4
REMARK VINA RESULT:      -7.1      1.317      2.181
REMARK  Name = 
REMARK  5 active torsions:
REMARK  status: ('A' for Active; 'I' for Inactive)
REMARK    1  A    between atoms: C_1  and  C_2
REMARK    2  A    between atoms: C_2  and  O_3
REMARK    3  A    between atoms: O_3  and  C_4
REMARK    4  A    between atoms: C_4  and  C_6
REMARK    5  A    between atoms: C_17  and  N_18
REMARK                            x       y       z     vdW  Elec       q    Type
REMARK                         _______ _______ _______ _____ _____    ______ ____
ROOT
ATOM      1  C   UNL     1       5.194   5.394  16.253  0.00  0.00    +0.000 A 
ATOM      2  C   UNL     1       4.543   4.330  16.868  0.00  0.00    +0.000 A 
ATOM      3  C   UNL     1       3.573   4.641  17.831  0.00  0.00    +0.000 A 
ATOM      4  C   UNL     1       3.327   5.991  18.082  0.00  0.00    +0.000 A 
ATOM      5  C   UNL     1       4.011   7.013  17.439  0.00  0.00    +0.000 A 
ATOM      6  N   UNL     1       4.950   6.701  16.521  0.00  0.00    +0.000 NA
ATOM      7  N   UNL     1       2.336   6.048  19.031  0.00  0.00    +0.000 N 
ATOM      8  C   UNL     1       1.943   4.786  19.409  0.00  0.00    +0.000 A 
ATOM      9  C   UNL     1       0.970   4.406  20.340  0.00  0.00    +0.000 A 
ATOM     10  C   UNL     1       0.792   3.044  20.566  0.00  0.00    +0.000 A 
ATOM     11  C   UNL     1       1.563   2.103  19.890  0.00  0.00    +0.000 A 
ATOM     12  C   UNL     1       2.525   2.480  18.935  0.00  0.00    +0.000 A 
ATOM     13  C   UNL     1       2.719   3.867  18.693  0.00  0.00    +0.000 A 
ATOM     14  H   UNL     1       1.952   6.900  19.408  0.00  0.00    +0.000 HD
ENDROOT
BRANCH  12  15
ATOM     15  N   UNL     1       3.291   1.457  18.346  0.00  0.00    +0.000 N 
ATOM     16  H   UNL     1       2.785   0.943  17.631  0.00  0.00    +0.000 HD
ATOM     17  H   UNL     1       4.205   1.748  18.028  0.00  0.00    +0.000 HD
ENDBRANCH  12  15
BRANCH   1  18
ATOM     18  C   UNL     1       6.296   5.052  15.304  0.00  0.00    +0.000 C 
ATOM     19  O   UNL     1       6.101   4.588  14.188  0.00  0.00    +0.000 OA
BRANCH  18  20
ATOM     20  O   UNL     1       7.503   5.202  15.903  0.00  0.00    +0.000 OA
BRANCH  20  22
ATOM     21  C   UNL     1       7.796   5.590  18.238  0.00  0.00    +0.000 C 
ATOM     22  C   UNL     1       7.637   4.532  17.161  0.00  0.00    +0.000 C 
ENDBRANCH  20  22
ENDBRANCH  18  20
ENDBRANCH   1  18
TORSDOF 4
ENDMDL
MODEL 5
REMARK VINA RESULT:      -7.0      0.996      1.335
REMARK  Name = 
REMARK  5 active torsions:
REMARK  status: ('A' for Active; 'I' for Inactive)
REMARK    1  A    between atoms: C_1  and  C_2
REMARK    2  A    between atoms: C_2  and  O_3
REMARK    3  A    between atoms: O_3  and  C_4
REMARK    4  A    between atoms: C_4  and  C_6
REMARK    5  A    between atoms: C_17  and  N_18
REMARK                            x       y       z     vdW  Elec       q    Type
REMARK                         _______ _______ _______ _____ _____    ______ ____
ROOT
ATOM      1  C   UNL     1       5.426   5.180  15.686  0.00  0.00    +0.000 A 
ATOM      2  C   UNL     1       4.562   4.290  16.315  0.00  0.00    +0.000 A 
ATOM      3  C   UNL     1       3.862   4.758  17.436  0.00  0.00    +0.000 A 
ATOM      4  C   UNL     1       4.074   6.082  17.819  0.00  0.00    +0.000 A 
ATOM      5  C   UNL     1       4.954   6.926  17.154  0.00  0.00    +0.000 A 
ATOM      6  N   UNL     1       5.630   6.461  16.083  0.00  0.00    +0.000 NA
ATOM      7  N   UNL     1       3.276   6.317  18.910  0.00  0.00    +0.000 N 
ATOM      8  C   UNL     1       2.565   5.190  19.252  0.00  0.00    +0.000 A 
ATOM      9  C   UNL     1       1.646   5.008  20.291  0.00  0.00    +0.000 A 
ATOM     10  C   UNL     1       1.088   3.740  20.442  0.00  0.00    +0.000 A 
ATOM     11  C   UNL     1       1.442   2.700  19.589  0.00  0.00    +0.000 A 
ATOM     12  C   UNL     1       2.347   2.887  18.527  0.00  0.00    +0.000 A 
ATOM     13  C   UNL     1       2.925   4.174  18.360  0.00  0.00    +0.000 A 
ATOM     14  H   UNL     1       3.221   7.195  19.403  0.00  0.00    +0.000 HD
ENDROOT
BRANCH  12  15
ATOM     15  N   UNL     1       2.683   1.759  17.755  0.00  0.00    +0.000 N 
ATOM     16  H   UNL     1       2.905   1.990  16.791  0.00  0.00    +0.000 HD
ATOM     17  H   UNL     1       3.381   1.159  18.170  0.00  0.00    +0.000 HD
ENDBRANCH  12  15
BRANCH   1  18
ATOM     18  C   UNL     1       6.243   4.642  14.557  0.00  0.00    +0.000 C 
ATOM     19  O   UNL     1       6.124   3.503  14.125  0.00  0.00    +0.000 OA
BRANCH  18  20
ATOM     20  O   UNL     1       7.195   5.535  14.192  0.00  0.00    +0.000 OA
BRANCH  20  22
ATOM     21  C   UNL     1       7.771   5.942  11.913  0.00  0.00    +0.000 C 
ATOM     22  C   UNL     1       8.061   5.094  13.139  0.00  0.00    +0.000 C 
ENDBRANCH  20  22
ENDBRANCH  18  20
ENDBRANCH   1  18
TORSDOF 4
ENDMDL
MODEL 6
REMARK VINA RESULT:      -7.0      2.436      3.878
REMARK  Name = 
REMARK  5 active torsions:
REMARK  status: ('A' for Active; 'I' for Inactive)
REMARK    1  A    between atoms: C_1  and  C_2
REMARK    2  A    between atoms: C_2  and  O_3
REMARK    3  A    between atoms: O_3  and  C_4
REMARK    4  A    between atoms: C_4  and  C_6
REMARK    5  A    between atoms: C_17  and  N_18
REMARK                            x       y       z     vdW  Elec       q    Type
REMARK                         _______ _______ _______ _____ _____    ______ ____
ROOT
ATOM      1  C   UNL     1       6.429   5.045  17.999  0.00  0.00    +0.000 A 
ATOM      2  C   UNL     1       5.356   4.958  18.879  0.00  0.00    +0.000 A 
ATOM      3  C   UNL     1       4.249   4.202  18.469  0.00  0.00    +0.000 A 
ATOM      4  C   UNL     1       4.320   3.585  17.220  0.00  0.00    +0.000 A 
ATOM      5  C   UNL     1       5.417   3.711  16.379  0.00  0.00    +0.000 A 
ATOM      6  N   UNL     1       6.473   4.449  16.780  0.00  0.00    +0.000 NA
ATOM      7  N   UNL     1       3.147   2.892  17.048  0.00  0.00    +0.000 N 
ATOM      8  C   UNL     1       2.319   3.049  18.134  0.00  0.00    +0.000 A 
ATOM      9  C   UNL     1       1.045   2.514  18.358  0.00  0.00    +0.000 A 
ATOM     10  C   UNL     1       0.398   2.864  19.541  0.00  0.00    +0.000 A 
ATOM     11  C   UNL     1       1.003   3.718  20.457  0.00  0.00    +0.000 A 
ATOM     12  C   UNL     1       2.294   4.238  20.247  0.00  0.00    +0.000 A 
ATOM     13  C   UNL     1       2.967   3.891  19.045  0.00  0.00    +0.000 A 
ATOM     14  H   UNL     1       2.917   2.347  16.232  0.00  0.00    +0.000 HD
ENDROOT
BRANCH  12  15
ATOM     15  N   UNL     1       2.796   5.137  21.206  0.00  0.00    +0.000 N 
ATOM     16  H   UNL     1       2.866   6.089  20.860  0.00  0.00    +0.000 HD
ATOM     17  H   UNL     1       2.334   5.094  22.104  0.00  0.00    +0.000 HD
ENDBRANCH  12  15
BRANCH   1  18
ATOM     18  C   UNL     1       7.560   5.935  18.400  0.00  0.00    +0.000 C 
ATOM     19  O   UNL     1       8.036   5.948  19.528  0.00  0.00    +0.000 OA
BRANCH  18  20
ATOM     20  O   UNL     1       7.872   6.791  17.395  0.00  0.00    +0.000 OA
BRANCH  20  22
ATOM     21  C   UNL     1       8.327   9.034  18.066  0.00  0.00    +0.000 C 
ATOM     22  C   UNL     1       7.278   8.089  17.507  0.00  0.00    +0.000 C 
ENDBRANCH  20  22
ENDBRANCH  18  20
ENDBRANCH   1  18
TORSDOF 4
ENDMDL
MODEL 7
REMARK VINA RESULT:      -7.0      3.048      4.470
REMARK  Name = 
REMARK  5 active torsions:
REMARK  status: ('A' for Active; 'I' for Inactive)
REMARK    1  A    between atoms: C_1  and  C_2
REMARK    2  A    between atoms: C_2  and  O_3
REMARK    3  A    between atoms: O_3  and  C_4
REMARK    4  A    between atoms: C_4  and  C_6
REMARK    5  A    between atoms: C_17  and  N_18
REMARK                            x       y       z     vdW  Elec       q    Type
REMARK                         _______ _______ _______ _____ _____    ______ ____
ROOT
ATOM      1  C   UNL     1       4.304   6.000  17.437  0.00  0.00    +0.000 A 
ATOM      2  C   UNL     1       3.551   7.155  17.615  0.00  0.00    +0.000 A 
ATOM      3  C   UNL     1       2.787   7.250  18.787  0.00  0.00    +0.000 A 
ATOM      4  C   UNL     1       2.858   6.188  19.688  0.00  0.00    +0.000 A 
ATOM      5  C   UNL     1       3.626   5.055  19.456  0.00  0.00    +0.000 A 
ATOM      6  N   UNL     1       4.348   4.969  18.320  0.00  0.00    +0.000 NA
ATOM      7  N   UNL     1       2.057   6.512  20.754  0.00  0.00    +0.000 N 
ATOM      8  C   UNL     1       1.463   7.739  20.569  0.00  0.00    +0.000 A 
ATOM      9  C   UNL     1       0.584   8.430  21.410  0.00  0.00    +0.000 A 
ATOM     10  C   UNL     1       0.094   9.655  20.962  0.00  0.00    +0.000 A 
ATOM     11  C   UNL     1       0.466  10.159  19.720  0.00  0.00    +0.000 A 
ATOM     12  C   UNL     1       1.369   9.479  18.883  0.00  0.00    +0.000 A 
ATOM     13  C   UNL     1       1.879   8.228  19.325  0.00  0.00    +0.000 A 
ATOM     14  H   UNL     1       1.914   5.928  21.563  0.00  0.00    +0.000 HD
ENDROOT
BRANCH  12  15
ATOM     15  N   UNL     1       1.640  10.045  17.623  0.00  0.00    +0.000 N 
ATOM     16  H   UNL     1       0.965  10.753  17.352  0.00  0.00    +0.000 HD
ATOM     17  H   UNL     1       2.591  10.364  17.502  0.00  0.00    +0.000 HD
ENDBRANCH  12  15
BRANCH   1  18
ATOM     18  C   UNL     1       5.033   5.862  16.140  0.00  0.00    +0.000 C 
ATOM     19  O   UNL     1       5.265   6.807  15.398  0.00  0.00    +0.000 OA
BRANCH  18  20
ATOM     20  O   UNL     1       5.266   4.555  15.862  0.00  0.00    +0.000 OA
BRANCH  20  22
ATOM     21  C   UNL     1       6.135   3.894  13.742  0.00  0.00    +0.000 C 
ATOM     22  C   UNL     1       6.488   4.300  15.162  0.00  0.00    +0.000 C 
ENDBRANCH  20  22
ENDBRANCH  18  20
ENDBRANCH   1  18
TORSDOF 4
ENDMDL
MODEL 8
REMARK VINA RESULT:      -6.9      3.171      4.963
REMARK  Name = 
REMARK  5 active torsions:
REMARK  status: ('A' for Active; 'I' for Inactive)
REMARK    1  A    between atoms: C_1  and  C_2
REMARK    2  A    between atoms: C_2  and  O_3
REMARK    3  A    between atoms: O_3  and  C_4
REMARK    4  A    between atoms: C_4  and  C_6
REMARK    5  A    between atoms: C_17  and  N_18
REMARK                            x       y       z     vdW  Elec       q    Type
REMARK                         _______ _______ _______ _____ _____    ______ ____
ROOT
ATOM      1  C   UNL     1       4.342   5.872  17.661  0.00  0.00    +0.000 A 
ATOM      2  C   UNL     1       3.601   7.043  17.771  0.00  0.00    +0.000 A 
ATOM      3  C   UNL     1       2.783   7.182  18.902  0.00  0.00    +0.000 A 
ATOM      4  C   UNL     1       2.793   6.143  19.833  0.00  0.00    +0.000 A 
ATOM      5  C   UNL     1       3.551   4.992  19.669  0.00  0.00    +0.000 A 
ATOM      6  N   UNL     1       4.325   4.865  18.571  0.00  0.00    +0.000 NA
ATOM      7  N   UNL     1       1.946   6.509  20.850  0.00  0.00    +0.000 N 
ATOM      8  C   UNL     1       1.383   7.739  20.604  0.00  0.00    +0.000 A 
ATOM      9  C   UNL     1       0.476   8.467  21.383  0.00  0.00    +0.000 A 
ATOM     10  C   UNL     1       0.029   9.686  20.880  0.00  0.00    +0.000 A 
ATOM     11  C   UNL     1       0.470  10.151  19.646  0.00  0.00    +0.000 A 
ATOM     12  C   UNL     1       1.400   9.434  18.871  0.00  0.00    +0.000 A 
ATOM     13  C   UNL     1       1.866   8.188  19.370  0.00  0.00    +0.000 A 
ATOM     14  H   UNL     1       1.754   5.949  21.666  0.00  0.00    +0.000 HD
ENDROOT
BRANCH  12  15
ATOM     15  N   UNL     1       1.741   9.963  17.612  0.00  0.00    +0.000 N 
ATOM     16  H   UNL     1       1.161  10.751  17.341  0.00  0.00    +0.000 HD
ATOM     17  H   UNL     1       2.725  10.158  17.491  0.00  0.00    +0.000 HD
ENDBRANCH  12  15
BRANCH   1  18
ATOM     18  C   UNL     1       5.130   5.688  16.405  0.00  0.00    +0.000 C 
ATOM     19  O   UNL     1       5.007   4.716  15.673  0.00  0.00    +0.000 OA
BRANCH  18  20
ATOM     20  O   UNL     1       6.064   6.664  16.283  0.00  0.00    +0.000 OA
BRANCH  20  22
ATOM     21  C   UNL     1       7.673   7.840  17.592  0.00  0.00    +0.000 C 
ATOM     22  C   UNL     1       7.235   6.477  17.085  0.00  0.00    +0.000 C 
ENDBRANCH  20  22
ENDBRANCH  18  20
ENDBRANCH   1  18
TORSDOF 4
ENDMDL
MODEL 9
REMARK VINA RESULT:      -6.8      1.989      3.738
REMARK  Name = 
REMARK  5 active torsions:
REMARK  status: ('A' for Active; 'I' for Inactive)
REMARK    1  A    between atoms: C_1  and  C_2
REMARK    2  A    between atoms: C_2  and  O_3
REMARK    3  A    between atoms: O_3  and  C_4
REMARK    4  A    between atoms: C_4  and  C_6
REMARK    5  A    between atoms: C_17  and  N_18
REMARK                            x       y       z     vdW  Elec       q    Type
REMARK                         _______ _______ _______ _____ _____    ______ ____
ROOT
ATOM      1  C   UNL     1       5.933   5.157  16.896  0.00  0.00    +0.000 A 
ATOM      2  C   UNL     1       4.997   5.369  17.902  0.00  0.00    +0.000 A 
ATOM      3  C   UNL     1       4.012   4.386  18.081  0.00  0.00    +0.000 A 
ATOM      4  C   UNL     1       4.062   3.269  17.247  0.00  0.00    +0.000 A 
ATOM      5  C   UNL     1       5.019   3.113  16.254  0.00  0.00    +0.000 A 
ATOM      6  N   UNL     1       5.954   4.070  16.084  0.00  0.00    +0.000 NA
ATOM      7  N   UNL     1       3.028   2.446  17.618  0.00  0.00    +0.000 N 
ATOM      8  C   UNL     1       2.307   2.996  18.652  0.00  0.00    +0.000 A 
ATOM      9  C   UNL     1       1.188   2.485  19.318  0.00  0.00    +0.000 A 
ATOM     10  C   UNL     1       0.620   3.270  20.319  0.00  0.00    +0.000 A 
ATOM     11  C   UNL     1       1.150   4.517  20.632  0.00  0.00    +0.000 A 
ATOM     12  C   UNL     1       2.290   5.024  19.981  0.00  0.00    +0.000 A 
ATOM     13  C   UNL     1       2.882   4.235  18.958  0.00  0.00    +0.000 A 
ATOM     14  H   UNL     1       2.817   1.560  17.187  0.00  0.00    +0.000 HD
ENDROOT
BRANCH  12  15
ATOM     15  N   UNL     1       2.716   6.319  20.331  0.00  0.00    +0.000 N 
ATOM     16  H   UNL     1       3.294   6.335  21.166  0.00  0.00    +0.000 HD
ATOM     17  H   UNL     1       3.131   6.843  19.574  0.00  0.00    +0.000 HD
ENDBRANCH  12  15
BRANCH   1  18
ATOM     18  C   UNL     1       6.914   6.256  16.646  0.00  0.00    +0.000 C 
ATOM     19  O   UNL     1       7.767   6.207  15.770  0.00  0.00    +0.000 OA
BRANCH  18  20
ATOM     20  O   UNL     1       6.802   7.218  17.596  0.00  0.00    +0.000 OA
BRANCH  20  22
ATOM     21  C   UNL     1       8.222   9.092  17.998  0.00  0.00    +0.000 C 
ATOM     22  C   UNL     1       8.037   7.600  18.212  0.00  0.00    +0.000 C 
ENDBRANCH  20  22
ENDBRANCH  18  20
ENDBRANCH   1  18
TORSDOF 4
ENDMDL
