MODEL 1
REMARK VINA RESULT:      -8.4      0.000      0.000
REMARK  Name = 
REMARK  9 active torsions:
REMARK  status: ('A' for Active; 'I' for Inactive)
REMARK    1  A    between atoms: C_1  and  C_2
REMARK    2  A    between atoms: C_2  and  C_3
REMARK    3  A    between atoms: C_2  and  C_4
REMARK    4  A    between atoms: N_9  and  C_10
REMARK    5  A    between atoms: C_13  and  N_14
REMARK    6  A    between atoms: C_17  and  N_18
REMARK    7  A    between atoms: N_18  and  C_19
REMARK    8  A    between atoms: C_19  and  C_20
REMARK    9  A    between atoms: C_19  and  C_21
REMARK                            x       y       z     vdW  Elec       q    Type
REMARK                         _______ _______ _______ _____ _____    ______ ____
ROOT
ATOM      1  C   UNL     1       2.428   6.712  19.333  0.00  0.00    +0.000 A 
ATOM      2  C   UNL     1       2.367   5.807  20.396  0.00  0.00    +0.000 A 
ATOM      3  C   UNL     1       2.815   4.492  20.264  0.00  0.00    +0.000 A 
ATOM      4  C   UNL     1       3.361   4.051  19.048  0.00  0.00    +0.000 A 
ATOM      5  C   UNL     1       3.456   4.922  17.938  0.00  0.00    +0.000 A 
ATOM      6  C   UNL     1       2.968   6.233  18.123  0.00  0.00    +0.000 A 
ENDROOT
BRANCH   1  12
ATOM      7  C   UNL     1      -0.397  11.413  19.465  0.00  0.00    +0.000 C 
ATOM      8  O   UNL     1      -0.523  12.089  18.442  0.00  0.00    +0.000 OA
ATOM      9  N   UNL     1       0.072  10.111  19.414  0.00  0.00    +0.000 N 
ATOM     10  C   UNL     1       0.583   9.574  18.147  0.00  0.00    +0.000 C 
ATOM     11  C   UNL     1       1.996   8.981  18.343  0.00  0.00    +0.000 C 
ATOM     12  N   UNL     1       2.002   8.018  19.465  0.00  0.00    +0.000 N 
ATOM     13  C   UNL     1       1.480   8.539  20.737  0.00  0.00    +0.000 C 
ATOM     14  C   UNL     1       0.077   9.134  20.513  0.00  0.00    +0.000 C 
BRANCH   7  16
ATOM     15  C   UNL     1       0.465  13.072  21.106  0.00  0.00    +0.000 C 
ATOM     16  C   UNL     1      -0.634  12.043  20.842  0.00  0.00    +0.000 C 
ATOM     17  C   UNL     1      -2.009  12.707  20.932  0.00  0.00    +0.000 C 
ENDBRANCH   7  16
ENDBRANCH   1  12
BRANCH   4  18
ATOM     18  N   UNL     1       3.804   2.646  18.979  0.00  0.00    +0.000 N 
ATOM     19  O   UNL     1       4.690   2.282  19.767  0.00  0.00    +0.000 OA
ATOM     20  O   UNL     1       3.272   1.893  18.148  0.00  0.00    +0.000 OA
ENDBRANCH   4  18
BRANCH   5  21
ATOM     21  N   UNL     1       4.143   4.593  16.760  0.00  0.00    +0.000 N 
ATOM     22  H   UNL     1       3.977   5.288  16.025  0.00  0.00    +0.000 HD
BRANCH  21  23
ATOM     23  C   UNL     1       5.547   4.159  16.756  0.00  0.00    +0.000 C 
ATOM     24  C   UNL     1       5.961   3.902  15.304  0.00  0.00    +0.000 C 
BRANCH  23  25
ATOM     25  C   UNL     1       6.429   5.214  17.405  0.00  0.00    +0.000 A 
ATOM     26  C   UNL     1       6.632   6.451  16.770  0.00  0.00    +0.000 A 
ATOM     27  C   UNL     1       7.458   7.420  17.346  0.00  0.00    +0.000 A 
ATOM     28  C   UNL     1       8.096   7.166  18.559  0.00  0.00    +0.000 A 
ATOM     29  C   UNL     1       7.894   5.951  19.207  0.00  0.00    +0.000 A 
ATOM     30  C   UNL     1       7.060   4.987  18.641  0.00  0.00    +0.000 A 
ENDBRANCH  23  25
ENDBRANCH  21  23
ENDBRANCH   5  21
TORSDOF 6
ENDMDL
MODEL 2
REMARK VINA RESULT:      -8.4      0.295      1.103
REMARK  Name = 
REMARK  9 active torsions:
REMARK  status: ('A' for Active; 'I' for Inactive)
REMARK    1  A    between atoms: C_1  and  C_2
REMARK    2  A    between atoms: C_2  and  C_3
REMARK    3  A    between atoms: C_2  and  C_4
REMARK    4  A    between atoms: N_9  and  C_10
REMARK    5  A    between atoms: C_13  and  N_14
REMARK    6  A    between atoms: C_17  and  N_18
REMARK    7  A    between atoms: N_18  and  C_19
REMARK    8  A    between atoms: C_19  and  C_20
REMARK    9  A    between atoms: C_19  and  C_21
REMARK                            x       y       z     vdW  Elec       q    Type
REMARK                         _______ _______ _______ _____ _____    ______ ____
ROOT
ATOM      1  C   UNL     1       2.320   6.665  19.347  0.00  0.00    +0.000 A 
ATOM      2  C   UNL     1       2.119   5.682  20.321  0.00  0.00    +0.000 A 
ATOM      3  C   UNL     1       2.492   4.354  20.106  0.00  0.00    +0.000 A 
ATOM      4  C   UNL     1       3.101   3.978  18.898  0.00  0.00    +0.000 A 
ATOM      5  C   UNL     1       3.336   4.929  17.878  0.00  0.00    +0.000 A 
ATOM      6  C   UNL     1       2.919   6.251  18.142  0.00  0.00    +0.000 A 
ENDROOT
BRANCH   1  12
ATOM      7  C   UNL     1      -0.243  11.495  19.808  0.00  0.00    +0.000 C 
ATOM      8  O   UNL     1      -0.352  12.234  18.828  0.00  0.00    +0.000 OA
ATOM      9  N   UNL     1       0.154  10.175  19.674  0.00  0.00    +0.000 N 
ATOM     10  C   UNL     1       0.610   9.684  18.367  0.00  0.00    +0.000 C 
ATOM     11  C   UNL     1       1.992   9.007  18.497  0.00  0.00    +0.000 C 
ATOM     12  N   UNL     1       1.967   7.982  19.563  0.00  0.00    +0.000 N 
ATOM     13  C   UNL     1       1.500   8.457  20.873  0.00  0.00    +0.000 C 
ATOM     14  C   UNL     1       0.127   9.137  20.715  0.00  0.00    +0.000 C 
BRANCH   7  16
ATOM     15  C   UNL     1       0.431  13.321  21.358  0.00  0.00    +0.000 C 
ATOM     16  C   UNL     1      -0.418  12.056  21.224  0.00  0.00    +0.000 C 
ATOM     17  C   UNL     1      -1.883  12.370  21.531  0.00  0.00    +0.000 C 
ENDBRANCH   7  16
ENDBRANCH   1  12
BRANCH   4  18
ATOM     18  N   UNL     1       3.459   2.556  18.739  0.00  0.00    +0.000 N 
ATOM     19  O   UNL     1       2.936   1.930  17.805  0.00  0.00    +0.000 OA
ATOM     20  O   UNL     1       4.267   2.053  19.536  0.00  0.00    +0.000 OA
ENDBRANCH   4  18
BRANCH   5  21
ATOM     21  N   UNL     1       4.090   4.651  16.728  0.00  0.00    +0.000 N 
ATOM     22  H   UNL     1       4.011   5.406  16.039  0.00  0.00    +0.000 HD
BRANCH  21  23
ATOM     23  C   UNL     1       5.467   4.143  16.786  0.00  0.00    +0.000 C 
ATOM     24  C   UNL     1       5.904   3.790  15.361  0.00  0.00    +0.000 C 
BRANCH  23  25
ATOM     25  C   UNL     1       6.389   5.184  17.405  0.00  0.00    +0.000 A 
ATOM     26  C   UNL     1       7.056   4.908  18.609  0.00  0.00    +0.000 A 
ATOM     27  C   UNL     1       7.888   5.864  19.197  0.00  0.00    +0.000 A 
ATOM     28  C   UNL     1       8.062   7.108  18.594  0.00  0.00    +0.000 A 
ATOM     29  C   UNL     1       7.419   7.391  17.393  0.00  0.00    +0.000 A 
ATOM     30  C   UNL     1       6.598   6.435  16.797  0.00  0.00    +0.000 A 
ENDBRANCH  23  25
ENDBRANCH  21  23
ENDBRANCH   5  21
TORSDOF 6
ENDMDL
MODEL 3
REMARK VINA RESULT:      -8.3      2.166      4.258
REMARK  Name = 
REMARK  9 active torsions:
REMARK  status: ('A' for Active; 'I' for Inactive)
REMARK    1  A    between atoms: C_1  and  C_2
REMARK    2  A    between atoms: C_2  and  C_3
REMARK    3  A    between atoms: C_2  and  C_4
REMARK    4  A    between atoms: N_9  and  C_10
REMARK    5  A    between atoms: C_13  and  N_14
REMARK    6  A    between atoms: C_17  and  N_18
REMARK    7  A    between atoms: N_18  and  C_19
REMARK    8  A    between atoms: C_19  and  C_20
REMARK    9  A    between atoms: C_19  and  C_21
REMARK                            x       y       z     vdW  Elec       q    Type
REMARK                         _______ _______ _______ _____ _____    ______ ____
ROOT
ATOM      1  C   UNL     1       3.589   6.802  18.359  0.00  0.00    +0.000 A 
ATOM      2  C   UNL     1       4.393   7.099  17.254  0.00  0.00    +0.000 A 
ATOM      3  C   UNL     1       5.562   6.385  16.988  0.00  0.00    +0.000 A 
ATOM      4  C   UNL     1       5.950   5.327  17.827  0.00  0.00    +0.000 A 
ATOM      5  C   UNL     1       5.175   4.975  18.956  0.00  0.00    +0.000 A 
ATOM      6  C   UNL     1       4.015   5.745  19.187  0.00  0.00    +0.000 A 
ENDROOT
BRANCH   1  12
ATOM      7  C   UNL     1      -0.238  10.412  19.915  0.00  0.00    +0.000 C 
ATOM      8  O   UNL     1      -0.695  10.376  21.059  0.00  0.00    +0.000 OA
ATOM      9  N   UNL     1       0.900   9.702  19.571  0.00  0.00    +0.000 N 
ATOM     10  C   UNL     1       1.488   8.763  20.535  0.00  0.00    +0.000 C 
ATOM     11  C   UNL     1       1.678   7.374  19.887  0.00  0.00    +0.000 C 
ATOM     12  N   UNL     1       2.423   7.495  18.615  0.00  0.00    +0.000 N 
ATOM     13  C   UNL     1       1.854   8.442  17.646  0.00  0.00    +0.000 C 
ATOM     14  C   UNL     1       1.663   9.815  18.319  0.00  0.00    +0.000 C 
BRANCH   7  16
ATOM     15  C   UNL     1      -1.992  10.170  18.167  0.00  0.00    +0.000 C 
ATOM     16  C   UNL     1      -0.997  11.143  18.801  0.00  0.00    +0.000 C 
ATOM     17  C   UNL     1      -1.731  12.375  19.331  0.00  0.00    +0.000 C 
ENDBRANCH   7  16
ENDBRANCH   1  12
BRANCH   4  18
ATOM     18  N   UNL     1       7.203   4.625  17.489  0.00  0.00    +0.000 N 
ATOM     19  O   UNL     1       7.974   4.342  18.417  0.00  0.00    +0.000 OA
ATOM     20  O   UNL     1       7.425   4.344  16.300  0.00  0.00    +0.000 OA
ENDBRANCH   4  18
BRANCH   5  21
ATOM     21  N   UNL     1       5.417   3.828  19.727  0.00  0.00    +0.000 N 
ATOM     22  H   UNL     1       5.461   4.053  20.725  0.00  0.00    +0.000 HD
BRANCH  21  23
ATOM     23  C   UNL     1       4.703   2.563  19.510  0.00  0.00    +0.000 C 
ATOM     24  C   UNL     1       5.201   1.553  20.548  0.00  0.00    +0.000 C 
BRANCH  23  25
ATOM     25  C   UNL     1       3.201   2.777  19.623  0.00  0.00    +0.000 A 
ATOM     26  C   UNL     1       2.385   2.666  18.485  0.00  0.00    +0.000 A 
ATOM     27  C   UNL     1       1.007   2.881  18.573  0.00  0.00    +0.000 A 
ATOM     28  C   UNL     1       0.427   3.214  19.796  0.00  0.00    +0.000 A 
ATOM     29  C   UNL     1       1.219   3.315  20.935  0.00  0.00    +0.000 A 
ATOM     30  C   UNL     1       2.593   3.088  20.852  0.00  0.00    +0.000 A 
ENDBRANCH  23  25
ENDBRANCH  21  23
ENDBRANCH   5  21
TORSDOF 6
ENDMDL
MODEL 4
REMARK VINA RESULT:      -8.2      2.166      4.362
REMARK  Name = 
REMARK  9 active torsions:
REMARK  status: ('A' for Active; 'I' for Inactive)
REMARK    1  A    between atoms: C_1  and  C_2
REMARK    2  A    between atoms: C_2  and  C_3
REMARK    3  A    between atoms: C_2  and  C_4
REMARK    4  A    between atoms: N_9  and  C_10
REMARK    5  A    between atoms: C_13  and  N_14
REMARK    6  A    between atoms: C_17  and  N_18
REMARK    7  A    between atoms: N_18  and  C_19
REMARK    8  A    between atoms: C_19  and  C_20
REMARK    9  A    between atoms: C_19  and  C_21
REMARK                            x       y       z     vdW  Elec       q    Type
REMARK                         _______ _______ _______ _____ _____    ______ ____
ROOT
ATOM      1  C   UNL     1       3.600   6.806  18.344  0.00  0.00    +0.000 A 
ATOM      2  C   UNL     1       4.413   7.112  17.249  0.00  0.00    +0.000 A 
ATOM      3  C   UNL     1       5.582   6.398  16.985  0.00  0.00    +0.000 A 
ATOM      4  C   UNL     1       5.963   5.333  17.817  0.00  0.00    +0.000 A 
ATOM      5  C   UNL     1       5.179   4.972  18.937  0.00  0.00    +0.000 A 
ATOM      6  C   UNL     1       4.019   5.741  19.166  0.00  0.00    +0.000 A 
ENDROOT
BRANCH   1  12
ATOM      7  C   UNL     1      -0.232  10.414  19.894  0.00  0.00    +0.000 C 
ATOM      8  O   UNL     1      -0.692  10.377  21.037  0.00  0.00    +0.000 OA
ATOM      9  N   UNL     1       0.907   9.705  19.553  0.00  0.00    +0.000 N 
ATOM     10  C   UNL     1       1.492   8.765  20.517  0.00  0.00    +0.000 C 
ATOM     11  C   UNL     1       1.685   7.376  19.868  0.00  0.00    +0.000 C 
ATOM     12  N   UNL     1       2.433   7.498  18.599  0.00  0.00    +0.000 N 
ATOM     13  C   UNL     1       1.866   8.447  17.629  0.00  0.00    +0.000 C 
ATOM     14  C   UNL     1       1.673   9.818  18.303  0.00  0.00    +0.000 C 
BRANCH   7  16
ATOM     15  C   UNL     1      -1.994  10.178  18.154  0.00  0.00    +0.000 C 
ATOM     16  C   UNL     1      -0.988  11.145  18.779  0.00  0.00    +0.000 C 
ATOM     17  C   UNL     1      -1.710  12.387  19.305  0.00  0.00    +0.000 C 
ENDBRANCH   7  16
ENDBRANCH   1  12
BRANCH   4  18
ATOM     18  N   UNL     1       7.216   4.632  17.481  0.00  0.00    +0.000 N 
ATOM     19  O   UNL     1       7.418   4.347  16.291  0.00  0.00    +0.000 OA
ATOM     20  O   UNL     1       8.013   4.366  18.396  0.00  0.00    +0.000 OA
ENDBRANCH   4  18
BRANCH   5  21
ATOM     21  N   UNL     1       5.413   3.818  19.699  0.00  0.00    +0.000 N 
ATOM     22  H   UNL     1       5.469   4.036  20.699  0.00  0.00    +0.000 HD
BRANCH  21  23
ATOM     23  C   UNL     1       4.682   2.563  19.482  0.00  0.00    +0.000 C 
ATOM     24  C   UNL     1       5.173   1.542  20.513  0.00  0.00    +0.000 C 
BRANCH  23  25
ATOM     25  C   UNL     1       3.183   2.795  19.606  0.00  0.00    +0.000 A 
ATOM     26  C   UNL     1       2.620   3.119  20.851  0.00  0.00    +0.000 A 
ATOM     27  C   UNL     1       1.243   3.313  20.980  0.00  0.00    +0.000 A 
ATOM     28  C   UNL     1       0.409   3.183  19.871  0.00  0.00    +0.000 A 
ATOM     29  C   UNL     1       0.953   2.876  18.628  0.00  0.00    +0.000 A 
ATOM     30  C   UNL     1       2.329   2.694  18.493  0.00  0.00    +0.000 A 
ENDBRANCH  23  25
ENDBRANCH  21  23
ENDBRANCH   5  21
TORSDOF 6
ENDMDL
MODEL 5
REMARK VINA RESULT:      -8.1      2.199      4.259
REMARK  Name = 
REMARK  9 active torsions:
REMARK  status: ('A' for Active; 'I' for Inactive)
REMARK    1  A    between atoms: C_1  and  C_2
REMARK    2  A    between atoms: C_2  and  C_3
REMARK    3  A    between atoms: C_2  and  C_4
REMARK    4  A    between atoms: N_9  and  C_10
REMARK    5  A    between atoms: C_13  and  N_14
REMARK    6  A    between atoms: C_17  and  N_18
REMARK    7  A    between atoms: N_18  and  C_19
REMARK    8  A    between atoms: C_19  and  C_20
REMARK    9  A    between atoms: C_19  and  C_21
REMARK                            x       y       z     vdW  Elec       q    Type
REMARK                         _______ _______ _______ _____ _____    ______ ____
ROOT
ATOM      1  C   UNL     1       3.642   6.821  18.045  0.00  0.00    +0.000 A 
ATOM      2  C   UNL     1       4.665   7.441  17.322  0.00  0.00    +0.000 A 
ATOM      3  C   UNL     1       5.819   6.751  16.950  0.00  0.00    +0.000 A 
ATOM      4  C   UNL     1       5.970   5.395  17.285  0.00  0.00    +0.000 A 
ATOM      5  C   UNL     1       4.967   4.712  18.010  0.00  0.00    +0.000 A 
ATOM      6  C   UNL     1       3.832   5.465  18.377  0.00  0.00    +0.000 A 
ENDROOT
BRANCH   1  12
ATOM      7  C   UNL     1      -0.102  10.288  20.062  0.00  0.00    +0.000 C 
ATOM      8  O   UNL     1      -0.535  10.135  21.205  0.00  0.00    +0.000 OA
ATOM      9  N   UNL     1       1.020   9.606  19.620  0.00  0.00    +0.000 N 
ATOM     10  C   UNL     1       1.613   8.562  20.465  0.00  0.00    +0.000 C 
ATOM     11  C   UNL     1       1.770   7.249  19.667  0.00  0.00    +0.000 C 
ATOM     12  N   UNL     1       2.491   7.496  18.400  0.00  0.00    +0.000 N 
ATOM     13  C   UNL     1       1.916   8.549  17.551  0.00  0.00    +0.000 C 
ATOM     14  C   UNL     1       1.758   9.843  18.371  0.00  0.00    +0.000 C 
BRANCH   7  16
ATOM     15  C   UNL     1      -1.834  10.239  18.277  0.00  0.00    +0.000 C 
ATOM     16  C   UNL     1      -0.873  11.143  19.050  0.00  0.00    +0.000 C 
ATOM     17  C   UNL     1      -1.647  12.271  19.734  0.00  0.00    +0.000 C 
ENDBRANCH   7  16
ENDBRANCH   1  12
BRANCH   4  18
ATOM     18  N   UNL     1       7.221   4.735  16.867  0.00  0.00    +0.000 N 
ATOM     19  O   UNL     1       7.451   4.649  15.652  0.00  0.00    +0.000 OA
ATOM     20  O   UNL     1       7.988   4.303  17.743  0.00  0.00    +0.000 OA
ENDBRANCH   4  18
BRANCH   5  21
ATOM     21  N   UNL     1       4.984   3.325  18.223  0.00  0.00    +0.000 N 
ATOM     22  H   UNL     1       5.491   3.086  19.081  0.00  0.00    +0.000 HD
BRANCH  21  23
ATOM     23  C   UNL     1       3.786   2.487  18.077  0.00  0.00    +0.000 C 
ATOM     24  C   UNL     1       4.239   1.032  17.925  0.00  0.00    +0.000 C 
BRANCH  23  25
ATOM     25  C   UNL     1       2.871   2.657  19.281  0.00  0.00    +0.000 A 
ATOM     26  C   UNL     1       1.511   2.956  19.097  0.00  0.00    +0.000 A 
ATOM     27  C   UNL     1       0.667   3.135  20.196  0.00  0.00    +0.000 A 
ATOM     28  C   UNL     1       1.168   3.024  21.491  0.00  0.00    +0.000 A 
ATOM     29  C   UNL     1       2.510   2.715  21.690  0.00  0.00    +0.000 A 
ATOM     30  C   UNL     1       3.353   2.522  20.596  0.00  0.00    +0.000 A 
ENDBRANCH  23  25
ENDBRANCH  21  23
ENDBRANCH   5  21
TORSDOF 6
ENDMDL
MODEL 6
REMARK VINA RESULT:      -7.9      1.107      2.463
REMARK  Name = 
REMARK  9 active torsions:
REMARK  status: ('A' for Active; 'I' for Inactive)
REMARK    1  A    between atoms: C_1  and  C_2
REMARK    2  A    between atoms: C_2  and  C_3
REMARK    3  A    between atoms: C_2  and  C_4
REMARK    4  A    between atoms: N_9  and  C_10
REMARK    5  A    between atoms: C_13  and  N_14
REMARK    6  A    between atoms: C_17  and  N_18
REMARK    7  A    between atoms: N_18  and  C_19
REMARK    8  A    between atoms: C_19  and  C_20
REMARK    9  A    between atoms: C_19  and  C_21
REMARK                            x       y       z     vdW  Elec       q    Type
REMARK                         _______ _______ _______ _____ _____    ______ ____
ROOT
ATOM      1  C   UNL     1       2.548   6.529  19.161  0.00  0.00    +0.000 A 
ATOM      2  C   UNL     1       2.372   5.602  20.192  0.00  0.00    +0.000 A 
ATOM      3  C   UNL     1       2.783   4.275  20.061  0.00  0.00    +0.000 A 
ATOM      4  C   UNL     1       3.406   3.843  18.878  0.00  0.00    +0.000 A 
ATOM      5  C   UNL     1       3.618   4.735  17.802  0.00  0.00    +0.000 A 
ATOM      6  C   UNL     1       3.163   6.058  17.984  0.00  0.00    +0.000 A 
ENDROOT
BRANCH   1  12
ATOM      7  C   UNL     1      -0.161  11.296  19.363  0.00  0.00    +0.000 C 
ATOM      8  O   UNL     1      -0.324  11.959  18.337  0.00  0.00    +0.000 OA
ATOM      9  N   UNL     1       0.276   9.983  19.309  0.00  0.00    +0.000 N 
ATOM     10  C   UNL     1       0.708   9.415  18.026  0.00  0.00    +0.000 C 
ATOM     11  C   UNL     1       2.116   8.793  18.159  0.00  0.00    +0.000 C 
ATOM     12  N   UNL     1       2.158   7.846  19.294  0.00  0.00    +0.000 N 
ATOM     13  C   UNL     1       1.714   8.398  20.582  0.00  0.00    +0.000 C 
ATOM     14  C   UNL     1       0.316   9.022  20.421  0.00  0.00    +0.000 C 
BRANCH   7  16
ATOM     15  C   UNL     1       0.886  12.869  20.980  0.00  0.00    +0.000 C 
ATOM     16  C   UNL     1      -0.313  11.950  20.740  0.00  0.00    +0.000 C 
ATOM     17  C   UNL     1      -1.615  12.745  20.849  0.00  0.00    +0.000 C 
ENDBRANCH   7  16
ENDBRANCH   1  12
BRANCH   4  18
ATOM     18  N   UNL     1       3.805   2.424  18.808  0.00  0.00    +0.000 N 
ATOM     19  O   UNL     1       4.459   1.961  19.754  0.00  0.00    +0.000 OA
ATOM     20  O   UNL     1       3.465   1.759  17.816  0.00  0.00    +0.000 OA
ENDBRANCH   4  18
BRANCH   5  21
ATOM     21  N   UNL     1       4.383   4.409  16.672  0.00  0.00    +0.000 N 
ATOM     22  H   UNL     1       3.794   4.311  15.839  0.00  0.00    +0.000 HD
BRANCH  21  23
ATOM     23  C   UNL     1       5.640   5.093  16.342  0.00  0.00    +0.000 C 
ATOM     24  C   UNL     1       6.696   4.667  17.367  0.00  0.00    +0.000 C 
BRANCH  23  25
ATOM     25  C   UNL     1       6.075   4.748  14.926  0.00  0.00    +0.000 A 
ATOM     26  C   UNL     1       5.301   3.876  14.143  0.00  0.00    +0.000 A 
ATOM     27  C   UNL     1       5.702   3.535  12.849  0.00  0.00    +0.000 A 
ATOM     28  C   UNL     1       6.881   4.057  12.320  0.00  0.00    +0.000 A 
ATOM     29  C   UNL     1       7.652   4.933  13.078  0.00  0.00    +0.000 A 
ATOM     30  C   UNL     1       7.248   5.285  14.365  0.00  0.00    +0.000 A 
ENDBRANCH  23  25
ENDBRANCH  21  23
ENDBRANCH   5  21
TORSDOF 6
ENDMDL
MODEL 7
REMARK VINA RESULT:      -7.7      1.217      2.219
REMARK  Name = 
REMARK  9 active torsions:
REMARK  status: ('A' for Active; 'I' for Inactive)
REMARK    1  A    between atoms: C_1  and  C_2
REMARK    2  A    between atoms: C_2  and  C_3
REMARK    3  A    between atoms: C_2  and  C_4
REMARK    4  A    between atoms: N_9  and  C_10
REMARK    5  A    between atoms: C_13  and  N_14
REMARK    6  A    between atoms: C_17  and  N_18
REMARK    7  A    between atoms: N_18  and  C_19
REMARK    8  A    between atoms: C_19  and  C_20
REMARK    9  A    between atoms: C_19  and  C_21
REMARK                            x       y       z     vdW  Elec       q    Type
REMARK                         _______ _______ _______ _____ _____    ______ ____
ROOT
ATOM      1  C   UNL     1       2.098   6.610  20.152  0.00  0.00    +0.000 A 
ATOM      2  C   UNL     1       1.262   5.556  20.532  0.00  0.00    +0.000 A 
ATOM      3  C   UNL     1       1.644   4.224  20.368  0.00  0.00    +0.000 A 
ATOM      4  C   UNL     1       2.902   3.912  19.827  0.00  0.00    +0.000 A 
ATOM      5  C   UNL     1       3.794   4.934  19.430  0.00  0.00    +0.000 A 
ATOM      6  C   UNL     1       3.346   6.261  19.599  0.00  0.00    +0.000 A 
ENDROOT
BRANCH   1  12
ATOM      7  C   UNL     1      -0.546  11.397  20.588  0.00  0.00    +0.000 C 
ATOM      8  O   UNL     1      -0.765  12.078  19.584  0.00  0.00    +0.000 OA
ATOM      9  N   UNL     1      -0.127  10.081  20.488  0.00  0.00    +0.000 N 
ATOM     10  C   UNL     1       0.222   9.529  19.173  0.00  0.00    +0.000 C 
ATOM     11  C   UNL     1       1.629   8.892  19.211  0.00  0.00    +0.000 C 
ATOM     12  N   UNL     1       1.730   7.929  20.328  0.00  0.00    +0.000 N 
ATOM     13  C   UNL     1       1.370   8.464  21.649  0.00  0.00    +0.000 C 
ATOM     14  C   UNL     1      -0.030   9.103  21.582  0.00  0.00    +0.000 C 
BRANCH   7  16
ATOM     15  C   UNL     1      -0.069  13.460  21.893  0.00  0.00    +0.000 C 
ATOM     16  C   UNL     1      -0.608  12.032  21.981  0.00  0.00    +0.000 C 
ATOM     17  C   UNL     1      -2.033  12.041  22.537  0.00  0.00    +0.000 C 
ENDBRANCH   7  16
ENDBRANCH   1  12
BRANCH   4  18
ATOM     18  N   UNL     1       3.232   2.482  19.675  0.00  0.00    +0.000 N 
ATOM     19  O   UNL     1       4.286   2.076  20.187  0.00  0.00    +0.000 OA
ATOM     20  O   UNL     1       2.444   1.752  19.053  0.00  0.00    +0.000 OA
ENDBRANCH   4  18
BRANCH   5  21
ATOM     21  N   UNL     1       5.121   4.689  19.045  0.00  0.00    +0.000 N 
ATOM     22  H   UNL     1       5.237   3.732  18.696  0.00  0.00    +0.000 HD
BRANCH  21  23
ATOM     23  C   UNL     1       5.898   5.636  18.235  0.00  0.00    +0.000 C 
ATOM     24  C   UNL     1       7.276   5.797  18.884  0.00  0.00    +0.000 C 
BRANCH  23  25
ATOM     25  C   UNL     1       6.017   5.135  16.803  0.00  0.00    +0.000 A 
ATOM     26  C   UNL     1       7.181   5.390  16.061  0.00  0.00    +0.000 A 
ATOM     27  C   UNL     1       7.293   4.953  14.738  0.00  0.00    +0.000 A 
ATOM     28  C   UNL     1       6.243   4.261  14.138  0.00  0.00    +0.000 A 
ATOM     29  C   UNL     1       5.088   3.988  14.865  0.00  0.00    +0.000 A 
ATOM     30  C   UNL     1       4.979   4.411  16.189  0.00  0.00    +0.000 A 
ENDBRANCH  23  25
ENDBRANCH  21  23
ENDBRANCH   5  21
TORSDOF 6
ENDMDL
MODEL 8
REMARK VINA RESULT:      -7.7      1.131      2.103
REMARK  Name = 
REMARK  9 active torsions:
REMARK  status: ('A' for Active; 'I' for Inactive)
REMARK    1  A    between atoms: C_1  and  C_2
REMARK    2  A    between atoms: C_2  and  C_3
REMARK    3  A    between atoms: C_2  and  C_4
REMARK    4  A    between atoms: N_9  and  C_10
REMARK    5  A    between atoms: C_13  and  N_14
REMARK    6  A    between atoms: C_17  and  N_18
REMARK    7  A    between atoms: N_18  and  C_19
REMARK    8  A    between atoms: C_19  and  C_20
REMARK    9  A    between atoms: C_19  and  C_21
REMARK                            x       y       z     vdW  Elec       q    Type
REMARK                         _______ _______ _______ _____ _____    ______ ____
ROOT
ATOM      1  C   UNL     1       2.252   6.611  20.038  0.00  0.00    +0.000 A 
ATOM      2  C   UNL     1       1.429   5.534  20.381  0.00  0.00    +0.000 A 
ATOM      3  C   UNL     1       1.880   4.216  20.303  0.00  0.00    +0.000 A 
ATOM      4  C   UNL     1       3.193   3.942  19.890  0.00  0.00    +0.000 A 
ATOM      5  C   UNL     1       4.075   4.989  19.536  0.00  0.00    +0.000 A 
ATOM      6  C   UNL     1       3.558   6.300  19.613  0.00  0.00    +0.000 A 
ENDROOT
BRANCH   1  12
ATOM      7  C   UNL     1      -0.598  11.299  19.975  0.00  0.00    +0.000 C 
ATOM      8  O   UNL     1      -0.687  11.955  18.936  0.00  0.00    +0.000 OA
ATOM      9  N   UNL     1      -0.121   9.999  19.966  0.00  0.00    +0.000 N 
ATOM     10  C   UNL     1       0.440   9.441  18.729  0.00  0.00    +0.000 C 
ATOM     11  C   UNL     1       1.847   8.860  18.991  0.00  0.00    +0.000 C 
ATOM     12  N   UNL     1       1.814   7.917  20.130  0.00  0.00    +0.000 N 
ATOM     13  C   UNL     1       1.242   8.459  21.371  0.00  0.00    +0.000 C 
ATOM     14  C   UNL     1      -0.154   9.042  21.082  0.00  0.00    +0.000 C 
BRANCH   7  16
ATOM     15  C   UNL     1       0.100  13.096  21.547  0.00  0.00    +0.000 C 
ATOM     16  C   UNL     1      -0.891  11.952  21.330  0.00  0.00    +0.000 C 
ATOM     17  C   UNL     1      -2.325  12.477  21.408  0.00  0.00    +0.000 C 
ENDBRANCH   7  16
ENDBRANCH   1  12
BRANCH   4  18
ATOM     18  N   UNL     1       3.596   2.525  19.823  0.00  0.00    +0.000 N 
ATOM     19  O   UNL     1       2.856   1.743  19.207  0.00  0.00    +0.000 OA
ATOM     20  O   UNL     1       4.653   2.179  20.375  0.00  0.00    +0.000 OA
ENDBRANCH   4  18
BRANCH   5  21
ATOM     21  N   UNL     1       5.441   4.791  19.282  0.00  0.00    +0.000 N 
ATOM     22  H   UNL     1       5.625   3.838  18.955  0.00  0.00    +0.000 HD
BRANCH  21  23
ATOM     23  C   UNL     1       6.257   5.762  18.541  0.00  0.00    +0.000 C 
ATOM     24  C   UNL     1       7.687   5.695  19.087  0.00  0.00    +0.000 C 
BRANCH  23  25
ATOM     25  C   UNL     1       6.221   5.456  17.051  0.00  0.00    +0.000 A 
ATOM     26  C   UNL     1       5.317   6.131  16.214  0.00  0.00    +0.000 A 
ATOM     27  C   UNL     1       5.259   5.842  14.848  0.00  0.00    +0.000 A 
ATOM     28  C   UNL     1       6.100   4.875  14.301  0.00  0.00    +0.000 A 
ATOM     29  C   UNL     1       7.010   4.207  15.113  0.00  0.00    +0.000 A 
ATOM     30  C   UNL     1       7.078   4.502  16.475  0.00  0.00    +0.000 A 
ENDBRANCH  23  25
ENDBRANCH  21  23
ENDBRANCH   5  21
TORSDOF 6
ENDMDL
MODEL 9
REMARK VINA RESULT:      -7.6      1.099      2.189
REMARK  Name = 
REMARK  9 active torsions:
REMARK  status: ('A' for Active; 'I' for Inactive)
REMARK    1  A    between atoms: C_1  and  C_2
REMARK    2  A    between atoms: C_2  and  C_3
REMARK    3  A    between atoms: C_2  and  C_4
REMARK    4  A    between atoms: N_9  and  C_10
REMARK    5  A    between atoms: C_13  and  N_14
REMARK    6  A    between atoms: C_17  and  N_18
REMARK    7  A    between atoms: N_18  and  C_19
REMARK    8  A    between atoms: C_19  and  C_20
REMARK    9  A    between atoms: C_19  and  C_21
REMARK                            x       y       z     vdW  Elec       q    Type
REMARK                         _______ _______ _______ _____ _____    ______ ____
ROOT
ATOM      1  C   UNL     1       2.084   6.825  20.052  0.00  0.00    +0.000 A 
ATOM      2  C   UNL     1       1.459   5.947  20.942  0.00  0.00    +0.000 A 
ATOM      3  C   UNL     1       1.835   4.607  21.033  0.00  0.00    +0.000 A 
ATOM      4  C   UNL     1       2.877   4.110  20.233  0.00  0.00    +0.000 A 
ATOM      5  C   UNL     1       3.552   4.951  19.318  0.00  0.00    +0.000 A 
ATOM      6  C   UNL     1       3.115   6.290  19.254  0.00  0.00    +0.000 A 
ENDROOT
BRANCH   1  12
ATOM      7  C   UNL     1      -0.469  11.628  19.331  0.00  0.00    +0.000 C 
ATOM      8  O   UNL     1      -0.490  12.157  18.219  0.00  0.00    +0.000 OA
ATOM      9  N   UNL     1      -0.072  10.311  19.495  0.00  0.00    +0.000 N 
ATOM     10  C   UNL     1       0.486   9.575  18.354  0.00  0.00    +0.000 C 
ATOM     11  C   UNL     1       1.847   8.949  18.730  0.00  0.00    +0.000 C 
ATOM     12  N   UNL     1       1.726   8.156  19.972  0.00  0.00    +0.000 N 
ATOM     13  C   UNL     1       1.156   8.877  21.119  0.00  0.00    +0.000 C 
ATOM     14  C   UNL     1      -0.194   9.501  20.716  0.00  0.00    +0.000 C 
BRANCH   7  16
ATOM     15  C   UNL     1       0.542  13.126  21.041  0.00  0.00    +0.000 C 
ATOM     16  C   UNL     1      -0.756  12.457  20.588  0.00  0.00    +0.000 C 
ATOM     17  C   UNL     1      -1.833  13.513  20.335  0.00  0.00    +0.000 C 
ENDBRANCH   7  16
ENDBRANCH   1  12
BRANCH   4  18
ATOM     18  N   UNL     1       3.213   2.681  20.376  0.00  0.00    +0.000 N 
ATOM     19  O   UNL     1       3.335   2.230  21.525  0.00  0.00    +0.000 OA
ATOM     20  O   UNL     1       3.350   1.996  19.350  0.00  0.00    +0.000 OA
ENDBRANCH   4  18
BRANCH   5  21
ATOM     21  N   UNL     1       4.705   4.558  18.621  0.00  0.00    +0.000 N 
ATOM     22  H   UNL     1       4.510   3.776  17.988  0.00  0.00    +0.000 HD
BRANCH  21  23
ATOM     23  C   UNL     1       5.614   5.523  17.989  0.00  0.00    +0.000 C 
ATOM     24  C   UNL     1       6.893   5.591  18.830  0.00  0.00    +0.000 C 
BRANCH  23  25
ATOM     25  C   UNL     1       5.916   5.107  16.557  0.00  0.00    +0.000 A 
ATOM     26  C   UNL     1       4.985   4.346  15.832  0.00  0.00    +0.000 A 
ATOM     27  C   UNL     1       5.261   3.940  14.524  0.00  0.00    +0.000 A 
ATOM     28  C   UNL     1       6.471   4.283  13.924  0.00  0.00    +0.000 A 
ATOM     29  C   UNL     1       7.399   5.048  14.624  0.00  0.00    +0.000 A 
ATOM     30  C   UNL     1       7.120   5.466  15.925  0.00  0.00    +0.000 A 
ENDBRANCH  23  25
ENDBRANCH  21  23
ENDBRANCH   5  21
TORSDOF 6
ENDMDL
