MODEL 1
REMARK VINA RESULT:      -7.9      0.000      0.000
REMARK  Name = 
REMARK  10 active torsions:
REMARK  status: ('A' for Active; 'I' for Inactive)
REMARK    1  A    between atoms: C_2  and  O_3
REMARK    2  A    between atoms: C_2  and  C_4
REMARK    3  A    between atoms: C_4  and  C_5
REMARK    4  A    between atoms: C_5  and  C_6
REMARK    5  A    between atoms: C_6  and  C_7
REMARK    6  A    between atoms: C_8  and  C_9
REMARK    7  A    between atoms: C_9  and  C_10
REMARK    8  A    between atoms: C_14  and  N_15
REMARK    9  A    between atoms: N_15  and  S_16
REMARK   10  A    between atoms: S_16  and  C_19
REMARK                            x       y       z     vdW  Elec       q    Type
REMARK                         _______ _______ _______ _____ _____    ______ ____
ROOT
ATOM      1  C   UNL     1       6.070   5.801  16.353  0.00  0.00    +0.000 C 
ATOM      2  C   UNL     1       5.634   5.837  15.086  0.00  0.00    +0.000 C 
ATOM      3  C   UNL     1       5.481   4.478  14.505  0.00  0.00    +0.000 C 
ATOM      4  C   UNL     1       6.095   3.565  15.573  0.00  0.00    +0.000 C 
ATOM      5  C   UNL     1       6.279   4.404  16.859  0.00  0.00    +0.000 C 
ENDROOT
BRANCH   5   6
ATOM      6  N   UNL     1       5.262   4.035  17.838  0.00  0.00    +0.000 NA
ATOM      7  H   UNL     1       5.470   3.261  18.468  0.00  0.00    +0.000 HD
BRANCH   6   8
ATOM      8  S   UNL     1       3.619   4.313  17.696  0.00  0.00    +0.000 S 
ATOM      9  O   UNL     1       3.322   5.720  17.529  0.00  0.00    +0.000 OA
ATOM     10  O   UNL     1       3.170   3.354  16.713  0.00  0.00    +0.000 OA
BRANCH   8  11
ATOM     11  C   UNL     1       2.898   3.861  19.253  0.00  0.00    +0.000 A 
ATOM     12  C   UNL     1       1.571   4.218  19.525  0.00  0.00    +0.000 A 
ATOM     13  C   UNL     1       0.932   3.694  20.651  0.00  0.00    +0.000 A 
ATOM     14  C   UNL     1       1.616   2.805  21.473  0.00  0.00    +0.000 A 
ATOM     15  F   UNL     1       0.991   2.274  22.530  0.00  0.00    +0.000 F 
ATOM     16  C   UNL     1       2.927   2.431  21.194  0.00  0.00    +0.000 A 
ATOM     17  C   UNL     1       3.575   2.958  20.078  0.00  0.00    +0.000 A 
ENDBRANCH   8  11
ENDBRANCH   6   8
ENDBRANCH   5   6
BRANCH   1  18
ATOM     18  C   UNL     1       6.361   6.957  17.251  0.00  0.00    +0.000 C 
BRANCH  18  20
ATOM     19  C   UNL     1       8.405   7.832  18.433  0.00  0.00    +0.000 C 
ATOM     20  C   UNL     1       7.574   6.827  18.117  0.00  0.00    +0.000 C 
BRANCH  19  21
ATOM     21  C   UNL     1       8.322   9.250  17.929  0.00  0.00    +0.000 C 
BRANCH  21  22
ATOM     22  C   UNL     1       9.032  10.257  18.840  0.00  0.00    +0.000 C 
BRANCH  22  23
ATOM     23  C   UNL     1       9.996  11.152  18.067  0.00  0.00    +0.000 C 
BRANCH  23  25
ATOM     24  O   UNL     1       8.227  12.733  17.653  0.00  0.00    +0.000 OA
ATOM     25  C   UNL     1       9.423  12.511  17.764  0.00  0.00    +0.000 C 
BRANCH  25  26
ATOM     26  O   UNL     1      10.358  13.465  17.562  0.00  0.00    +0.000 OA
ATOM     27  H   UNL     1      11.273  13.127  17.545  0.00  0.00    +0.000 HD
ENDBRANCH  25  26
ENDBRANCH  23  25
ENDBRANCH  22  23
ENDBRANCH  21  22
ENDBRANCH  19  21
ENDBRANCH  18  20
ENDBRANCH   1  18
TORSDOF 10
ENDMDL
MODEL 2
REMARK VINA RESULT:      -7.8      3.851      6.952
REMARK  Name = 
REMARK  10 active torsions:
REMARK  status: ('A' for Active; 'I' for Inactive)
REMARK    1  A    between atoms: C_2  and  O_3
REMARK    2  A    between atoms: C_2  and  C_4
REMARK    3  A    between atoms: C_4  and  C_5
REMARK    4  A    between atoms: C_5  and  C_6
REMARK    5  A    between atoms: C_6  and  C_7
REMARK    6  A    between atoms: C_8  and  C_9
REMARK    7  A    between atoms: C_9  and  C_10
REMARK    8  A    between atoms: C_14  and  N_15
REMARK    9  A    between atoms: N_15  and  S_16
REMARK   10  A    between atoms: S_16  and  C_19
REMARK                            x       y       z     vdW  Elec       q    Type
REMARK                         _______ _______ _______ _____ _____    ______ ____
ROOT
ATOM      1  C   UNL     1       5.591   4.237  14.465  0.00  0.00    +0.000 C 
ATOM      2  C   UNL     1       5.933   3.576  13.350  0.00  0.00    +0.000 C 
ATOM      3  C   UNL     1       7.197   4.085  12.759  0.00  0.00    +0.000 C 
ATOM      4  C   UNL     1       7.500   5.335  13.593  0.00  0.00    +0.000 C 
ATOM      5  C   UNL     1       6.575   5.308  14.832  0.00  0.00    +0.000 C 
ENDROOT
BRANCH   5   6
ATOM      6  N   UNL     1       7.347   4.939  16.015  0.00  0.00    +0.000 NA
ATOM      7  H   UNL     1       7.612   3.961  16.120  0.00  0.00    +0.000 HD
BRANCH   6   8
ATOM      8  S   UNL     1       7.361   5.761  17.471  0.00  0.00    +0.000 S 
ATOM      9  O   UNL     1       8.041   5.014  18.507  0.00  0.00    +0.000 OA
ATOM     10  O   UNL     1       7.798   7.096  17.132  0.00  0.00    +0.000 OA
BRANCH   8  11
ATOM     11  C   UNL     1       5.671   5.871  18.000  0.00  0.00    +0.000 A 
ATOM     12  C   UNL     1       5.278   5.224  19.180  0.00  0.00    +0.000 A 
ATOM     13  C   UNL     1       4.011   5.472  19.713  0.00  0.00    +0.000 A 
ATOM     14  C   UNL     1       3.166   6.374  19.076  0.00  0.00    +0.000 A 
ATOM     15  F   UNL     1       1.967   6.639  19.608  0.00  0.00    +0.000 F 
ATOM     16  C   UNL     1       3.561   7.034  17.916  0.00  0.00    +0.000 A 
ATOM     17  C   UNL     1       4.820   6.785  17.373  0.00  0.00    +0.000 A 
ENDBRANCH   8  11
ENDBRANCH   6   8
ENDBRANCH   5   6
BRANCH   1  18
ATOM     18  C   UNL     1       4.385   4.026  15.318  0.00  0.00    +0.000 C 
BRANCH  18  20
ATOM     19  C   UNL     1       3.586   2.754  17.339  0.00  0.00    +0.000 C 
ATOM     20  C   UNL     1       4.541   3.057  16.447  0.00  0.00    +0.000 C 
BRANCH  19  21
ATOM     21  C   UNL     1       2.214   3.374  17.421  0.00  0.00    +0.000 C 
BRANCH  21  22
ATOM     22  C   UNL     1       1.329   2.739  18.499  0.00  0.00    +0.000 C 
BRANCH  22  23
ATOM     23  C   UNL     1       2.149   2.147  19.643  0.00  0.00    +0.000 C 
BRANCH  23  25
ATOM     24  O   UNL     1       2.592   2.686  21.948  0.00  0.00    +0.000 OA
ATOM     25  C   UNL     1       1.872   2.805  20.968  0.00  0.00    +0.000 C 
BRANCH  25  26
ATOM     26  O   UNL     1       0.712   3.498  21.001  0.00  0.00    +0.000 OA
ATOM     27  H   UNL     1       0.829   4.465  21.037  0.00  0.00    +0.000 HD
ENDBRANCH  25  26
ENDBRANCH  23  25
ENDBRANCH  22  23
ENDBRANCH  21  22
ENDBRANCH  19  21
ENDBRANCH  18  20
ENDBRANCH   1  18
TORSDOF 10
ENDMDL
MODEL 3
REMARK VINA RESULT:      -7.8      3.142      3.672
REMARK  Name = 
REMARK  10 active torsions:
REMARK  status: ('A' for Active; 'I' for Inactive)
REMARK    1  A    between atoms: C_2  and  O_3
REMARK    2  A    between atoms: C_2  and  C_4
REMARK    3  A    between atoms: C_4  and  C_5
REMARK    4  A    between atoms: C_5  and  C_6
REMARK    5  A    between atoms: C_6  and  C_7
REMARK    6  A    between atoms: C_8  and  C_9
REMARK    7  A    between atoms: C_9  and  C_10
REMARK    8  A    between atoms: C_14  and  N_15
REMARK    9  A    between atoms: N_15  and  S_16
REMARK   10  A    between atoms: S_16  and  C_19
REMARK                            x       y       z     vdW  Elec       q    Type
REMARK                         _______ _______ _______ _____ _____    ______ ____
ROOT
ATOM      1  C   UNL     1       6.393   5.998  16.592  0.00  0.00    +0.000 C 
ATOM      2  C   UNL     1       6.688   5.337  15.463  0.00  0.00    +0.000 C 
ATOM      3  C   UNL     1       5.983   4.032  15.375  0.00  0.00    +0.000 C 
ATOM      4  C   UNL     1       5.333   3.885  16.755  0.00  0.00    +0.000 C 
ATOM      5  C   UNL     1       5.423   5.257  17.464  0.00  0.00    +0.000 C 
ENDROOT
BRANCH   5   6
ATOM      6  N   UNL     1       4.111   5.897  17.465  0.00  0.00    +0.000 NA
ATOM      7  H   UNL     1       3.999   6.747  16.915  0.00  0.00    +0.000 HD
BRANCH   6   8
ATOM      8  S   UNL     1       2.956   5.762  18.667  0.00  0.00    +0.000 S 
ATOM      9  O   UNL     1       1.811   4.991  18.231  0.00  0.00    +0.000 OA
ATOM     10  O   UNL     1       3.696   5.362  19.841  0.00  0.00    +0.000 OA
BRANCH   8  11
ATOM     11  C   UNL     1       2.340   7.400  18.956  0.00  0.00    +0.000 A 
ATOM     12  C   UNL     1       2.168   8.271  17.870  0.00  0.00    +0.000 A 
ATOM     13  C   UNL     1       1.496   9.481  18.056  0.00  0.00    +0.000 A 
ATOM     14  C   UNL     1       0.986   9.793  19.312  0.00  0.00    +0.000 A 
ATOM     15  F   UNL     1       0.309  10.935  19.480  0.00  0.00    +0.000 F 
ATOM     16  C   UNL     1       1.135   8.922  20.387  0.00  0.00    +0.000 A 
ATOM     17  C   UNL     1       1.815   7.718  20.211  0.00  0.00    +0.000 A 
ENDBRANCH   8  11
ENDBRANCH   6   8
ENDBRANCH   5   6
BRANCH   1  18
ATOM     18  C   UNL     1       6.920   7.320  17.039  0.00  0.00    +0.000 C 
BRANCH  18  20
ATOM     19  C   UNL     1       8.574   8.350  18.634  0.00  0.00    +0.000 C 
ATOM     20  C   UNL     1       7.894   7.289  18.175  0.00  0.00    +0.000 C 
BRANCH  19  21
ATOM     21  C   UNL     1       8.547   9.743  18.061  0.00  0.00    +0.000 C 
BRANCH  21  22
ATOM     22  C   UNL     1       9.615  10.664  18.661  0.00  0.00    +0.000 C 
BRANCH  22  23
ATOM     23  C   UNL     1       9.605  12.049  18.020  0.00  0.00    +0.000 C 
BRANCH  23  25
ATOM     24  O   UNL     1      11.090  13.402  16.690  0.00  0.00    +0.000 OA
ATOM     25  C   UNL     1      10.925  12.418  17.395  0.00  0.00    +0.000 C 
BRANCH  25  26
ATOM     26  O   UNL     1      11.910  11.524  17.632  0.00  0.00    +0.000 OA
ATOM     27  H   UNL     1      11.957  11.223  18.559  0.00  0.00    +0.000 HD
ENDBRANCH  25  26
ENDBRANCH  23  25
ENDBRANCH  22  23
ENDBRANCH  21  22
ENDBRANCH  19  21
ENDBRANCH  18  20
ENDBRANCH   1  18
TORSDOF 10
ENDMDL
MODEL 4
REMARK VINA RESULT:      -7.8      3.186      3.828
REMARK  Name = 
REMARK  10 active torsions:
REMARK  status: ('A' for Active; 'I' for Inactive)
REMARK    1  A    between atoms: C_2  and  O_3
REMARK    2  A    between atoms: C_2  and  C_4
REMARK    3  A    between atoms: C_4  and  C_5
REMARK    4  A    between atoms: C_5  and  C_6
REMARK    5  A    between atoms: C_6  and  C_7
REMARK    6  A    between atoms: C_8  and  C_9
REMARK    7  A    between atoms: C_9  and  C_10
REMARK    8  A    between atoms: C_14  and  N_15
REMARK    9  A    between atoms: N_15  and  S_16
REMARK   10  A    between atoms: S_16  and  C_19
REMARK                            x       y       z     vdW  Elec       q    Type
REMARK                         _______ _______ _______ _____ _____    ______ ____
ROOT
ATOM      1  C   UNL     1       7.007   5.979  17.378  0.00  0.00    +0.000 C 
ATOM      2  C   UNL     1       7.288   5.468  16.171  0.00  0.00    +0.000 C 
ATOM      3  C   UNL     1       6.365   4.365  15.798  0.00  0.00    +0.000 C 
ATOM      4  C   UNL     1       5.561   4.126  17.081  0.00  0.00    +0.000 C 
ATOM      5  C   UNL     1       5.831   5.315  18.033  0.00  0.00    +0.000 C 
ENDROOT
BRANCH   5   6
ATOM      6  N   UNL     1       4.669   6.198  18.060  0.00  0.00    +0.000 NA
ATOM      7  H   UNL     1       4.835   7.201  18.002  0.00  0.00    +0.000 HD
BRANCH   6   8
ATOM      8  S   UNL     1       3.183   5.838  18.737  0.00  0.00    +0.000 S 
ATOM      9  O   UNL     1       2.383   4.999  17.871  0.00  0.00    +0.000 OA
ATOM     10  O   UNL     1       3.489   5.411  20.083  0.00  0.00    +0.000 OA
BRANCH   8  11
ATOM     11  C   UNL     1       2.301   7.373  18.852  0.00  0.00    +0.000 A 
ATOM     12  C   UNL     1       1.731   7.749  20.077  0.00  0.00    +0.000 A 
ATOM     13  C   UNL     1       1.217   9.038  20.233  0.00  0.00    +0.000 A 
ATOM     14  C   UNL     1       1.299   9.938  19.177  0.00  0.00    +0.000 A 
ATOM     15  F   UNL     1       0.841  11.185  19.339  0.00  0.00    +0.000 F 
ATOM     16  C   UNL     1       1.883   9.577  17.966  0.00  0.00    +0.000 A 
ATOM     17  C   UNL     1       2.389   8.289  17.799  0.00  0.00    +0.000 A 
ENDBRANCH   8  11
ENDBRANCH   6   8
ENDBRANCH   5   6
BRANCH   1  18
ATOM     18  C   UNL     1       7.722   7.076  18.094  0.00  0.00    +0.000 C 
BRANCH  18  20
ATOM     19  C   UNL     1       8.219   9.540  17.938  0.00  0.00    +0.000 C 
ATOM     20  C   UNL     1       7.554   8.450  17.525  0.00  0.00    +0.000 C 
BRANCH  19  21
ATOM     21  C   UNL     1       9.194   9.608  19.084  0.00  0.00    +0.000 C 
BRANCH  21  22
ATOM     22  C   UNL     1       9.382  11.027  19.633  0.00  0.00    +0.000 C 
BRANCH  22  23
ATOM     23  C   UNL     1      10.804  11.541  19.422  0.00  0.00    +0.000 C 
BRANCH  23  25
ATOM     24  O   UNL     1      10.352  13.050  17.601  0.00  0.00    +0.000 OA
ATOM     25  C   UNL     1      11.019  12.133  18.055  0.00  0.00    +0.000 C 
BRANCH  25  26
ATOM     26  O   UNL     1      11.986  11.518  17.340  0.00  0.00    +0.000 OA
ATOM     27  H   UNL     1      12.648  11.053  17.885  0.00  0.00    +0.000 HD
ENDBRANCH  25  26
ENDBRANCH  23  25
ENDBRANCH  22  23
ENDBRANCH  21  22
ENDBRANCH  19  21
ENDBRANCH  18  20
ENDBRANCH   1  18
TORSDOF 10
ENDMDL
MODEL 5
REMARK VINA RESULT:      -7.8      2.213      2.702
REMARK  Name = 
REMARK  10 active torsions:
REMARK  status: ('A' for Active; 'I' for Inactive)
REMARK    1  A    between atoms: C_2  and  O_3
REMARK    2  A    between atoms: C_2  and  C_4
REMARK    3  A    between atoms: C_4  and  C_5
REMARK    4  A    between atoms: C_5  and  C_6
REMARK    5  A    between atoms: C_6  and  C_7
REMARK    6  A    between atoms: C_8  and  C_9
REMARK    7  A    between atoms: C_9  and  C_10
REMARK    8  A    between atoms: C_14  and  N_15
REMARK    9  A    between atoms: N_15  and  S_16
REMARK   10  A    between atoms: S_16  and  C_19
REMARK                            x       y       z     vdW  Elec       q    Type
REMARK                         _______ _______ _______ _____ _____    ______ ____
ROOT
ATOM      1  C   UNL     1       6.411   5.557  16.513  0.00  0.00    +0.000 C 
ATOM      2  C   UNL     1       7.002   5.689  15.317  0.00  0.00    +0.000 C 
ATOM      3  C   UNL     1       6.777   4.507  14.445  0.00  0.00    +0.000 C 
ATOM      4  C   UNL     1       6.098   3.500  15.380  0.00  0.00    +0.000 C 
ATOM      5  C   UNL     1       5.670   4.261  16.657  0.00  0.00    +0.000 C 
ENDROOT
BRANCH   5   6
ATOM      6  N   UNL     1       4.226   4.469  16.645  0.00  0.00    +0.000 NA
ATOM      7  H   UNL     1       3.868   5.275  16.133  0.00  0.00    +0.000 HD
BRANCH   6   8
ATOM      8  S   UNL     1       3.147   3.921  17.799  0.00  0.00    +0.000 S 
ATOM      9  O   UNL     1       1.998   3.275  17.201  0.00  0.00    +0.000 OA
ATOM     10  O   UNL     1       3.965   3.210  18.754  0.00  0.00    +0.000 OA
BRANCH   8  11
ATOM     11  C   UNL     1       2.507   5.362  18.612  0.00  0.00    +0.000 A 
ATOM     12  C   UNL     1       2.062   5.263  19.938  0.00  0.00    +0.000 A 
ATOM     13  C   UNL     1       1.753   6.423  20.650  0.00  0.00    +0.000 A 
ATOM     14  C   UNL     1       1.912   7.663  20.040  0.00  0.00    +0.000 A 
ATOM     15  F   UNL     1       1.651   8.776  20.736  0.00  0.00    +0.000 F 
ATOM     16  C   UNL     1       2.374   7.767  18.732  0.00  0.00    +0.000 A 
ATOM     17  C   UNL     1       2.675   6.613  18.010  0.00  0.00    +0.000 A 
ENDBRANCH   8  11
ENDBRANCH   6   8
ENDBRANCH   5   6
BRANCH   1  18
ATOM     18  C   UNL     1       6.433   6.521  17.652  0.00  0.00    +0.000 C 
BRANCH  18  20
ATOM     19  C   UNL     1       8.475   7.670  18.574  0.00  0.00    +0.000 C 
ATOM     20  C   UNL     1       7.705   6.580  18.438  0.00  0.00    +0.000 C 
BRANCH  19  21
ATOM     21  C   UNL     1       8.254   9.006  17.914  0.00  0.00    +0.000 C 
BRANCH  21  22
ATOM     22  C   UNL     1       8.665  10.190  18.796  0.00  0.00    +0.000 C 
BRANCH  22  23
ATOM     23  C   UNL     1       9.440  11.248  18.014  0.00  0.00    +0.000 C 
BRANCH  23  25
ATOM     24  O   UNL     1      11.193  11.439  19.653  0.00  0.00    +0.000 OA
ATOM     25  C   UNL     1      10.864  11.397  18.478  0.00  0.00    +0.000 C 
BRANCH  25  26
ATOM     26  O   UNL     1      11.754  11.544  17.471  0.00  0.00    +0.000 OA
ATOM     27  H   UNL     1      12.614  11.115  17.637  0.00  0.00    +0.000 HD
ENDBRANCH  25  26
ENDBRANCH  23  25
ENDBRANCH  22  23
ENDBRANCH  21  22
ENDBRANCH  19  21
ENDBRANCH  18  20
ENDBRANCH   1  18
TORSDOF 10
ENDMDL
MODEL 6
REMARK VINA RESULT:      -7.7      3.874      5.422
REMARK  Name = 
REMARK  10 active torsions:
REMARK  status: ('A' for Active; 'I' for Inactive)
REMARK    1  A    between atoms: C_2  and  O_3
REMARK    2  A    between atoms: C_2  and  C_4
REMARK    3  A    between atoms: C_4  and  C_5
REMARK    4  A    between atoms: C_5  and  C_6
REMARK    5  A    between atoms: C_6  and  C_7
REMARK    6  A    between atoms: C_8  and  C_9
REMARK    7  A    between atoms: C_9  and  C_10
REMARK    8  A    between atoms: C_14  and  N_15
REMARK    9  A    between atoms: N_15  and  S_16
REMARK   10  A    between atoms: S_16  and  C_19
REMARK                            x       y       z     vdW  Elec       q    Type
REMARK                         _______ _______ _______ _____ _____    ______ ____
ROOT
ATOM      1  C   UNL     1       4.459   3.088  17.884  0.00  0.00    +0.000 C 
ATOM      2  C   UNL     1       3.536   2.122  17.770  0.00  0.00    +0.000 C 
ATOM      3  C   UNL     1       2.961   1.736  19.085  0.00  0.00    +0.000 C 
ATOM      4  C   UNL     1       3.834   2.494  20.090  0.00  0.00    +0.000 C 
ATOM      5  C   UNL     1       4.663   3.535  19.301  0.00  0.00    +0.000 C 
ENDROOT
BRANCH   5   6
ATOM      6  N   UNL     1       4.117   4.870  19.522  0.00  0.00    +0.000 NA
ATOM      7  H   UNL     1       4.744   5.582  19.894  0.00  0.00    +0.000 HD
BRANCH   6   8
ATOM      8  S   UNL     1       2.508   5.237  19.792  0.00  0.00    +0.000 S 
ATOM      9  O   UNL     1       1.634   4.539  18.874  0.00  0.00    +0.000 OA
ATOM     10  O   UNL     1       2.333   5.087  21.218  0.00  0.00    +0.000 OA
BRANCH   8  11
ATOM     11  C   UNL     1       2.317   6.959  19.409  0.00  0.00    +0.000 A 
ATOM     12  C   UNL     1       2.626   7.414  18.119  0.00  0.00    +0.000 A 
ATOM     13  C   UNL     1       2.286   8.717  17.748  0.00  0.00    +0.000 A 
ATOM     14  C   UNL     1       1.625   9.536  18.656  0.00  0.00    +0.000 A 
ATOM     15  F   UNL     1       1.267  10.771  18.287  0.00  0.00    +0.000 F 
ATOM     16  C   UNL     1       1.298   9.081  19.930  0.00  0.00    +0.000 A 
ATOM     17  C   UNL     1       1.643   7.786  20.312  0.00  0.00    +0.000 A 
ENDBRANCH   8  11
ENDBRANCH   6   8
ENDBRANCH   5   6
BRANCH   1  18
ATOM     18  C   UNL     1       5.263   3.714  16.794  0.00  0.00    +0.000 C 
BRANCH  18  20
ATOM     19  C   UNL     1       5.145   5.977  15.696  0.00  0.00    +0.000 C 
ATOM     20  C   UNL     1       4.586   4.801  16.020  0.00  0.00    +0.000 C 
BRANCH  19  21
ATOM     21  C   UNL     1       6.515   6.455  16.102  0.00  0.00    +0.000 C 
BRANCH  21  22
ATOM     22  C   UNL     1       6.538   7.121  17.482  0.00  0.00    +0.000 C 
BRANCH  22  23
ATOM     23  C   UNL     1       7.817   6.806  18.252  0.00  0.00    +0.000 C 
BRANCH  23  25
ATOM     24  O   UNL     1       7.375   5.485  20.217  0.00  0.00    +0.000 OA
ATOM     25  C   UNL     1       7.726   5.531  19.047  0.00  0.00    +0.000 C 
BRANCH  25  26
ATOM     26  O   UNL     1       8.128   4.434  18.368  0.00  0.00    +0.000 OA
ATOM     27  H   UNL     1       7.404   3.825  18.134  0.00  0.00    +0.000 HD
ENDBRANCH  25  26
ENDBRANCH  23  25
ENDBRANCH  22  23
ENDBRANCH  21  22
ENDBRANCH  19  21
ENDBRANCH  18  20
ENDBRANCH   1  18
TORSDOF 10
ENDMDL
MODEL 7
REMARK VINA RESULT:      -7.7      5.466      8.486
REMARK  Name = 
REMARK  10 active torsions:
REMARK  status: ('A' for Active; 'I' for Inactive)
REMARK    1  A    between atoms: C_2  and  O_3
REMARK    2  A    between atoms: C_2  and  C_4
REMARK    3  A    between atoms: C_4  and  C_5
REMARK    4  A    between atoms: C_5  and  C_6
REMARK    5  A    between atoms: C_6  and  C_7
REMARK    6  A    between atoms: C_8  and  C_9
REMARK    7  A    between atoms: C_9  and  C_10
REMARK    8  A    between atoms: C_14  and  N_15
REMARK    9  A    between atoms: N_15  and  S_16
REMARK   10  A    between atoms: S_16  and  C_19
REMARK                            x       y       z     vdW  Elec       q    Type
REMARK                         _______ _______ _______ _____ _____    ______ ____
ROOT
ATOM      1  C   UNL     1       2.746   6.328  19.440  0.00  0.00    +0.000 C 
ATOM      2  C   UNL     1       3.638   6.508  18.455  0.00  0.00    +0.000 C 
ATOM      3  C   UNL     1       3.375   7.745  17.677  0.00  0.00    +0.000 C 
ATOM      4  C   UNL     1       2.024   8.225  18.219  0.00  0.00    +0.000 C 
ATOM      5  C   UNL     1       1.724   7.424  19.508  0.00  0.00    +0.000 C 
ENDROOT
BRANCH   5   6
ATOM      6  N   UNL     1       1.932   8.274  20.675  0.00  0.00    +0.000 NA
ATOM      7  H   UNL     1       2.771   8.116  21.232  0.00  0.00    +0.000 HD
BRANCH   6   8
ATOM      8  S   UNL     1       0.736   9.063  21.538  0.00  0.00    +0.000 S 
ATOM      9  O   UNL     1      -0.439   8.238  21.711  0.00  0.00    +0.000 OA
ATOM     10  O   UNL     1       1.417   9.610  22.689  0.00  0.00    +0.000 OA
BRANCH   8  11
ATOM     11  C   UNL     1       0.211  10.427  20.531  0.00  0.00    +0.000 A 
ATOM     12  C   UNL     1       0.972  11.605  20.519  0.00  0.00    +0.000 A 
ATOM     13  C   UNL     1       0.686  12.600  19.582  0.00  0.00    +0.000 A 
ATOM     14  C   UNL     1      -0.335  12.398  18.659  0.00  0.00    +0.000 A 
ATOM     15  F   UNL     1      -0.583  13.337  17.738  0.00  0.00    +0.000 F 
ATOM     16  C   UNL     1      -1.078  11.222  18.655  0.00  0.00    +0.000 A 
ATOM     17  C   UNL     1      -0.806  10.228  19.593  0.00  0.00    +0.000 A 
ENDBRANCH   8  11
ENDBRANCH   6   8
ENDBRANCH   5   6
BRANCH   1  18
ATOM     18  C   UNL     1       2.674   5.196  20.410  0.00  0.00    +0.000 C 
BRANCH  18  20
ATOM     19  C   UNL     1       0.762   3.632  19.918  0.00  0.00    +0.000 C 
ATOM     20  C   UNL     1       1.313   4.617  20.643  0.00  0.00    +0.000 C 
BRANCH  19  21
ATOM     21  C   UNL     1       1.364   2.976  18.702  0.00  0.00    +0.000 C 
BRANCH  21  22
ATOM     22  C   UNL     1       2.330   1.837  19.046  0.00  0.00    +0.000 C 
BRANCH  22  23
ATOM     23  C   UNL     1       3.437   1.688  18.006  0.00  0.00    +0.000 C 
BRANCH  23  25
ATOM     24  O   UNL     1       4.344   3.626  16.902  0.00  0.00    +0.000 OA
ATOM     25  C   UNL     1       4.306   2.912  17.892  0.00  0.00    +0.000 C 
BRANCH  25  26
ATOM     26  O   UNL     1       5.096   3.122  18.968  0.00  0.00    +0.000 OA
ATOM     27  H   UNL     1       4.927   2.511  19.710  0.00  0.00    +0.000 HD
ENDBRANCH  25  26
ENDBRANCH  23  25
ENDBRANCH  22  23
ENDBRANCH  21  22
ENDBRANCH  19  21
ENDBRANCH  18  20
ENDBRANCH   1  18
TORSDOF 10
ENDMDL
MODEL 8
REMARK VINA RESULT:      -7.7      1.951      2.370
REMARK  Name = 
REMARK  10 active torsions:
REMARK  status: ('A' for Active; 'I' for Inactive)
REMARK    1  A    between atoms: C_2  and  O_3
REMARK    2  A    between atoms: C_2  and  C_4
REMARK    3  A    between atoms: C_4  and  C_5
REMARK    4  A    between atoms: C_5  and  C_6
REMARK    5  A    between atoms: C_6  and  C_7
REMARK    6  A    between atoms: C_8  and  C_9
REMARK    7  A    between atoms: C_9  and  C_10
REMARK    8  A    between atoms: C_14  and  N_15
REMARK    9  A    between atoms: N_15  and  S_16
REMARK   10  A    between atoms: S_16  and  C_19
REMARK                            x       y       z     vdW  Elec       q    Type
REMARK                         _______ _______ _______ _____ _____    ______ ____
ROOT
ATOM      1  C   UNL     1       6.102   5.637  16.210  0.00  0.00    +0.000 C 
ATOM      2  C   UNL     1       6.017   5.812  14.884  0.00  0.00    +0.000 C 
ATOM      3  C   UNL     1       5.917   4.523  14.151  0.00  0.00    +0.000 C 
ATOM      4  C   UNL     1       6.157   3.475  15.243  0.00  0.00    +0.000 C 
ATOM      5  C   UNL     1       6.063   4.192  16.611  0.00  0.00    +0.000 C 
ENDROOT
BRANCH   5   6
ATOM      6  N   UNL     1       4.800   3.853  17.258  0.00  0.00    +0.000 NA
ATOM      7  H   UNL     1       3.939   4.134  16.792  0.00  0.00    +0.000 HD
BRANCH   6   8
ATOM      8  S   UNL     1       4.579   3.588  18.895  0.00  0.00    +0.000 S 
ATOM      9  O   UNL     1       4.046   2.269  19.161  0.00  0.00    +0.000 OA
ATOM     10  O   UNL     1       5.821   4.006  19.504  0.00  0.00    +0.000 OA
BRANCH   8  11
ATOM     11  C   UNL     1       3.319   4.721  19.420  0.00  0.00    +0.000 A 
ATOM     12  C   UNL     1       2.483   4.372  20.490  0.00  0.00    +0.000 A 
ATOM     13  C   UNL     1       1.632   5.331  21.042  0.00  0.00    +0.000 A 
ATOM     14  C   UNL     1       1.641   6.626  20.535  0.00  0.00    +0.000 A 
ATOM     15  F   UNL     1       0.852   7.554  21.089  0.00  0.00    +0.000 F 
ATOM     16  C   UNL     1       2.484   6.982  19.486  0.00  0.00    +0.000 A 
ATOM     17  C   UNL     1       3.329   6.027  18.923  0.00  0.00    +0.000 A 
ENDBRANCH   8  11
ENDBRANCH   6   8
ENDBRANCH   5   6
BRANCH   1  18
ATOM     18  C   UNL     1       6.237   6.686  17.262  0.00  0.00    +0.000 C 
BRANCH  18  20
ATOM     19  C   UNL     1       8.265   7.621  18.426  0.00  0.00    +0.000 C 
ATOM     20  C   UNL     1       7.454   6.595  18.128  0.00  0.00    +0.000 C 
BRANCH  19  21
ATOM     21  C   UNL     1       8.155   9.028  17.898  0.00  0.00    +0.000 C 
BRANCH  21  22
ATOM     22  C   UNL     1       8.856  10.063  18.784  0.00  0.00    +0.000 C 
BRANCH  22  23
ATOM     23  C   UNL     1       9.875  10.890  18.005  0.00  0.00    +0.000 C 
BRANCH  23  25
ATOM     24  O   UNL     1      10.938  11.566  20.057  0.00  0.00    +0.000 OA
ATOM     25  C   UNL     1      10.691  11.800  18.884  0.00  0.00    +0.000 C 
BRANCH  25  26
ATOM     26  O   UNL     1      11.079  12.942  18.276  0.00  0.00    +0.000 OA
ATOM     27  H   UNL     1      11.570  12.802  17.445  0.00  0.00    +0.000 HD
ENDBRANCH  25  26
ENDBRANCH  23  25
ENDBRANCH  22  23
ENDBRANCH  21  22
ENDBRANCH  19  21
ENDBRANCH  18  20
ENDBRANCH   1  18
TORSDOF 10
ENDMDL
MODEL 9
REMARK VINA RESULT:      -7.6      4.650      6.827
REMARK  Name = 
REMARK  10 active torsions:
REMARK  status: ('A' for Active; 'I' for Inactive)
REMARK    1  A    between atoms: C_2  and  O_3
REMARK    2  A    between atoms: C_2  and  C_4
REMARK    3  A    between atoms: C_4  and  C_5
REMARK    4  A    between atoms: C_5  and  C_6
REMARK    5  A    between atoms: C_6  and  C_7
REMARK    6  A    between atoms: C_8  and  C_9
REMARK    7  A    between atoms: C_9  and  C_10
REMARK    8  A    between atoms: C_14  and  N_15
REMARK    9  A    between atoms: N_15  and  S_16
REMARK   10  A    between atoms: S_16  and  C_19
REMARK                            x       y       z     vdW  Elec       q    Type
REMARK                         _______ _______ _______ _____ _____    ______ ____
ROOT
ATOM      1  C   UNL     1       1.941   5.343  19.076  0.00  0.00    +0.000 C 
ATOM      2  C   UNL     1       2.388   5.593  20.314  0.00  0.00    +0.000 C 
ATOM      3  C   UNL     1       2.078   4.488  21.258  0.00  0.00    +0.000 C 
ATOM      4  C   UNL     1       1.169   3.566  20.439  0.00  0.00    +0.000 C 
ATOM      5  C   UNL     1       1.258   4.012  18.960  0.00  0.00    +0.000 C 
ENDROOT
BRANCH   5   6
ATOM      6  N   UNL     1       2.068   3.061  18.206  0.00  0.00    +0.000 NA
ATOM      7  H   UNL     1       1.584   2.416  17.584  0.00  0.00    +0.000 HD
BRANCH   6   8
ATOM      8  S   UNL     1       3.585   2.507  18.641  0.00  0.00    +0.000 S 
ATOM      9  O   UNL     1       3.748   2.450  20.078  0.00  0.00    +0.000 OA
ATOM     10  O   UNL     1       3.784   1.321  17.840  0.00  0.00    +0.000 OA
BRANCH   8  11
ATOM     11  C   UNL     1       4.743   3.729  18.083  0.00  0.00    +0.000 A 
ATOM     12  C   UNL     1       4.730   4.125  16.738  0.00  0.00    +0.000 A 
ATOM     13  C   UNL     1       5.490   5.225  16.335  0.00  0.00    +0.000 A 
ATOM     14  C   UNL     1       6.232   5.926  17.280  0.00  0.00    +0.000 A 
ATOM     15  F   UNL     1       6.930   7.002  16.899  0.00  0.00    +0.000 F 
ATOM     16  C   UNL     1       6.231   5.549  18.619  0.00  0.00    +0.000 A 
ATOM     17  C   UNL     1       5.484   4.446  19.027  0.00  0.00    +0.000 A 
ENDBRANCH   8  11
ENDBRANCH   6   8
ENDBRANCH   5   6
BRANCH   1  18
ATOM     18  C   UNL     1       2.045   6.221  17.873  0.00  0.00    +0.000 C 
BRANCH  18  20
ATOM     19  C   UNL     1       2.562   8.680  18.030  0.00  0.00    +0.000 C 
ATOM     20  C   UNL     1       2.959   7.399  17.998  0.00  0.00    +0.000 C 
BRANCH  19  21
ATOM     21  C   UNL     1       1.149   9.180  17.876  0.00  0.00    +0.000 C 
BRANCH  21  22
ATOM     22  C   UNL     1       0.701  10.089  19.026  0.00  0.00    +0.000 C 
BRANCH  22  23
ATOM     23  C   UNL     1      -0.819  10.186  19.123  0.00  0.00    +0.000 C 
BRANCH  23  25
ATOM     24  O   UNL     1      -2.067   9.708  17.119  0.00  0.00    +0.000 OA
ATOM     25  C   UNL     1      -1.473  10.522  17.809  0.00  0.00    +0.000 C 
BRANCH  25  26
ATOM     26  O   UNL     1      -1.293  11.804  17.422  0.00  0.00    +0.000 OA
ATOM     27  H   UNL     1      -1.125  12.421  18.159  0.00  0.00    +0.000 HD
ENDBRANCH  25  26
ENDBRANCH  23  25
ENDBRANCH  22  23
ENDBRANCH  21  22
ENDBRANCH  19  21
ENDBRANCH  18  20
ENDBRANCH   1  18
TORSDOF 10
ENDMDL
