MODEL 1
REMARK VINA RESULT:      -8.8      0.000      0.000
REMARK  Name = 
REMARK  3 active torsions:
REMARK  status: ('A' for Active; 'I' for Inactive)
REMARK    1  A    between atoms: C_2  and  C_3
REMARK    2  A    between atoms: C_3  and  C_4
REMARK    3  A    between atoms: C_15  and  C_16
REMARK                            x       y       z     vdW  Elec       q    Type
REMARK                         _______ _______ _______ _____ _____    ______ ____
ROOT
ATOM      1  O   UNL     1       2.306   5.913  20.725  0.00  0.00    +0.000 OA
ATOM      2  C   UNL     1       2.230   6.749  19.822  0.00  0.00    +0.000 C 
ATOM      3  N   UNL     1       1.708   8.006  20.044  0.00  0.00    +0.000 N 
ATOM      4  C   UNL     1       1.252   8.424  21.358  0.00  0.00    +0.000 C 
ATOM      5  C   UNL     1       0.033   9.275  21.055  0.00  0.00    +0.000 C 
ATOM      6  C   UNL     1       0.429   9.994  19.755  0.00  0.00    +0.000 C 
ATOM      7  C   UNL     1       1.310   8.968  19.026  0.00  0.00    +0.000 C 
ENDROOT
BRANCH   6   8
ATOM      8  C   UNL     1      -0.757  10.463  18.942  0.00  0.00    +0.000 A 
ATOM      9  C   UNL     1      -1.635  11.430  19.481  0.00  0.00    +0.000 A 
ATOM     10  C   UNL     1      -2.751  11.870  18.764  0.00  0.00    +0.000 A 
ATOM     11  C   UNL     1      -2.972  11.325  17.515  0.00  0.00    +0.000 A 
ATOM     12  C   UNL     1      -2.121  10.393  16.976  0.00  0.00    +0.000 A 
ATOM     13  C   UNL     1      -1.007   9.949  17.656  0.00  0.00    +0.000 A 
ATOM     14  O   UNL     1      -2.514   9.980  15.742  0.00  0.00    +0.000 OA
ATOM     15  C   UNL     1      -3.743  10.720  15.589  0.00  0.00    +0.000 C 
ATOM     16  O   UNL     1      -4.012  11.615  16.690  0.00  0.00    +0.000 OA
ENDBRANCH   6   8
BRANCH   2  17
ATOM     17  C   UNL     1       2.732   6.427  18.421  0.00  0.00    +0.000 C 
BRANCH  17  18
ATOM     18  C   UNL     1       3.062   4.964  18.261  0.00  0.00    +0.000 A 
ATOM     19  C   UNL     1       2.106   4.119  17.678  0.00  0.00    +0.000 A 
ATOM     20  F   UNL     1       0.922   4.619  17.295  0.00  0.00    +0.000 F 
ATOM     21  C   UNL     1       2.336   2.760  17.495  0.00  0.00    +0.000 A 
ATOM     22  C   UNL     1       3.549   2.209  17.891  0.00  0.00    +0.000 A 
ATOM     23  C   UNL     1       4.524   3.031  18.461  0.00  0.00    +0.000 A 
ATOM     24  C   UNL     1       4.285   4.397  18.642  0.00  0.00    +0.000 A 
ATOM     25 CL   UNL     1       5.544   5.334  19.364  0.00  0.00    +0.000 Cl
ENDBRANCH  17  18
ENDBRANCH   2  17
TORSDOF 3
ENDMDL
MODEL 2
REMARK VINA RESULT:      -8.2      0.839      1.482
REMARK  Name = 
REMARK  3 active torsions:
REMARK  status: ('A' for Active; 'I' for Inactive)
REMARK    1  A    between atoms: C_2  and  C_3
REMARK    2  A    between atoms: C_3  and  C_4
REMARK    3  A    between atoms: C_15  and  C_16
REMARK                            x       y       z     vdW  Elec       q    Type
REMARK                         _______ _______ _______ _____ _____    ______ ____
ROOT
ATOM      1  O   UNL     1       2.531   6.402  20.388  0.00  0.00    +0.000 OA
ATOM      2  C   UNL     1       2.300   7.112  19.407  0.00  0.00    +0.000 C 
ATOM      3  N   UNL     1       1.660   8.328  19.531  0.00  0.00    +0.000 N 
ATOM      4  C   UNL     1       1.256   8.851  20.824  0.00  0.00    +0.000 C 
ATOM      5  C   UNL     1      -0.068   9.533  20.531  0.00  0.00    +0.000 C 
ATOM      6  C   UNL     1       0.153  10.128  19.131  0.00  0.00    +0.000 C 
ATOM      7  C   UNL     1       1.087   9.116  18.450  0.00  0.00    +0.000 C 
ENDROOT
BRANCH   6   8
ATOM      8  C   UNL     1      -1.132  10.374  18.373  0.00  0.00    +0.000 A 
ATOM      9  C   UNL     1      -1.329   9.759  17.115  0.00  0.00    +0.000 A 
ATOM     10  C   UNL     1      -2.496   9.981  16.378  0.00  0.00    +0.000 A 
ATOM     11  C   UNL     1      -3.447  10.824  16.915  0.00  0.00    +0.000 A 
ATOM     12  C   UNL     1      -3.274  11.419  18.140  0.00  0.00    +0.000 A 
ATOM     13  C   UNL     1      -2.137  11.210  18.893  0.00  0.00    +0.000 A 
ATOM     14  O   UNL     1      -4.321  12.212  18.489  0.00  0.00    +0.000 OA
ATOM     15  C   UNL     1      -5.151  12.092  17.315  0.00  0.00    +0.000 C 
ATOM     16  O   UNL     1      -4.626  11.171  16.334  0.00  0.00    +0.000 OA
ENDBRANCH   6   8
BRANCH   2  17
ATOM     17  C   UNL     1       2.733   6.677  18.014  0.00  0.00    +0.000 C 
BRANCH  17  18
ATOM     18  C   UNL     1       3.084   5.212  17.962  0.00  0.00    +0.000 A 
ATOM     19  C   UNL     1       2.096   4.296  17.568  0.00  0.00    +0.000 A 
ATOM     20  F   UNL     1       0.865   4.736  17.266  0.00  0.00    +0.000 F 
ATOM     21  C   UNL     1       2.343   2.931  17.495  0.00  0.00    +0.000 A 
ATOM     22  C   UNL     1       3.606   2.442  17.812  0.00  0.00    +0.000 A 
ATOM     23  C   UNL     1       4.611   3.333  18.194  0.00  0.00    +0.000 A 
ATOM     24  C   UNL     1       4.355   4.706  18.265  0.00  0.00    +0.000 A 
ATOM     25 CL   UNL     1       5.656   5.731  18.755  0.00  0.00    +0.000 Cl
ENDBRANCH  17  18
ENDBRANCH   2  17
TORSDOF 3
ENDMDL
MODEL 3
REMARK VINA RESULT:      -8.1      1.925      2.537
REMARK  Name = 
REMARK  3 active torsions:
REMARK  status: ('A' for Active; 'I' for Inactive)
REMARK    1  A    between atoms: C_2  and  C_3
REMARK    2  A    between atoms: C_3  and  C_4
REMARK    3  A    between atoms: C_15  and  C_16
REMARK                            x       y       z     vdW  Elec       q    Type
REMARK                         _______ _______ _______ _____ _____    ______ ____
ROOT
ATOM      1  O   UNL     1       2.633   6.798  20.026  0.00  0.00    +0.000 OA
ATOM      2  C   UNL     1       2.321   7.584  19.129  0.00  0.00    +0.000 C 
ATOM      3  N   UNL     1       1.571   8.713  19.386  0.00  0.00    +0.000 N 
ATOM      4  C   UNL     1       1.140   9.055  20.729  0.00  0.00    +0.000 C 
ATOM      5  C   UNL     1      -0.247   9.635  20.519  0.00  0.00    +0.000 C 
ATOM      6  C   UNL     1      -0.105  10.394  19.189  0.00  0.00    +0.000 C 
ATOM      7  C   UNL     1       0.909   9.553  18.398  0.00  0.00    +0.000 C 
ENDROOT
BRANCH   6   8
ATOM      8  C   UNL     1      -1.418  10.596  18.469  0.00  0.00    +0.000 A 
ATOM      9  C   UNL     1      -1.630   9.977  17.215  0.00  0.00    +0.000 A 
ATOM     10  C   UNL     1      -2.824  10.159  16.513  0.00  0.00    +0.000 A 
ATOM     11  C   UNL     1      -3.789  10.966  17.080  0.00  0.00    +0.000 A 
ATOM     12  C   UNL     1      -3.602  11.564  18.301  0.00  0.00    +0.000 A 
ATOM     13  C   UNL     1      -2.438  11.394  19.020  0.00  0.00    +0.000 A 
ATOM     14  O   UNL     1      -4.666  12.319  18.682  0.00  0.00    +0.000 OA
ATOM     15  C   UNL     1      -5.525  12.171  17.532  0.00  0.00    +0.000 C 
ATOM     16  O   UNL     1      -4.995  11.272  16.534  0.00  0.00    +0.000 OA
ENDBRANCH   6   8
BRANCH   2  17
ATOM     17  C   UNL     1       2.770   7.342  17.694  0.00  0.00    +0.000 C 
BRANCH  17  18
ATOM     18  C   UNL     1       3.652   6.125  17.575  0.00  0.00    +0.000 A 
ATOM     19  C   UNL     1       5.041   6.304  17.498  0.00  0.00    +0.000 A 
ATOM     20  F   UNL     1       5.553   7.544  17.512  0.00  0.00    +0.000 F 
ATOM     21  C   UNL     1       5.918   5.232  17.388  0.00  0.00    +0.000 A 
ATOM     22  C   UNL     1       5.419   3.934  17.359  0.00  0.00    +0.000 A 
ATOM     23  C   UNL     1       4.041   3.727  17.449  0.00  0.00    +0.000 A 
ATOM     24  C   UNL     1       3.164   4.811  17.559  0.00  0.00    +0.000 A 
ATOM     25 CL   UNL     1       1.476   4.459  17.655  0.00  0.00    +0.000 Cl
ENDBRANCH  17  18
ENDBRANCH   2  17
TORSDOF 3
ENDMDL
MODEL 4
REMARK VINA RESULT:      -8.0      1.687      1.962
REMARK  Name = 
REMARK  3 active torsions:
REMARK  status: ('A' for Active; 'I' for Inactive)
REMARK    1  A    between atoms: C_2  and  C_3
REMARK    2  A    between atoms: C_3  and  C_4
REMARK    3  A    between atoms: C_15  and  C_16
REMARK                            x       y       z     vdW  Elec       q    Type
REMARK                         _______ _______ _______ _____ _____    ______ ____
ROOT
ATOM      1  O   UNL     1       2.669   6.225  20.091  0.00  0.00    +0.000 OA
ATOM      2  C   UNL     1       2.492   7.179  19.330  0.00  0.00    +0.000 C 
ATOM      3  N   UNL     1       1.830   8.317  19.741  0.00  0.00    +0.000 N 
ATOM      4  C   UNL     1       1.339   8.468  21.099  0.00  0.00    +0.000 C 
ATOM      5  C   UNL     1       0.028   9.211  20.921  0.00  0.00    +0.000 C 
ATOM      6  C   UNL     1       0.330  10.167  19.755  0.00  0.00    +0.000 C 
ATOM      7  C   UNL     1       1.317   9.375  18.883  0.00  0.00    +0.000 C 
ENDROOT
BRANCH   6   8
ATOM      8  C   UNL     1      -0.908  10.618  19.012  0.00  0.00    +0.000 A 
ATOM      9  C   UNL     1      -1.799  11.528  19.627  0.00  0.00    +0.000 A 
ATOM     10  C   UNL     1      -2.961  11.950  18.977  0.00  0.00    +0.000 A 
ATOM     11  C   UNL     1      -3.215  11.446  17.717  0.00  0.00    +0.000 A 
ATOM     12  C   UNL     1      -2.353  10.572  17.104  0.00  0.00    +0.000 A 
ATOM     13  C   UNL     1      -1.194  10.146  17.717  0.00  0.00    +0.000 A 
ATOM     14  O   UNL     1      -2.783  10.193  15.871  0.00  0.00    +0.000 OA
ATOM     15  C   UNL     1      -4.045  10.888  15.801  0.00  0.00    +0.000 C 
ATOM     16  O   UNL     1      -4.301  11.726  16.949  0.00  0.00    +0.000 OA
ENDBRANCH   6   8
BRANCH   2  17
ATOM     17  C   UNL     1       3.017   7.140  17.901  0.00  0.00    +0.000 C 
BRANCH  17  18
ATOM     18  C   UNL     1       3.761   5.863  17.606  0.00  0.00    +0.000 A 
ATOM     19  C   UNL     1       5.159   5.906  17.504  0.00  0.00    +0.000 A 
ATOM     20  F   UNL     1       5.800   7.076  17.651  0.00  0.00    +0.000 F 
ATOM     21  C   UNL     1       5.916   4.772  17.235  0.00  0.00    +0.000 A 
ATOM     22  C   UNL     1       5.281   3.546  17.068  0.00  0.00    +0.000 A 
ATOM     23  C   UNL     1       3.891   3.472  17.178  0.00  0.00    +0.000 A 
ATOM     24  C   UNL     1       3.136   4.619  17.449  0.00  0.00    +0.000 A 
ATOM     25 CL   UNL     1       1.423   4.433  17.559  0.00  0.00    +0.000 Cl
ENDBRANCH  17  18
ENDBRANCH   2  17
TORSDOF 3
ENDMDL
MODEL 5
REMARK VINA RESULT:      -8.0      1.494      1.998
REMARK  Name = 
REMARK  3 active torsions:
REMARK  status: ('A' for Active; 'I' for Inactive)
REMARK    1  A    between atoms: C_2  and  C_3
REMARK    2  A    between atoms: C_3  and  C_4
REMARK    3  A    between atoms: C_15  and  C_16
REMARK                            x       y       z     vdW  Elec       q    Type
REMARK                         _______ _______ _______ _____ _____    ______ ____
ROOT
ATOM      1  O   UNL     1       2.239   5.590  20.834  0.00  0.00    +0.000 OA
ATOM      2  C   UNL     1       2.149   6.348  19.866  0.00  0.00    +0.000 C 
ATOM      3  N   UNL     1       1.799   7.673  20.017  0.00  0.00    +0.000 N 
ATOM      4  C   UNL     1       1.552   8.255  21.324  0.00  0.00    +0.000 C 
ATOM      5  C   UNL     1       0.406   9.219  21.072  0.00  0.00    +0.000 C 
ATOM      6  C   UNL     1       0.721   9.770  19.672  0.00  0.00    +0.000 C 
ATOM      7  C   UNL     1       1.390   8.585  18.958  0.00  0.00    +0.000 C 
ENDROOT
BRANCH   6   8
ATOM      8  C   UNL     1      -0.494  10.306  18.949  0.00  0.00    +0.000 A 
ATOM      9  C   UNL     1      -1.278  11.314  19.554  0.00  0.00    +0.000 A 
ATOM     10  C   UNL     1      -2.419  11.817  18.923  0.00  0.00    +0.000 A 
ATOM     11  C   UNL     1      -2.758  11.294  17.692  0.00  0.00    +0.000 A 
ATOM     12  C   UNL     1      -2.000  10.323  17.088  0.00  0.00    +0.000 A 
ATOM     13  C   UNL     1      -0.864   9.816  17.683  0.00  0.00    +0.000 A 
ATOM     14  O   UNL     1      -2.502   9.941  15.884  0.00  0.00    +0.000 OA
ATOM     15  C   UNL     1      -3.698  10.746  15.824  0.00  0.00    +0.000 C 
ATOM     16  O   UNL     1      -3.839  11.644  16.946  0.00  0.00    +0.000 OA
ENDBRANCH   6   8
BRANCH   2  17
ATOM     17  C   UNL     1       2.442   5.848  18.458  0.00  0.00    +0.000 C 
BRANCH  17  18
ATOM     18  C   UNL     1       3.920   5.812  18.166  0.00  0.00    +0.000 A 
ATOM     19  C   UNL     1       4.487   6.864  17.431  0.00  0.00    +0.000 A 
ATOM     20  F   UNL     1       3.708   7.862  16.991  0.00  0.00    +0.000 F 
ATOM     21  C   UNL     1       5.842   6.903  17.123  0.00  0.00    +0.000 A 
ATOM     22  C   UNL     1       6.676   5.878  17.557  0.00  0.00    +0.000 A 
ATOM     23  C   UNL     1       6.139   4.825  18.302  0.00  0.00    +0.000 A 
ATOM     24  C   UNL     1       4.775   4.793  18.608  0.00  0.00    +0.000 A 
ATOM     25 CL   UNL     1       4.199   3.448  19.526  0.00  0.00    +0.000 Cl
ENDBRANCH  17  18
ENDBRANCH   2  17
TORSDOF 3
ENDMDL
MODEL 6
REMARK VINA RESULT:      -7.8      3.343      8.041
REMARK  Name = 
REMARK  3 active torsions:
REMARK  status: ('A' for Active; 'I' for Inactive)
REMARK    1  A    between atoms: C_2  and  C_3
REMARK    2  A    between atoms: C_3  and  C_4
REMARK    3  A    between atoms: C_15  and  C_16
REMARK                            x       y       z     vdW  Elec       q    Type
REMARK                         _______ _______ _______ _____ _____    ______ ____
ROOT
ATOM      1  O   UNL     1       0.985   8.609  21.989  0.00  0.00    +0.000 OA
ATOM      2  C   UNL     1       1.343   8.541  20.811  0.00  0.00    +0.000 C 
ATOM      3  N   UNL     1       1.590   7.328  20.201  0.00  0.00    +0.000 N 
ATOM      4  C   UNL     1       1.408   6.069  20.901  0.00  0.00    +0.000 C 
ATOM      5  C   UNL     1       2.546   5.209  20.382  0.00  0.00    +0.000 C 
ATOM      6  C   UNL     1       2.657   5.635  18.909  0.00  0.00    +0.000 C 
ATOM      7  C   UNL     1       2.274   7.123  18.932  0.00  0.00    +0.000 C 
ENDROOT
BRANCH   6   8
ATOM      8  C   UNL     1       4.018   5.369  18.306  0.00  0.00    +0.000 A 
ATOM      9  C   UNL     1       5.149   5.274  19.148  0.00  0.00    +0.000 A 
ATOM     10  C   UNL     1       6.424   5.048  18.623  0.00  0.00    +0.000 A 
ATOM     11  C   UNL     1       6.544   4.927  17.253  0.00  0.00    +0.000 A 
ATOM     12  C   UNL     1       5.453   5.006  16.424  0.00  0.00    +0.000 A 
ATOM     13  C   UNL     1       4.182   5.217  16.916  0.00  0.00    +0.000 A 
ATOM     14  O   UNL     1       5.782   4.864  15.113  0.00  0.00    +0.000 OA
ATOM     15  C   UNL     1       7.216   4.741  15.207  0.00  0.00    +0.000 C 
ATOM     16  O   UNL     1       7.701   4.729  16.568  0.00  0.00    +0.000 OA
ENDBRANCH   6   8
BRANCH   2  17
ATOM     17  C   UNL     1       1.510   9.802  19.975  0.00  0.00    +0.000 C 
BRANCH  17  18
ATOM     18  C   UNL     1       0.185  10.346  19.502  0.00  0.00    +0.000 A 
ATOM     19  C   UNL     1      -0.295   9.949  18.245  0.00  0.00    +0.000 A 
ATOM     20  F   UNL     1       0.435   9.117  17.487  0.00  0.00    +0.000 F 
ATOM     21  C   UNL     1      -1.507  10.406  17.740  0.00  0.00    +0.000 A 
ATOM     22  C   UNL     1      -2.282  11.278  18.496  0.00  0.00    +0.000 A 
ATOM     23  C   UNL     1      -1.833  11.678  19.757  0.00  0.00    +0.000 A 
ATOM     24  C   UNL     1      -0.613  11.214  20.258  0.00  0.00    +0.000 A 
ATOM     25 CL   UNL     1      -0.135  11.769  21.823  0.00  0.00    +0.000 Cl
ENDBRANCH  17  18
ENDBRANCH   2  17
TORSDOF 3
ENDMDL
MODEL 7
REMARK VINA RESULT:      -7.7      2.930      4.544
REMARK  Name = 
REMARK  3 active torsions:
REMARK  status: ('A' for Active; 'I' for Inactive)
REMARK    1  A    between atoms: C_2  and  C_3
REMARK    2  A    between atoms: C_3  and  C_4
REMARK    3  A    between atoms: C_15  and  C_16
REMARK                            x       y       z     vdW  Elec       q    Type
REMARK                         _______ _______ _______ _____ _____    ______ ____
ROOT
ATOM      1  O   UNL     1       5.947   3.588  18.061  0.00  0.00    +0.000 OA
ATOM      2  C   UNL     1       4.796   3.952  17.811  0.00  0.00    +0.000 C 
ATOM      3  N   UNL     1       4.507   5.263  17.493  0.00  0.00    +0.000 N 
ATOM      4  C   UNL     1       5.544   6.275  17.401  0.00  0.00    +0.000 C 
ATOM      5  C   UNL     1       4.878   7.516  17.965  0.00  0.00    +0.000 C 
ATOM      6  C   UNL     1       3.429   7.387  17.467  0.00  0.00    +0.000 C 
ATOM      7  C   UNL     1       3.184   5.870  17.454  0.00  0.00    +0.000 C 
ENDROOT
BRANCH   6   8
ATOM      8  C   UNL     1       2.434   8.155  18.308  0.00  0.00    +0.000 A 
ATOM      9  C   UNL     1       1.802   9.299  17.770  0.00  0.00    +0.000 A 
ATOM     10  C   UNL     1       0.892  10.044  18.526  0.00  0.00    +0.000 A 
ATOM     11  C   UNL     1       0.635   9.628  19.817  0.00  0.00    +0.000 A 
ATOM     12  C   UNL     1       1.232   8.513  20.347  0.00  0.00    +0.000 A 
ATOM     13  C   UNL     1       2.125   7.753  19.621  0.00  0.00    +0.000 A 
ATOM     14  O   UNL     1       0.849   8.274  21.630  0.00  0.00    +0.000 OA
ATOM     15  C   UNL     1      -0.019   9.403  21.864  0.00  0.00    +0.000 C 
ATOM     16  O   UNL     1      -0.199  10.238  20.700  0.00  0.00    +0.000 OA
ENDBRANCH   6   8
BRANCH   2  17
ATOM     17  C   UNL     1       3.645   2.955  17.828  0.00  0.00    +0.000 C 
BRANCH  17  18
ATOM     18  C   UNL     1       2.875   3.002  19.122  0.00  0.00    +0.000 A 
ATOM     19  C   UNL     1       1.570   3.519  19.111  0.00  0.00    +0.000 A 
ATOM     20  F   UNL     1       1.046   3.973  17.963  0.00  0.00    +0.000 F 
ATOM     21  C   UNL     1       0.796   3.594  20.263  0.00  0.00    +0.000 A 
ATOM     22  C   UNL     1       1.315   3.141  21.471  0.00  0.00    +0.000 A 
ATOM     23  C   UNL     1       2.606   2.609  21.508  0.00  0.00    +0.000 A 
ATOM     24  C   UNL     1       3.379   2.537  20.344  0.00  0.00    +0.000 A 
ATOM     25 CL   UNL     1       4.967   1.872  20.486  0.00  0.00    +0.000 Cl
ENDBRANCH  17  18
ENDBRANCH   2  17
TORSDOF 3
ENDMDL
MODEL 8
REMARK VINA RESULT:      -7.7      3.473      8.074
REMARK  Name = 
REMARK  3 active torsions:
REMARK  status: ('A' for Active; 'I' for Inactive)
REMARK    1  A    between atoms: C_2  and  C_3
REMARK    2  A    between atoms: C_3  and  C_4
REMARK    3  A    between atoms: C_15  and  C_16
REMARK                            x       y       z     vdW  Elec       q    Type
REMARK                         _______ _______ _______ _____ _____    ______ ____
ROOT
ATOM      1  O   UNL     1       1.098   9.447  21.343  0.00  0.00    +0.000 OA
ATOM      2  C   UNL     1       1.291   9.261  20.139  0.00  0.00    +0.000 C 
ATOM      3  N   UNL     1       1.609   8.013  19.644  0.00  0.00    +0.000 N 
ATOM      4  C   UNL     1       1.699   6.848  20.506  0.00  0.00    +0.000 C 
ATOM      5  C   UNL     1       2.856   6.062  19.918  0.00  0.00    +0.000 C 
ATOM      6  C   UNL     1       2.698   6.294  18.406  0.00  0.00    +0.000 C 
ATOM      7  C   UNL     1       2.127   7.718  18.316  0.00  0.00    +0.000 C 
ENDROOT
BRANCH   6   8
ATOM      8  C   UNL     1       3.983   6.106  17.631  0.00  0.00    +0.000 A 
ATOM      9  C   UNL     1       5.009   7.074  17.734  0.00  0.00    +0.000 A 
ATOM     10  C   UNL     1       6.200   6.941  17.015  0.00  0.00    +0.000 A 
ATOM     11  C   UNL     1       6.341   5.838  16.198  0.00  0.00    +0.000 A 
ATOM     12  C   UNL     1       5.358   4.886  16.098  0.00  0.00    +0.000 A 
ATOM     13  C   UNL     1       4.177   4.986  16.803  0.00  0.00    +0.000 A 
ATOM     14  O   UNL     1       5.688   3.883  15.241  0.00  0.00    +0.000 OA
ATOM     15  C   UNL     1       6.972   4.343  14.771  0.00  0.00    +0.000 C 
ATOM     16  O   UNL     1       7.415   5.558  15.414  0.00  0.00    +0.000 OA
ENDBRANCH   6   8
BRANCH   2  17
ATOM     17  C   UNL     1       1.166  10.408  19.146  0.00  0.00    +0.000 C 
BRANCH  17  18
ATOM     18  C   UNL     1      -0.257  10.885  19.009  0.00  0.00    +0.000 A 
ATOM     19  C   UNL     1      -1.074  10.294  18.033  0.00  0.00    +0.000 A 
ATOM     20  F   UNL     1      -0.572   9.338  17.236  0.00  0.00    +0.000 F 
ATOM     21  C   UNL     1      -2.397  10.678  17.846  0.00  0.00    +0.000 A 
ATOM     22  C   UNL     1      -2.944  11.673  18.648  0.00  0.00    +0.000 A 
ATOM     23  C   UNL     1      -2.156  12.268  19.637  0.00  0.00    +0.000 A 
ATOM     24  C   UNL     1      -0.826  11.876  19.818  0.00  0.00    +0.000 A 
ATOM     25 CL   UNL     1       0.073  12.674  21.059  0.00  0.00    +0.000 Cl
ENDBRANCH  17  18
ENDBRANCH   2  17
TORSDOF 3
ENDMDL
MODEL 9
REMARK VINA RESULT:      -7.7      2.953      4.515
REMARK  Name = 
REMARK  3 active torsions:
REMARK  status: ('A' for Active; 'I' for Inactive)
REMARK    1  A    between atoms: C_2  and  C_3
REMARK    2  A    between atoms: C_3  and  C_4
REMARK    3  A    between atoms: C_15  and  C_16
REMARK                            x       y       z     vdW  Elec       q    Type
REMARK                         _______ _______ _______ _____ _____    ______ ____
ROOT
ATOM      1  O   UNL     1       5.492   3.344  17.353  0.00  0.00    +0.000 OA
ATOM      2  C   UNL     1       4.320   3.721  17.413  0.00  0.00    +0.000 C 
ATOM      3  N   UNL     1       3.980   5.048  17.255  0.00  0.00    +0.000 N 
ATOM      4  C   UNL     1       4.978   6.065  16.974  0.00  0.00    +0.000 C 
ATOM      5  C   UNL     1       4.486   7.269  17.758  0.00  0.00    +0.000 C 
ATOM      6  C   UNL     1       2.958   7.169  17.620  0.00  0.00    +0.000 C 
ATOM      7  C   UNL     1       2.696   5.655  17.575  0.00  0.00    +0.000 C 
ENDROOT
BRANCH   6   8
ATOM      8  C   UNL     1       2.207   7.882  18.722  0.00  0.00    +0.000 A 
ATOM      9  C   UNL     1       2.075   7.267  19.988  0.00  0.00    +0.000 A 
ATOM     10  C   UNL     1       1.371   7.889  21.023  0.00  0.00    +0.000 A 
ATOM     11  C   UNL     1       0.802   9.120  20.766  0.00  0.00    +0.000 A 
ATOM     12  C   UNL     1       0.932   9.734  19.546  0.00  0.00    +0.000 A 
ATOM     13  C   UNL     1       1.630   9.148  18.510  0.00  0.00    +0.000 A 
ATOM     14  O   UNL     1       0.300  10.936  19.494  0.00  0.00    +0.000 OA
ATOM     15  C   UNL     1      -0.291  10.984  20.810  0.00  0.00    +0.000 C 
ATOM     16  O   UNL     1       0.068   9.858  21.640  0.00  0.00    +0.000 OA
ENDBRANCH   6   8
BRANCH   2  17
ATOM     17  C   UNL     1       3.194   2.724  17.649  0.00  0.00    +0.000 C 
BRANCH  17  18
ATOM     18  C   UNL     1       2.607   2.850  19.031  0.00  0.00    +0.000 A 
ATOM     19  C   UNL     1       1.284   3.298  19.163  0.00  0.00    +0.000 A 
ATOM     20  F   UNL     1       0.579   3.620  18.067  0.00  0.00    +0.000 F 
ATOM     21  C   UNL     1       0.672   3.439  20.403  0.00  0.00    +0.000 A 
ATOM     22  C   UNL     1       1.378   3.123  21.558  0.00  0.00    +0.000 A 
ATOM     23  C   UNL     1       2.692   2.662  21.455  0.00  0.00    +0.000 A 
ATOM     24  C   UNL     1       3.301   2.522  20.203  0.00  0.00    +0.000 A 
ATOM     25 CL   UNL     1       4.932   1.953  20.174  0.00  0.00    +0.000 Cl
ENDBRANCH  17  18
ENDBRANCH   2  17
TORSDOF 3
ENDMDL
