MODEL 1
REMARK VINA RESULT:      -7.8      0.000      0.000
REMARK  Name = 
REMARK  9 active torsions:
REMARK  status: ('A' for Active; 'I' for Inactive)
REMARK    1  A    between atoms: C_2  and  C_11
REMARK    2  A    between atoms: N_3  and  C_4
REMARK    3  A    between atoms: C_4  and  C_5
REMARK    4  A    between atoms: C_14  and  C_15
REMARK    5  A    between atoms: C_15  and  C_16
REMARK    6  A    between atoms: C_16  and  N_17
REMARK    7  A    between atoms: N_17  and  C_18
REMARK    8  A    between atoms: C_18  and  C_19
REMARK    9  A    between atoms: C_19  and  C_20
REMARK                            x       y       z     vdW  Elec       q    Type
REMARK                         _______ _______ _______ _____ _____    ______ ____
ROOT
ATOM      1  C   UNL     1       2.188   4.653  20.951  0.00  0.00    +0.000 C 
ENDROOT
BRANCH   1   5
ATOM      2  C   UNL     1       1.521   8.092  20.131  0.00  0.00    +0.000 A 
ATOM      3  C   UNL     1       2.430   7.717  19.169  0.00  0.00    +0.000 A 
ATOM      4  O   UNL     1       2.756   6.411  19.373  0.00  0.00    +0.000 OA
ATOM      5  C   UNL     1       2.018   6.048  20.468  0.00  0.00    +0.000 A 
ATOM      6  N   UNL     1       1.264   7.012  20.965  0.00  0.00    +0.000 NA
BRANCH   2   8
ATOM      7  O   UNL     1       0.874  10.011  21.335  0.00  0.00    +0.000 OA
ATOM      8  C   UNL     1       0.912   9.409  20.268  0.00  0.00    +0.000 C 
ATOM      9  N   UNL     1       0.394   9.902  19.097  0.00  0.00    +0.000 N 
ATOM     10  H   UNL     1       0.378   9.286  18.292  0.00  0.00    +0.000 HD
BRANCH   9  11
ATOM     11  C   UNL     1      -0.311  11.163  19.044  0.00  0.00    +0.000 C 
BRANCH  11  12
ATOM     12  C   UNL     1      -1.732  11.022  18.547  0.00  0.00    +0.000 A 
ATOM     13  C   UNL     1      -2.722  11.902  18.984  0.00  0.00    +0.000 A 
ATOM     14  C   UNL     1      -4.019  11.756  18.498  0.00  0.00    +0.000 A 
ATOM     15  C   UNL     1      -4.297  10.736  17.598  0.00  0.00    +0.000 A 
ATOM     16  C   UNL     1      -3.261   9.896  17.224  0.00  0.00    +0.000 A 
ATOM     17  N   UNL     1      -1.993  10.011  17.678  0.00  0.00    +0.000 NA
ENDBRANCH  11  12
ENDBRANCH   9  11
ENDBRANCH   2   8
ENDBRANCH   1   5
BRANCH   1  18
ATOM     18  C   UNL     1       1.421   3.682  20.049  0.00  0.00    +0.000 C 
BRANCH  18  19
ATOM     19  N   UNL     1       1.631   3.965  18.617  0.00  0.00    +0.000 NA
ATOM     20  H   UNL     1       2.204   4.805  18.523  0.00  0.00    +0.000 HD
BRANCH  19  21
ATOM     21  C   UNL     1       2.341   2.835  17.989  0.00  0.00    +0.000 C 
BRANCH  21  22
ATOM     22  C   UNL     1       3.673   2.544  18.689  0.00  0.00    +0.000 C 
BRANCH  22  23
ATOM     23  C   UNL     1       4.630   3.677  18.508  0.00  0.00    +0.000 A 
ATOM     24  N   UNL     1       5.703   3.921  19.233  0.00  0.00    +0.000 NA
ATOM     25  C   UNL     1       6.275   5.054  18.692  0.00  0.00    +0.000 A 
ATOM     26  C   UNL     1       7.434   5.764  19.050  0.00  0.00    +0.000 A 
ATOM     27  F   UNL     1       8.204   5.369  20.074  0.00  0.00    +0.000 F 
ATOM     28  C   UNL     1       7.797   6.902  18.324  0.00  0.00    +0.000 A 
ATOM     29  C   UNL     1       7.017   7.337  17.251  0.00  0.00    +0.000 A 
ATOM     30  C   UNL     1       5.857   6.648  16.871  0.00  0.00    +0.000 A 
ATOM     31  C   UNL     1       5.521   5.512  17.616  0.00  0.00    +0.000 A 
ATOM     32  N   UNL     1       4.482   4.621  17.522  0.00  0.00    +0.000 N 
ATOM     33  H   UNL     1       3.737   4.650  16.841  0.00  0.00    +0.000 HD
ENDBRANCH  22  23
ENDBRANCH  21  22
ENDBRANCH  19  21
ENDBRANCH  18  19
ENDBRANCH   1  18
TORSDOF 9
ENDMDL
MODEL 2
REMARK VINA RESULT:      -7.8      1.567      2.100
REMARK  Name = 
REMARK  9 active torsions:
REMARK  status: ('A' for Active; 'I' for Inactive)
REMARK    1  A    between atoms: C_2  and  C_11
REMARK    2  A    between atoms: N_3  and  C_4
REMARK    3  A    between atoms: C_4  and  C_5
REMARK    4  A    between atoms: C_14  and  C_15
REMARK    5  A    between atoms: C_15  and  C_16
REMARK    6  A    between atoms: C_16  and  N_17
REMARK    7  A    between atoms: N_17  and  C_18
REMARK    8  A    between atoms: C_18  and  C_19
REMARK    9  A    between atoms: C_19  and  C_20
REMARK                            x       y       z     vdW  Elec       q    Type
REMARK                         _______ _______ _______ _____ _____    ______ ____
ROOT
ATOM      1  C   UNL     1       1.495   3.912  21.068  0.00  0.00    +0.000 C 
ENDROOT
BRANCH   1   5
ATOM      2  C   UNL     1       2.187   7.122  19.599  0.00  0.00    +0.000 A 
ATOM      3  C   UNL     1       3.412   6.497  19.564  0.00  0.00    +0.000 A 
ATOM      4  O   UNL     1       3.273   5.251  20.093  0.00  0.00    +0.000 OA
ATOM      5  C   UNL     1       1.948   5.177  20.431  0.00  0.00    +0.000 A 
ATOM      6  N   UNL     1       1.251   6.265  20.161  0.00  0.00    +0.000 NA
BRANCH   2   8
ATOM      7  O   UNL     1       2.446   8.952  18.139  0.00  0.00    +0.000 OA
ATOM      8  C   UNL     1       1.899   8.469  19.123  0.00  0.00    +0.000 C 
ATOM      9  N   UNL     1       0.964   9.134  19.876  0.00  0.00    +0.000 N 
ATOM     10  H   UNL     1       0.649   8.692  20.732  0.00  0.00    +0.000 HD
BRANCH   9  11
ATOM     11  C   UNL     1       0.596  10.504  19.603  0.00  0.00    +0.000 C 
BRANCH  11  12
ATOM     12  C   UNL     1      -0.721  10.625  18.871  0.00  0.00    +0.000 A 
ATOM     13  C   UNL     1      -0.968   9.857  17.733  0.00  0.00    +0.000 A 
ATOM     14  C   UNL     1      -2.196   9.980  17.088  0.00  0.00    +0.000 A 
ATOM     15  C   UNL     1      -3.140  10.869  17.587  0.00  0.00    +0.000 A 
ATOM     16  C   UNL     1      -2.812  11.604  18.713  0.00  0.00    +0.000 A 
ATOM     17  N   UNL     1      -1.630  11.508  19.361  0.00  0.00    +0.000 NA
ENDBRANCH  11  12
ENDBRANCH   9  11
ENDBRANCH   2   8
ENDBRANCH   1   5
BRANCH   1  18
ATOM     18  C   UNL     1       1.525   2.767  20.053  0.00  0.00    +0.000 C 
BRANCH  18  19
ATOM     19  N   UNL     1       1.488   3.251  18.661  0.00  0.00    +0.000 NA
ATOM     20  H   UNL     1       1.976   4.147  18.606  0.00  0.00    +0.000 HD
BRANCH  19  21
ATOM     21  C   UNL     1       2.171   2.285  17.782  0.00  0.00    +0.000 C 
BRANCH  21  22
ATOM     22  C   UNL     1       3.600   1.999  18.258  0.00  0.00    +0.000 C 
BRANCH  22  23
ATOM     23  C   UNL     1       4.489   3.174  18.011  0.00  0.00    +0.000 A 
ATOM     24  N   UNL     1       4.402   4.027  17.010  0.00  0.00    +0.000 NA
ATOM     25  C   UNL     1       5.417   4.942  17.204  0.00  0.00    +0.000 A 
ATOM     26  C   UNL     1       5.796   6.072  16.459  0.00  0.00    +0.000 A 
ATOM     27  F   UNL     1       5.134   6.428  15.349  0.00  0.00    +0.000 F 
ATOM     28  C   UNL     1       6.883   6.843  16.881  0.00  0.00    +0.000 A 
ATOM     29  C   UNL     1       7.591   6.499  18.034  0.00  0.00    +0.000 A 
ATOM     30  C   UNL     1       7.234   5.379  18.797  0.00  0.00    +0.000 A 
ATOM     31  C   UNL     1       6.142   4.628  18.350  0.00  0.00    +0.000 A 
ATOM     32  N   UNL     1       5.533   3.501  18.842  0.00  0.00    +0.000 N 
ATOM     33  H   UNL     1       5.803   2.998  19.675  0.00  0.00    +0.000 HD
ENDBRANCH  22  23
ENDBRANCH  21  22
ENDBRANCH  19  21
ENDBRANCH  18  19
ENDBRANCH   1  18
TORSDOF 9
ENDMDL
MODEL 3
REMARK VINA RESULT:      -7.6      1.907      2.942
REMARK  Name = 
REMARK  9 active torsions:
REMARK  status: ('A' for Active; 'I' for Inactive)
REMARK    1  A    between atoms: C_2  and  C_11
REMARK    2  A    between atoms: N_3  and  C_4
REMARK    3  A    between atoms: C_4  and  C_5
REMARK    4  A    between atoms: C_14  and  C_15
REMARK    5  A    between atoms: C_15  and  C_16
REMARK    6  A    between atoms: C_16  and  N_17
REMARK    7  A    between atoms: N_17  and  C_18
REMARK    8  A    between atoms: C_18  and  C_19
REMARK    9  A    between atoms: C_19  and  C_20
REMARK                            x       y       z     vdW  Elec       q    Type
REMARK                         _______ _______ _______ _____ _____    ______ ____
ROOT
ATOM      1  C   UNL     1       2.251   4.394  21.072  0.00  0.00    +0.000 C 
ENDROOT
BRANCH   1   5
ATOM      2  C   UNL     1       1.601   7.825  20.210  0.00  0.00    +0.000 A 
ATOM      3  C   UNL     1       2.532   7.444  19.273  0.00  0.00    +0.000 A 
ATOM      4  O   UNL     1       2.855   6.140  19.495  0.00  0.00    +0.000 OA
ATOM      5  C   UNL     1       2.091   5.786  20.575  0.00  0.00    +0.000 A 
ATOM      6  N   UNL     1       1.324   6.752  21.045  0.00  0.00    +0.000 NA
BRANCH   2   8
ATOM      7  O   UNL     1       0.841   9.714  21.396  0.00  0.00    +0.000 OA
ATOM      8  C   UNL     1       0.987   9.143  20.321  0.00  0.00    +0.000 C 
ATOM      9  N   UNL     1       0.596   9.674  19.118  0.00  0.00    +0.000 N 
ATOM     10  H   UNL     1       0.661   9.081  18.299  0.00  0.00    +0.000 HD
BRANCH   9  11
ATOM     11  C   UNL     1      -0.093  10.941  19.030  0.00  0.00    +0.000 C 
BRANCH  11  12
ATOM     12  C   UNL     1       0.850  12.118  18.928  0.00  0.00    +0.000 A 
ATOM     13  C   UNL     1       0.503  13.350  19.483  0.00  0.00    +0.000 A 
ATOM     14  C   UNL     1       1.398  14.412  19.386  0.00  0.00    +0.000 A 
ATOM     15  C   UNL     1       2.609  14.223  18.733  0.00  0.00    +0.000 A 
ATOM     16  C   UNL     1       2.873  12.974  18.197  0.00  0.00    +0.000 A 
ATOM     17  N   UNL     1       2.025  11.923  18.274  0.00  0.00    +0.000 NA
ENDBRANCH  11  12
ENDBRANCH   9  11
ENDBRANCH   2   8
ENDBRANCH   1   5
BRANCH   1  18
ATOM     18  C   UNL     1       1.424   3.428  20.221  0.00  0.00    +0.000 C 
BRANCH  18  19
ATOM     19  N   UNL     1       1.579   3.682  18.777  0.00  0.00    +0.000 NA
ATOM     20  H   UNL     1       2.366   4.318  18.632  0.00  0.00    +0.000 HD
BRANCH  19  21
ATOM     21  C   UNL     1       1.862   2.414  18.079  0.00  0.00    +0.000 C 
BRANCH  21  22
ATOM     22  C   UNL     1       3.332   2.004  18.222  0.00  0.00    +0.000 C 
BRANCH  22  23
ATOM     23  C   UNL     1       4.234   3.180  18.039  0.00  0.00    +0.000 A 
ATOM     24  N   UNL     1       4.171   4.074  17.072  0.00  0.00    +0.000 NA
ATOM     25  C   UNL     1       5.189   4.971  17.320  0.00  0.00    +0.000 A 
ATOM     26  C   UNL     1       5.590   6.127  16.628  0.00  0.00    +0.000 A 
ATOM     27  F   UNL     1       4.950   6.533  15.522  0.00  0.00    +0.000 F 
ATOM     28  C   UNL     1       6.676   6.871  17.099  0.00  0.00    +0.000 A 
ATOM     29  C   UNL     1       7.361   6.475  18.249  0.00  0.00    +0.000 A 
ATOM     30  C   UNL     1       6.982   5.328  18.960  0.00  0.00    +0.000 A 
ATOM     31  C   UNL     1       5.892   4.605  18.464  0.00  0.00    +0.000 A 
ATOM     32  N   UNL     1       5.266   3.464  18.900  0.00  0.00    +0.000 N 
ATOM     33  H   UNL     1       5.517   2.926  19.716  0.00  0.00    +0.000 HD
ENDBRANCH  22  23
ENDBRANCH  21  22
ENDBRANCH  19  21
ENDBRANCH  18  19
ENDBRANCH   1  18
TORSDOF 9
ENDMDL
MODEL 4
REMARK VINA RESULT:      -7.4      1.400      1.747
REMARK  Name = 
REMARK  9 active torsions:
REMARK  status: ('A' for Active; 'I' for Inactive)
REMARK    1  A    between atoms: C_2  and  C_11
REMARK    2  A    between atoms: N_3  and  C_4
REMARK    3  A    between atoms: C_4  and  C_5
REMARK    4  A    between atoms: C_14  and  C_15
REMARK    5  A    between atoms: C_15  and  C_16
REMARK    6  A    between atoms: C_16  and  N_17
REMARK    7  A    between atoms: N_17  and  C_18
REMARK    8  A    between atoms: C_18  and  C_19
REMARK    9  A    between atoms: C_19  and  C_20
REMARK                            x       y       z     vdW  Elec       q    Type
REMARK                         _______ _______ _______ _____ _____    ______ ____
ROOT
ATOM      1  C   UNL     1       2.928   6.269  19.587  0.00  0.00    +0.000 C 
ENDROOT
BRANCH   1   5
ATOM      2  C   UNL     1       1.187   9.399  19.257  0.00  0.00    +0.000 A 
ATOM      3  C   UNL     1       1.597   9.138  17.970  0.00  0.00    +0.000 A 
ATOM      4  O   UNL     1       2.270   7.955  17.966  0.00  0.00    +0.000 OA
ATOM      5  C   UNL     1       2.237   7.546  19.273  0.00  0.00    +0.000 A 
ATOM      6  N   UNL     1       1.605   8.370  20.089  0.00  0.00    +0.000 NA
BRANCH   2   8
ATOM      7  O   UNL     1       0.686  11.168  20.730  0.00  0.00    +0.000 OA
ATOM      8  C   UNL     1       0.429  10.565  19.694  0.00  0.00    +0.000 C 
ATOM      9  N   UNL     1      -0.587  10.916  18.842  0.00  0.00    +0.000 N 
ATOM     10  H   UNL     1      -0.788  10.292  18.068  0.00  0.00    +0.000 HD
BRANCH   9  11
ATOM     11  C   UNL     1      -1.492  12.002  19.138  0.00  0.00    +0.000 C 
BRANCH  11  12
ATOM     12  C   UNL     1      -2.851  11.826  18.500  0.00  0.00    +0.000 A 
ATOM     13  C   UNL     1      -4.012  12.095  19.226  0.00  0.00    +0.000 A 
ATOM     14  C   UNL     1      -5.249  11.936  18.607  0.00  0.00    +0.000 A 
ATOM     15  C   UNL     1      -5.299  11.508  17.286  0.00  0.00    +0.000 A 
ATOM     16  C   UNL     1      -4.102  11.249  16.639  0.00  0.00    +0.000 A 
ATOM     17  N   UNL     1      -2.886  11.393  17.212  0.00  0.00    +0.000 NA
ENDBRANCH  11  12
ENDBRANCH   9  11
ENDBRANCH   2   8
ENDBRANCH   1   5
BRANCH   1  18
ATOM     18  C   UNL     1       1.944   5.269  20.198  0.00  0.00    +0.000 C 
BRANCH  18  19
ATOM     19  N   UNL     1       2.113   3.911  19.649  0.00  0.00    +0.000 NA
ATOM     20  H   UNL     1       2.752   3.949  18.853  0.00  0.00    +0.000 HD
BRANCH  19  21
ATOM     21  C   UNL     1       2.694   3.029  20.679  0.00  0.00    +0.000 C 
BRANCH  21  22
ATOM     22  C   UNL     1       3.963   2.332  20.177  0.00  0.00    +0.000 C 
BRANCH  22  23
ATOM     23  C   UNL     1       4.642   3.150  19.129  0.00  0.00    +0.000 A 
ATOM     24  N   UNL     1       5.617   4.016  19.319  0.00  0.00    +0.000 NA
ATOM     25  C   UNL     1       5.929   4.514  18.071  0.00  0.00    +0.000 A 
ATOM     26  C   UNL     1       6.890   5.457  17.666  0.00  0.00    +0.000 A 
ATOM     27  F   UNL     1       7.707   6.042  18.554  0.00  0.00    +0.000 F 
ATOM     28  C   UNL     1       7.002   5.792  16.314  0.00  0.00    +0.000 A 
ATOM     29  C   UNL     1       6.167   5.197  15.365  0.00  0.00    +0.000 A 
ATOM     30  C   UNL     1       5.201   4.253  15.740  0.00  0.00    +0.000 A 
ATOM     31  C   UNL     1       5.115   3.939  17.100  0.00  0.00    +0.000 A 
ATOM     32  N   UNL     1       4.306   3.078  17.798  0.00  0.00    +0.000 N 
ATOM     33  H   UNL     1       3.588   2.487  17.403  0.00  0.00    +0.000 HD
ENDBRANCH  22  23
ENDBRANCH  21  22
ENDBRANCH  19  21
ENDBRANCH  18  19
ENDBRANCH   1  18
TORSDOF 9
ENDMDL
MODEL 5
REMARK VINA RESULT:      -7.3      2.784      3.820
REMARK  Name = 
REMARK  9 active torsions:
REMARK  status: ('A' for Active; 'I' for Inactive)
REMARK    1  A    between atoms: C_2  and  C_11
REMARK    2  A    between atoms: N_3  and  C_4
REMARK    3  A    between atoms: C_4  and  C_5
REMARK    4  A    between atoms: C_14  and  C_15
REMARK    5  A    between atoms: C_15  and  C_16
REMARK    6  A    between atoms: C_16  and  N_17
REMARK    7  A    between atoms: N_17  and  C_18
REMARK    8  A    between atoms: C_18  and  C_19
REMARK    9  A    between atoms: C_19  and  C_20
REMARK                            x       y       z     vdW  Elec       q    Type
REMARK                         _______ _______ _______ _____ _____    ______ ____
ROOT
ATOM      1  C   UNL     1       2.836   6.117  19.891  0.00  0.00    +0.000 C 
ENDROOT
BRANCH   1   5
ATOM      2  C   UNL     1       1.370   9.276  18.992  0.00  0.00    +0.000 A 
ATOM      3  C   UNL     1       1.986   8.881  17.828  0.00  0.00    +0.000 A 
ATOM      4  O   UNL     1       2.579   7.674  18.044  0.00  0.00    +0.000 OA
ATOM      5  C   UNL     1       2.288   7.389  19.353  0.00  0.00    +0.000 A 
ATOM      6  N   UNL     1       1.571   8.311  19.969  0.00  0.00    +0.000 NA
BRANCH   2   8
ATOM      7  O   UNL     1      -0.547  10.517  19.571  0.00  0.00    +0.000 OA
ATOM      8  C   UNL     1       0.616  10.509  19.186  0.00  0.00    +0.000 C 
ATOM      9  N   UNL     1       1.331  11.645  18.901  0.00  0.00    +0.000 N 
ATOM     10  H   UNL     1       2.249  11.531  18.487  0.00  0.00    +0.000 HD
BRANCH   9  11
ATOM     11  C   UNL     1       0.735  12.959  18.967  0.00  0.00    +0.000 C 
BRANCH  11  12
ATOM     12  C   UNL     1       1.708  14.064  18.620  0.00  0.00    +0.000 A 
ATOM     13  C   UNL     1       3.022  13.760  18.264  0.00  0.00    +0.000 A 
ATOM     14  C   UNL     1       3.891  14.798  17.937  0.00  0.00    +0.000 A 
ATOM     15  C   UNL     1       3.432  16.108  17.980  0.00  0.00    +0.000 A 
ATOM     16  C   UNL     1       2.118  16.327  18.357  0.00  0.00    +0.000 A 
ATOM     17  N   UNL     1       1.250  15.341  18.680  0.00  0.00    +0.000 NA
ENDBRANCH  11  12
ENDBRANCH   9  11
ENDBRANCH   2   8
ENDBRANCH   1   5
BRANCH   1  18
ATOM     18  C   UNL     1       1.941   4.942  19.491  0.00  0.00    +0.000 C 
BRANCH  18  19
ATOM     19  N   UNL     1       2.521   3.641  19.873  0.00  0.00    +0.000 NA
ATOM     20  H   UNL     1       2.095   3.329  20.748  0.00  0.00    +0.000 HD
BRANCH  19  21
ATOM     21  C   UNL     1       2.235   2.645  18.824  0.00  0.00    +0.000 C 
BRANCH  21  22
ATOM     22  C   UNL     1       3.497   2.270  18.039  0.00  0.00    +0.000 C 
BRANCH  22  23
ATOM     23  C   UNL     1       4.425   3.436  17.934  0.00  0.00    +0.000 A 
ATOM     24  N   UNL     1       4.330   4.439  17.084  0.00  0.00    +0.000 NA
ATOM     25  C   UNL     1       5.392   5.273  17.365  0.00  0.00    +0.000 A 
ATOM     26  C   UNL     1       5.787   6.492  16.786  0.00  0.00    +0.000 A 
ATOM     27  F   UNL     1       5.091   7.043  15.781  0.00  0.00    +0.000 F 
ATOM     28  C   UNL     1       6.925   7.147  17.266  0.00  0.00    +0.000 A 
ATOM     29  C   UNL     1       7.669   6.599  18.313  0.00  0.00    +0.000 A 
ATOM     30  C   UNL     1       7.298   5.386  18.910  0.00  0.00    +0.000 A 
ATOM     31  C   UNL     1       6.155   4.756  18.408  0.00  0.00    +0.000 A 
ATOM     32  N   UNL     1       5.520   3.588  18.749  0.00  0.00    +0.000 N 
ATOM     33  H   UNL     1       5.804   2.951  19.479  0.00  0.00    +0.000 HD
ENDBRANCH  22  23
ENDBRANCH  21  22
ENDBRANCH  19  21
ENDBRANCH  18  19
ENDBRANCH   1  18
TORSDOF 9
ENDMDL
MODEL 6
REMARK VINA RESULT:      -7.3      2.291      2.961
REMARK  Name = 
REMARK  9 active torsions:
REMARK  status: ('A' for Active; 'I' for Inactive)
REMARK    1  A    between atoms: C_2  and  C_11
REMARK    2  A    between atoms: N_3  and  C_4
REMARK    3  A    between atoms: C_4  and  C_5
REMARK    4  A    between atoms: C_14  and  C_15
REMARK    5  A    between atoms: C_15  and  C_16
REMARK    6  A    between atoms: C_16  and  N_17
REMARK    7  A    between atoms: N_17  and  C_18
REMARK    8  A    between atoms: C_18  and  C_19
REMARK    9  A    between atoms: C_19  and  C_20
REMARK                            x       y       z     vdW  Elec       q    Type
REMARK                         _______ _______ _______ _____ _____    ______ ____
ROOT
ATOM      1  C   UNL     1       0.945   3.272  20.377  0.00  0.00    +0.000 C 
ENDROOT
BRANCH   1   5
ATOM      2  C   UNL     1       2.469   6.289  19.145  0.00  0.00    +0.000 A 
ATOM      3  C   UNL     1       3.266   5.957  20.215  0.00  0.00    +0.000 A 
ATOM      4  O   UNL     1       2.787   4.808  20.767  0.00  0.00    +0.000 OA
ATOM      5  C   UNL     1       1.703   4.492  19.992  0.00  0.00    +0.000 A 
ATOM      6  N   UNL     1       1.463   5.342  19.010  0.00  0.00    +0.000 NA
BRANCH   2   8
ATOM      7  O   UNL     1       3.452   7.469  17.359  0.00  0.00    +0.000 OA
ATOM      8  C   UNL     1       2.640   7.447  18.276  0.00  0.00    +0.000 C 
ATOM      9  N   UNL     1       1.810   8.496  18.583  0.00  0.00    +0.000 N 
ATOM     10  H   UNL     1       1.250   8.422  19.425  0.00  0.00    +0.000 HD
BRANCH   9  11
ATOM     11  C   UNL     1       1.879   9.756  17.879  0.00  0.00    +0.000 C 
BRANCH  11  12
ATOM     12  C   UNL     1       1.211  10.886  18.629  0.00  0.00    +0.000 A 
ATOM     13  C   UNL     1       1.825  12.135  18.716  0.00  0.00    +0.000 A 
ATOM     14  C   UNL     1       1.180  13.161  19.401  0.00  0.00    +0.000 A 
ATOM     15  C   UNL     1      -0.054  12.914  19.989  0.00  0.00    +0.000 A 
ATOM     16  C   UNL     1      -0.590  11.643  19.870  0.00  0.00    +0.000 A 
ATOM     17  N   UNL     1       0.011  10.627  19.211  0.00  0.00    +0.000 NA
ENDBRANCH  11  12
ENDBRANCH   9  11
ENDBRANCH   2   8
ENDBRANCH   1   5
BRANCH   1  18
ATOM     18  C   UNL     1       1.481   2.054  19.622  0.00  0.00    +0.000 C 
BRANCH  18  19
ATOM     19  N   UNL     1       1.195   2.121  18.177  0.00  0.00    +0.000 NA
ATOM     20  H   UNL     1       0.645   2.961  17.984  0.00  0.00    +0.000 HD
BRANCH  19  21
ATOM     21  C   UNL     1       2.461   2.201  17.425  0.00  0.00    +0.000 C 
BRANCH  21  22
ATOM     22  C   UNL     1       3.677   2.070  18.348  0.00  0.00    +0.000 C 
BRANCH  22  23
ATOM     23  C   UNL     1       4.620   3.211  18.153  0.00  0.00    +0.000 A 
ATOM     24  N   UNL     1       4.759   3.937  17.061  0.00  0.00    +0.000 NA
ATOM     25  C   UNL     1       5.730   4.873  17.351  0.00  0.00    +0.000 A 
ATOM     26  C   UNL     1       6.277   5.907  16.571  0.00  0.00    +0.000 A 
ATOM     27  F   UNL     1       5.866   6.123  15.313  0.00  0.00    +0.000 F 
ATOM     28  C   UNL     1       7.268   6.730  17.114  0.00  0.00    +0.000 A 
ATOM     29  C   UNL     1       7.716   6.532  18.422  0.00  0.00    +0.000 A 
ATOM     30  C   UNL     1       7.187   5.510  19.223  0.00  0.00    +0.000 A 
ATOM     31  C   UNL     1       6.196   4.704  18.651  0.00  0.00    +0.000 A 
ATOM     32  N   UNL     1       5.477   3.642  19.137  0.00  0.00    +0.000 N 
ATOM     33  H   UNL     1       5.558   3.245  20.062  0.00  0.00    +0.000 HD
ENDBRANCH  22  23
ENDBRANCH  21  22
ENDBRANCH  19  21
ENDBRANCH  18  19
ENDBRANCH   1  18
TORSDOF 9
ENDMDL
MODEL 7
REMARK VINA RESULT:      -7.3      1.713      2.213
REMARK  Name = 
REMARK  9 active torsions:
REMARK  status: ('A' for Active; 'I' for Inactive)
REMARK    1  A    between atoms: C_2  and  C_11
REMARK    2  A    between atoms: N_3  and  C_4
REMARK    3  A    between atoms: C_4  and  C_5
REMARK    4  A    between atoms: C_14  and  C_15
REMARK    5  A    between atoms: C_15  and  C_16
REMARK    6  A    between atoms: C_16  and  N_17
REMARK    7  A    between atoms: N_17  and  C_18
REMARK    8  A    between atoms: C_18  and  C_19
REMARK    9  A    between atoms: C_19  and  C_20
REMARK                            x       y       z     vdW  Elec       q    Type
REMARK                         _______ _______ _______ _____ _____    ______ ____
ROOT
ATOM      1  C   UNL     1       2.610   5.694  20.098  0.00  0.00    +0.000 C 
ENDROOT
BRANCH   1   5
ATOM      2  C   UNL     1       1.738   8.966  18.885  0.00  0.00    +0.000 A 
ATOM      3  C   UNL     1       2.533   8.468  17.879  0.00  0.00    +0.000 A 
ATOM      4  O   UNL     1       2.924   7.210  18.225  0.00  0.00    +0.000 OA
ATOM      5  C   UNL     1       2.337   7.001  19.445  0.00  0.00    +0.000 A 
ATOM      6  N   UNL     1       1.620   8.017  19.890  0.00  0.00    +0.000 NA
BRANCH   2   8
ATOM      7  O   UNL     1       1.751  11.321  18.826  0.00  0.00    +0.000 OA
ATOM      8  C   UNL     1       1.109  10.281  18.906  0.00  0.00    +0.000 C 
ATOM      9  N   UNL     1      -0.258  10.238  19.022  0.00  0.00    +0.000 N 
ATOM     10  H   UNL     1      -0.688   9.335  19.190  0.00  0.00    +0.000 HD
BRANCH   9  11
ATOM     11  C   UNL     1      -1.054  11.438  19.130  0.00  0.00    +0.000 C 
BRANCH  11  12
ATOM     12  C   UNL     1      -1.513  11.716  20.543  0.00  0.00    +0.000 A 
ATOM     13  C   UNL     1      -2.657  12.480  20.776  0.00  0.00    +0.000 A 
ATOM     14  C   UNL     1      -3.063  12.707  22.088  0.00  0.00    +0.000 A 
ATOM     15  C   UNL     1      -2.317  12.175  23.132  0.00  0.00    +0.000 A 
ATOM     16  C   UNL     1      -1.187  11.439  22.818  0.00  0.00    +0.000 A 
ATOM     17  N   UNL     1      -0.767  11.201  21.555  0.00  0.00    +0.000 NA
ENDBRANCH  11  12
ENDBRANCH   9  11
ENDBRANCH   2   8
ENDBRANCH   1   5
BRANCH   1  18
ATOM     18  C   UNL     1       1.847   4.575  19.385  0.00  0.00    +0.000 C 
BRANCH  18  19
ATOM     19  N   UNL     1       1.981   4.654  17.918  0.00  0.00    +0.000 NA
ATOM     20  H   UNL     1       2.602   5.430  17.680  0.00  0.00    +0.000 HD
BRANCH  19  21
ATOM     21  C   UNL     1       2.571   3.402  17.408  0.00  0.00    +0.000 C 
BRANCH  21  22
ATOM     22  C   UNL     1       3.803   2.985  18.219  0.00  0.00    +0.000 C 
BRANCH  22  23
ATOM     23  C   UNL     1       4.837   4.062  18.209  0.00  0.00    +0.000 A 
ATOM     24  N   UNL     1       5.875   4.160  19.016  0.00  0.00    +0.000 NA
ATOM     25  C   UNL     1       6.549   5.299  18.628  0.00  0.00    +0.000 A 
ATOM     26  C   UNL     1       7.725   5.890  19.122  0.00  0.00    +0.000 A 
ATOM     27  F   UNL     1       8.402   5.345  20.143  0.00  0.00    +0.000 F 
ATOM     28  C   UNL     1       8.204   7.067  18.538  0.00  0.00    +0.000 A 
ATOM     29  C   UNL     1       7.522   7.657  17.472  0.00  0.00    +0.000 A 
ATOM     30  C   UNL     1       6.348   7.089  16.958  0.00  0.00    +0.000 A 
ATOM     31  C   UNL     1       5.896   5.911  17.562  0.00  0.00    +0.000 A 
ATOM     32  N   UNL     1       4.812   5.107  17.318  0.00  0.00    +0.000 N 
ATOM     33  H   UNL     1       4.115   5.253  16.601  0.00  0.00    +0.000 HD
ENDBRANCH  22  23
ENDBRANCH  21  22
ENDBRANCH  19  21
ENDBRANCH  18  19
ENDBRANCH   1  18
TORSDOF 9
ENDMDL
MODEL 8
REMARK VINA RESULT:      -7.2      2.516      3.649
REMARK  Name = 
REMARK  9 active torsions:
REMARK  status: ('A' for Active; 'I' for Inactive)
REMARK    1  A    between atoms: C_2  and  C_11
REMARK    2  A    between atoms: N_3  and  C_4
REMARK    3  A    between atoms: C_4  and  C_5
REMARK    4  A    between atoms: C_14  and  C_15
REMARK    5  A    between atoms: C_15  and  C_16
REMARK    6  A    between atoms: C_16  and  N_17
REMARK    7  A    between atoms: N_17  and  C_18
REMARK    8  A    between atoms: C_18  and  C_19
REMARK    9  A    between atoms: C_19  and  C_20
REMARK                            x       y       z     vdW  Elec       q    Type
REMARK                         _______ _______ _______ _____ _____    ______ ____
ROOT
ATOM      1  C   UNL     1       2.383   6.483  19.471  0.00  0.00    +0.000 C 
ENDROOT
BRANCH   1   5
ATOM      2  C   UNL     1       0.987   9.601  20.597  0.00  0.00    +0.000 A 
ATOM      3  C   UNL     1       0.859   8.790  21.701  0.00  0.00    +0.000 A 
ATOM      4  O   UNL     1       1.369   7.565  21.395  0.00  0.00    +0.000 OA
ATOM      5  C   UNL     1       1.790   7.693  20.098  0.00  0.00    +0.000 A 
ATOM      6  N   UNL     1       1.586   8.886  19.570  0.00  0.00    +0.000 NA
BRANCH   2   8
ATOM      7  O   UNL     1       0.408  11.701  21.494  0.00  0.00    +0.000 OA
ATOM      8  C   UNL     1       0.570  10.994  20.506  0.00  0.00    +0.000 C 
ATOM      9  N   UNL     1       0.380  11.431  19.219  0.00  0.00    +0.000 N 
ATOM     10  H   UNL     1       0.434  10.743  18.476  0.00  0.00    +0.000 HD
BRANCH   9  11
ATOM     11  C   UNL     1      -0.101  12.762  18.926  0.00  0.00    +0.000 C 
BRANCH  11  12
ATOM     12  C   UNL     1       1.013  13.778  18.813  0.00  0.00    +0.000 A 
ATOM     13  C   UNL     1       2.216  13.439  18.193  0.00  0.00    +0.000 A 
ATOM     14  C   UNL     1       3.218  14.400  18.091  0.00  0.00    +0.000 A 
ATOM     15  C   UNL     1       3.000  15.668  18.615  0.00  0.00    +0.000 A 
ATOM     16  C   UNL     1       1.784  15.921  19.227  0.00  0.00    +0.000 A 
ATOM     17  N   UNL     1       0.792  15.009  19.342  0.00  0.00    +0.000 NA
ENDBRANCH  11  12
ENDBRANCH   9  11
ENDBRANCH   2   8
ENDBRANCH   1   5
BRANCH   1  18
ATOM     18  C   UNL     1       1.836   5.218  20.137  0.00  0.00    +0.000 C 
BRANCH  18  19
ATOM     19  N   UNL     1       2.887   4.210  20.371  0.00  0.00    +0.000 NA
ATOM     20  H   UNL     1       2.929   3.997  21.370  0.00  0.00    +0.000 HD
BRANCH  19  21
ATOM     21  C   UNL     1       2.559   2.974  19.637  0.00  0.00    +0.000 C 
BRANCH  21  22
ATOM     22  C   UNL     1       3.708   2.539  18.720  0.00  0.00    +0.000 C 
BRANCH  22  23
ATOM     23  C   UNL     1       4.640   3.676  18.456  0.00  0.00    +0.000 A 
ATOM     24  N   UNL     1       4.523   4.582  17.506  0.00  0.00    +0.000 NA
ATOM     25  C   UNL     1       5.601   5.430  17.658  0.00  0.00    +0.000 A 
ATOM     26  C   UNL     1       5.984   6.574  16.937  0.00  0.00    +0.000 A 
ATOM     27  F   UNL     1       5.258   7.020  15.902  0.00  0.00    +0.000 F 
ATOM     28  C   UNL     1       7.143   7.265  17.305  0.00  0.00    +0.000 A 
ATOM     29  C   UNL     1       7.918   6.826  18.380  0.00  0.00    +0.000 A 
ATOM     30  C   UNL     1       7.559   5.689  19.117  0.00  0.00    +0.000 A 
ATOM     31  C   UNL     1       6.394   5.021  18.726  0.00  0.00    +0.000 A 
ATOM     32  N   UNL     1       5.763   3.904  19.213  0.00  0.00    +0.000 N 
ATOM     33  H   UNL     1       6.068   3.347  19.998  0.00  0.00    +0.000 HD
ENDBRANCH  22  23
ENDBRANCH  21  22
ENDBRANCH  19  21
ENDBRANCH  18  19
ENDBRANCH   1  18
TORSDOF 9
ENDMDL
MODEL 9
REMARK VINA RESULT:      -7.2      5.754      9.134
REMARK  Name = 
REMARK  9 active torsions:
REMARK  status: ('A' for Active; 'I' for Inactive)
REMARK    1  A    between atoms: C_2  and  C_11
REMARK    2  A    between atoms: N_3  and  C_4
REMARK    3  A    between atoms: C_4  and  C_5
REMARK    4  A    between atoms: C_14  and  C_15
REMARK    5  A    between atoms: C_15  and  C_16
REMARK    6  A    between atoms: C_16  and  N_17
REMARK    7  A    between atoms: N_17  and  C_18
REMARK    8  A    between atoms: C_18  and  C_19
REMARK    9  A    between atoms: C_19  and  C_20
REMARK                            x       y       z     vdW  Elec       q    Type
REMARK                         _______ _______ _______ _____ _____    ______ ____
ROOT
ATOM      1  C   UNL     1       8.129   7.573  18.362  0.00  0.00    +0.000 C 
ENDROOT
BRANCH   1   5
ATOM      2  C   UNL     1       5.670   5.203  17.233  0.00  0.00    +0.000 A 
ATOM      3  C   UNL     1       6.486   5.346  16.135  0.00  0.00    +0.000 A 
ATOM      4  O   UNL     1       7.476   6.227  16.448  0.00  0.00    +0.000 OA
ATOM      5  C   UNL     1       7.210   6.582  17.744  0.00  0.00    +0.000 A 
ATOM      6  N   UNL     1       6.142   6.004  18.263  0.00  0.00    +0.000 NA
BRANCH   2   8
ATOM      7  O   UNL     1       3.367   4.744  17.043  0.00  0.00    +0.000 OA
ATOM      8  C   UNL     1       4.493   4.347  17.319  0.00  0.00    +0.000 C 
ATOM      9  N   UNL     1       4.769   3.068  17.735  0.00  0.00    +0.000 N 
ATOM     10  H   UNL     1       5.714   2.867  18.042  0.00  0.00    +0.000 HD
BRANCH   9  11
ATOM     11  C   UNL     1       3.725   2.092  17.948  0.00  0.00    +0.000 C 
BRANCH  11  12
ATOM     12  C   UNL     1       2.851   2.416  19.138  0.00  0.00    +0.000 A 
ATOM     13  C   UNL     1       1.482   2.628  18.971  0.00  0.00    +0.000 A 
ATOM     14  C   UNL     1       0.700   2.911  20.087  0.00  0.00    +0.000 A 
ATOM     15  C   UNL     1       1.301   2.983  21.337  0.00  0.00    +0.000 A 
ATOM     16  C   UNL     1       2.667   2.774  21.417  0.00  0.00    +0.000 A 
ATOM     17  N   UNL     1       3.453   2.498  20.353  0.00  0.00    +0.000 NA
ENDBRANCH  11  12
ENDBRANCH   9  11
ENDBRANCH   2   8
ENDBRANCH   1   5
BRANCH   1  18
ATOM     18  C   UNL     1       8.249   8.813  17.473  0.00  0.00    +0.000 C 
BRANCH  18  19
ATOM     19  N   UNL     1       8.116  10.065  18.240  0.00  0.00    +0.000 NA
ATOM     20  H   UNL     1       7.259  10.029  18.795  0.00  0.00    +0.000 HD
BRANCH  19  21
ATOM     21  C   UNL     1       9.265  10.210  19.153  0.00  0.00    +0.000 C 
BRANCH  21  22
ATOM     22  C   UNL     1      10.389  11.040  18.522  0.00  0.00    +0.000 C 
BRANCH  22  23
ATOM     23  C   UNL     1      10.009  12.483  18.449  0.00  0.00    +0.000 A 
ATOM     24  N   UNL     1      10.603  13.415  17.729  0.00  0.00    +0.000 NA
ATOM     25  C   UNL     1       9.903  14.579  17.968  0.00  0.00    +0.000 A 
ATOM     26  C   UNL     1      10.079  15.881  17.469  0.00  0.00    +0.000 A 
ATOM     27  F   UNL     1      11.060  16.167  16.601  0.00  0.00    +0.000 F 
ATOM     28  C   UNL     1       9.215  16.901  17.880  0.00  0.00    +0.000 A 
ATOM     29  C   UNL     1       8.183  16.634  18.781  0.00  0.00    +0.000 A 
ATOM     30  C   UNL     1       7.983  15.345  19.295  0.00  0.00    +0.000 A 
ATOM     31  C   UNL     1       8.863  14.347  18.863  0.00  0.00    +0.000 A 
ATOM     32  N   UNL     1       8.954  13.009  19.153  0.00  0.00    +0.000 N 
ATOM     33  H   UNL     1       8.346  12.495  19.775  0.00  0.00    +0.000 HD
ENDBRANCH  22  23
ENDBRANCH  21  22
ENDBRANCH  19  21
ENDBRANCH  18  19
ENDBRANCH   1  18
TORSDOF 9
ENDMDL
