MODEL 1
REMARK VINA RESULT:      -7.9      0.000      0.000
REMARK  Name = 
REMARK  11 active torsions:
REMARK  status: ('A' for Active; 'I' for Inactive)
REMARK    1  A    between atoms: N_1  and  C_2
REMARK    2  A    between atoms: N_10  and  C_11
REMARK    3  A    between atoms: C_13  and  C_14
REMARK    4  A    between atoms: C_14  and  S_15
REMARK    5  A    between atoms: S_15  and  C_16
REMARK    6  A    between atoms: C_16  and  C_17
REMARK    7  A    between atoms: C_17  and  C_18
REMARK    8  A    between atoms: C_18  and  N_19
REMARK    9  A    between atoms: C_18  and  C_20
REMARK   10  A    between atoms: C_31  and  O_32
REMARK   11  A    between atoms: C_33  and  O_34
REMARK                            x       y       z     vdW  Elec       q    Type
REMARK                         _______ _______ _______ _____ _____    ______ ____
ROOT
ATOM      1  C   UNL     1       4.808   3.536  17.629  0.00  0.00    +0.000 C 
ATOM      2  O   UNL     1       3.693   3.298  16.744  0.00  0.00    +0.000 OA
ATOM      3  C   UNL     1       2.772   2.365  17.360  0.00  0.00    +0.000 C 
ATOM      4  C   UNL     1       3.446   1.887  18.641  0.00  0.00    +0.000 C 
ATOM      5  C   UNL     1       4.379   3.030  19.010  0.00  0.00    +0.000 C 
ENDROOT
BRANCH   1  14
ATOM      6  C   UNL     1       7.689   7.374  17.930  0.00  0.00    +0.000 A 
ATOM      7  N   UNL     1       8.334   6.953  19.044  0.00  0.00    +0.000 NA
ATOM      8  C   UNL     1       7.869   5.856  19.677  0.00  0.00    +0.000 A 
ATOM      9  N   UNL     1       6.851   5.062  19.313  0.00  0.00    +0.000 NA
ATOM     10  C   UNL     1       6.254   5.503  18.200  0.00  0.00    +0.000 A 
ATOM     11  C   UNL     1       6.572   6.641  17.482  0.00  0.00    +0.000 A 
ATOM     12  N   UNL     1       5.636   6.862  16.490  0.00  0.00    +0.000 NA
ATOM     13  C   UNL     1       4.847   5.805  16.533  0.00  0.00    +0.000 A 
ATOM     14  N   UNL     1       5.217   4.925  17.521  0.00  0.00    +0.000 N 
BRANCH   6  15
ATOM     15  N   UNL     1       8.062   8.613  17.401  0.00  0.00    +0.000 N 
ATOM     16  H   UNL     1       7.478   8.821  16.597  0.00  0.00    +0.000 HD
ATOM     17  H   UNL     1       9.062   8.667  17.232  0.00  0.00    +0.000 HD
ENDBRANCH   6  15
ENDBRANCH   1  14
BRANCH   4  18
ATOM     18  O   UNL     1       4.252   0.716  18.396  0.00  0.00    +0.000 OA
ATOM     19  H   UNL     1       3.684   0.001  18.052  0.00  0.00    +0.000 HD
ENDBRANCH   4  18
BRANCH   5  20
ATOM     20  O   UNL     1       5.453   2.523  19.803  0.00  0.00    +0.000 OA
ATOM     21  H   UNL     1       5.972   3.297  20.104  0.00  0.00    +0.000 HD
ENDBRANCH   5  20
BRANCH   3  22
ATOM     22  C   UNL     1       1.432   3.058  17.623  0.00  0.00    +0.000 C 
BRANCH  22  23
ATOM     23  S   UNL     1       0.710   2.411  19.176  0.00  0.00    +0.000 S 
BRANCH  23  24
ATOM     24  C   UNL     1       0.780   3.900  20.212  0.00  0.00    +0.000 C 
BRANCH  24  25
ATOM     25  C   UNL     1       1.313   5.144  19.514  0.00  0.00    +0.000 C 
BRANCH  25  26
ATOM     26  C   UNL     1       2.208   6.090  20.342  0.00  0.00    +0.000 C 
BRANCH  26  27
ATOM     27  C   UNL     1       2.163   7.419  19.577  0.00  0.00    +0.000 C 
ATOM     28  O   UNL     1       2.718   7.527  18.486  0.00  0.00    +0.000 OA
ATOM     29  N   UNL     1       1.432   8.457  20.086  0.00  0.00    +0.000 N 
ATOM     30  C   UNL     1       1.080   9.575  19.210  0.00  0.00    +0.000 C 
ATOM     31  C   UNL     1       0.091  10.321  20.019  0.00  0.00    +0.000 A 
ATOM     32  C   UNL     1      -0.950  11.155  19.671  0.00  0.00    +0.000 A 
ATOM     33  C   UNL     1      -1.545  11.892  20.687  0.00  0.00    +0.000 A 
ATOM     34  C   UNL     1      -0.958  11.918  21.958  0.00  0.00    +0.000 A 
ATOM     35  C   UNL     1       0.038  10.996  22.292  0.00  0.00    +0.000 A 
ATOM     36  C   UNL     1       0.402  10.075  21.351  0.00  0.00    +0.000 A 
ATOM     37  C   UNL     1       1.034   8.722  21.459  0.00  0.00    +0.000 C 
ENDBRANCH  26  27
BRANCH  26  38
ATOM     38  N   UNL     1       3.607   5.645  20.409  0.00  0.00    +0.000 NA
ATOM     39  H   UNL     1       3.625   4.745  20.898  0.00  0.00    +0.000 HD
ATOM     40  H   UNL     1       4.157   6.294  20.967  0.00  0.00    +0.000 HD
ENDBRANCH  26  38
ENDBRANCH  25  26
ENDBRANCH  24  25
ENDBRANCH  23  24
ENDBRANCH  22  23
ENDBRANCH   3  22
TORSDOF 11
ENDMDL
MODEL 2
REMARK VINA RESULT:      -7.8      6.233      9.480
REMARK  Name = 
REMARK  11 active torsions:
REMARK  status: ('A' for Active; 'I' for Inactive)
REMARK    1  A    between atoms: N_1  and  C_2
REMARK    2  A    between atoms: N_10  and  C_11
REMARK    3  A    between atoms: C_13  and  C_14
REMARK    4  A    between atoms: C_14  and  S_15
REMARK    5  A    between atoms: S_15  and  C_16
REMARK    6  A    between atoms: C_16  and  C_17
REMARK    7  A    between atoms: C_17  and  C_18
REMARK    8  A    between atoms: C_18  and  N_19
REMARK    9  A    between atoms: C_18  and  C_20
REMARK   10  A    between atoms: C_31  and  O_32
REMARK   11  A    between atoms: C_33  and  O_34
REMARK                            x       y       z     vdW  Elec       q    Type
REMARK                         _______ _______ _______ _____ _____    ______ ____
ROOT
ATOM      1  C   UNL     1      10.039  13.421  18.660  0.00  0.00    +0.000 C 
ATOM      2  O   UNL     1       9.263  12.408  17.985  0.00  0.00    +0.000 OA
ATOM      3  C   UNL     1       9.962  11.140  18.042  0.00  0.00    +0.000 C 
ATOM      4  C   UNL     1      11.324  11.434  18.661  0.00  0.00    +0.000 C 
ATOM      5  C   UNL     1      11.082  12.678  19.501  0.00  0.00    +0.000 C 
ENDROOT
BRANCH   1  14
ATOM      6  C   UNL     1       7.182  17.234  19.307  0.00  0.00    +0.000 A 
ATOM      7  N   UNL     1       7.907  18.062  18.518  0.00  0.00    +0.000 NA
ATOM      8  C   UNL     1       9.098  17.627  18.055  0.00  0.00    +0.000 A 
ATOM      9  N   UNL     1       9.661  16.423  18.231  0.00  0.00    +0.000 NA
ATOM     10  C   UNL     1       8.906  15.631  19.000  0.00  0.00    +0.000 A 
ATOM     11  C   UNL     1       7.702  15.957  19.598  0.00  0.00    +0.000 A 
ATOM     12  N   UNL     1       7.298  14.946  20.449  0.00  0.00    +0.000 NA
ATOM     13  C   UNL     1       8.177  13.981  20.263  0.00  0.00    +0.000 A 
ATOM     14  N   UNL     1       9.143  14.330  19.350  0.00  0.00    +0.000 N 
BRANCH   6  15
ATOM     15  N   UNL     1       6.052  17.768  19.931  0.00  0.00    +0.000 N 
ATOM     16  H   UNL     1       6.222  17.833  20.930  0.00  0.00    +0.000 HD
ATOM     17  H   UNL     1       5.205  17.269  19.672  0.00  0.00    +0.000 HD
ENDBRANCH   6  15
ENDBRANCH   1  14
BRANCH   4  18
ATOM     18  O   UNL     1      12.293  11.765  17.645  0.00  0.00    +0.000 OA
ATOM     19  H   UNL     1      12.118  12.666  17.314  0.00  0.00    +0.000 HD
ENDBRANCH   4  18
BRANCH   5  20
ATOM     20  O   UNL     1      12.312  13.386  19.660  0.00  0.00    +0.000 OA
ATOM     21  H   UNL     1      13.029  12.765  19.421  0.00  0.00    +0.000 HD
ENDBRANCH   5  20
BRANCH   3  22
ATOM     22  C   UNL     1       9.148  10.136  18.863  0.00  0.00    +0.000 C 
BRANCH  22  23
ATOM     23  S   UNL     1       7.890   9.353  17.788  0.00  0.00    +0.000 S 
BRANCH  23  24
ATOM     24  C   UNL     1       8.109   7.610  18.245  0.00  0.00    +0.000 C 
BRANCH  24  25
ATOM     25  C   UNL     1       7.545   6.608  17.246  0.00  0.00    +0.000 C 
BRANCH  25  26
ATOM     26  C   UNL     1       6.009   6.463  17.183  0.00  0.00    +0.000 C 
BRANCH  26  27
ATOM     27  C   UNL     1       5.758   4.978  17.471  0.00  0.00    +0.000 C 
ATOM     28  O   UNL     1       6.555   4.126  17.084  0.00  0.00    +0.000 OA
ATOM     29  N   UNL     1       4.681   4.618  18.232  0.00  0.00    +0.000 N 
ATOM     30  C   UNL     1       4.637   3.276  18.815  0.00  0.00    +0.000 C 
ATOM     31  C   UNL     1       3.501   3.369  19.759  0.00  0.00    +0.000 A 
ATOM     32  C   UNL     1       3.204   2.688  20.920  0.00  0.00    +0.000 A 
ATOM     33  C   UNL     1       1.928   2.851  21.446  0.00  0.00    +0.000 A 
ATOM     34  C   UNL     1       0.951   3.519  20.698  0.00  0.00    +0.000 A 
ATOM     35  C   UNL     1       1.314   4.268  19.575  0.00  0.00    +0.000 A 
ATOM     36  C   UNL     1       2.639   4.331  19.247  0.00  0.00    +0.000 A 
ATOM     37  C   UNL     1       3.435   5.331  18.467  0.00  0.00    +0.000 C 
ENDBRANCH  26  27
BRANCH  26  38
ATOM     38  N   UNL     1       5.455   6.776  15.859  0.00  0.00    +0.000 NA
ATOM     39  H   UNL     1       6.150   7.333  15.354  0.00  0.00    +0.000 HD
ATOM     40  H   UNL     1       4.624   7.355  15.952  0.00  0.00    +0.000 HD
ENDBRANCH  26  38
ENDBRANCH  25  26
ENDBRANCH  24  25
ENDBRANCH  23  24
ENDBRANCH  22  23
ENDBRANCH   3  22
TORSDOF 11
ENDMDL
MODEL 3
REMARK VINA RESULT:      -7.8      2.239      3.390
REMARK  Name = 
REMARK  11 active torsions:
REMARK  status: ('A' for Active; 'I' for Inactive)
REMARK    1  A    between atoms: N_1  and  C_2
REMARK    2  A    between atoms: N_10  and  C_11
REMARK    3  A    between atoms: C_13  and  C_14
REMARK    4  A    between atoms: C_14  and  S_15
REMARK    5  A    between atoms: S_15  and  C_16
REMARK    6  A    between atoms: C_16  and  C_17
REMARK    7  A    between atoms: C_17  and  C_18
REMARK    8  A    between atoms: C_18  and  N_19
REMARK    9  A    between atoms: C_18  and  C_20
REMARK   10  A    between atoms: C_31  and  O_32
REMARK   11  A    between atoms: C_33  and  O_34
REMARK                            x       y       z     vdW  Elec       q    Type
REMARK                         _______ _______ _______ _____ _____    ______ ____
ROOT
ATOM      1  C   UNL     1       3.271   3.448  18.112  0.00  0.00    +0.000 C 
ATOM      2  O   UNL     1       2.223   4.348  18.532  0.00  0.00    +0.000 OA
ATOM      3  C   UNL     1       1.235   3.620  19.301  0.00  0.00    +0.000 C 
ATOM      4  C   UNL     1       1.630   2.150  19.216  0.00  0.00    +0.000 C 
ATOM      5  C   UNL     1       3.131   2.189  18.974  0.00  0.00    +0.000 C 
ENDROOT
BRANCH   1  14
ATOM      6  C   UNL     1       6.894   6.199  16.551  0.00  0.00    +0.000 A 
ATOM      7  N   UNL     1       6.801   5.797  15.261  0.00  0.00    +0.000 NA
ATOM      8  C   UNL     1       5.967   4.779  14.964  0.00  0.00    +0.000 A 
ATOM      9  N   UNL     1       5.145   4.118  15.793  0.00  0.00    +0.000 NA
ATOM     10  C   UNL     1       5.255   4.556  17.052  0.00  0.00    +0.000 A 
ATOM     11  C   UNL     1       6.108   5.540  17.518  0.00  0.00    +0.000 A 
ATOM     12  N   UNL     1       6.059   5.606  18.897  0.00  0.00    +0.000 NA
ATOM     13  C   UNL     1       5.100   4.768  19.239  0.00  0.00    +0.000 A 
ATOM     14  N   UNL     1       4.543   4.147  18.147  0.00  0.00    +0.000 N 
BRANCH   6  15
ATOM     15  N   UNL     1       7.898   7.117  16.868  0.00  0.00    +0.000 N 
ATOM     16  H   UNL     1       8.472   6.738  17.614  0.00  0.00    +0.000 HD
ATOM     17  H   UNL     1       7.521   8.044  17.043  0.00  0.00    +0.000 HD
ENDBRANCH   6  15
ENDBRANCH   1  14
BRANCH   4  18
ATOM     18  O   UNL     1       1.012   1.513  18.078  0.00  0.00    +0.000 OA
ATOM     19  H   UNL     1       0.176   1.096  18.358  0.00  0.00    +0.000 HD
ENDBRANCH   4  18
BRANCH   5  20
ATOM     20  O   UNL     1       3.534   0.988  18.315  0.00  0.00    +0.000 OA
ATOM     21  H   UNL     1       4.000   1.255  17.497  0.00  0.00    +0.000 HD
ENDBRANCH   5  20
BRANCH   3  22
ATOM     22  C   UNL     1       1.212   4.140  20.741  0.00  0.00    +0.000 C 
BRANCH  22  23
ATOM     23  S   UNL     1       2.191   5.684  20.843  0.00  0.00    +0.000 S 
BRANCH  23  24
ATOM     24  C   UNL     1       0.858   6.916  20.813  0.00  0.00    +0.000 C 
BRANCH  24  25
ATOM     25  C   UNL     1       1.323   8.366  20.882  0.00  0.00    +0.000 C 
BRANCH  25  26
ATOM     26  C   UNL     1       0.877   9.192  22.108  0.00  0.00    +0.000 C 
BRANCH  26  27
ATOM     27  C   UNL     1       0.483  10.553  21.522  0.00  0.00    +0.000 C 
ATOM     28  O   UNL     1       1.162  11.069  20.636  0.00  0.00    +0.000 OA
ATOM     29  N   UNL     1      -0.673  11.151  21.940  0.00  0.00    +0.000 N 
ATOM     30  C   UNL     1      -1.241  12.238  21.142  0.00  0.00    +0.000 C 
ATOM     31  C   UNL     1      -2.581  12.418  21.745  0.00  0.00    +0.000 A 
ATOM     32  C   UNL     1      -3.768  12.899  21.237  0.00  0.00    +0.000 A 
ATOM     33  C   UNL     1      -4.790  13.162  22.142  0.00  0.00    +0.000 A 
ATOM     34  C   UNL     1      -4.525  13.122  23.516  0.00  0.00    +0.000 A 
ATOM     35  C   UNL     1      -3.341  12.546  23.988  0.00  0.00    +0.000 A 
ATOM     36  C   UNL     1      -2.474  12.021  23.073  0.00  0.00    +0.000 A 
ATOM     37  C   UNL     1      -1.410  10.973  23.182  0.00  0.00    +0.000 C 
ENDBRANCH  26  27
BRANCH  26  38
ATOM     38  N   UNL     1       1.956   9.404  23.082  0.00  0.00    +0.000 NA
ATOM     39  H   UNL     1       2.404   8.498  23.254  0.00  0.00    +0.000 HD
ATOM     40  H   UNL     1       1.573   9.716  23.971  0.00  0.00    +0.000 HD
ENDBRANCH  26  38
ENDBRANCH  25  26
ENDBRANCH  24  25
ENDBRANCH  23  24
ENDBRANCH  22  23
ENDBRANCH   3  22
TORSDOF 11
ENDMDL
MODEL 4
REMARK VINA RESULT:      -7.8      3.059      8.665
REMARK  Name = 
REMARK  11 active torsions:
REMARK  status: ('A' for Active; 'I' for Inactive)
REMARK    1  A    between atoms: N_1  and  C_2
REMARK    2  A    between atoms: N_10  and  C_11
REMARK    3  A    between atoms: C_13  and  C_14
REMARK    4  A    between atoms: C_14  and  S_15
REMARK    5  A    between atoms: S_15  and  C_16
REMARK    6  A    between atoms: C_16  and  C_17
REMARK    7  A    between atoms: C_17  and  C_18
REMARK    8  A    between atoms: C_18  and  N_19
REMARK    9  A    between atoms: C_18  and  C_20
REMARK   10  A    between atoms: C_31  and  O_32
REMARK   11  A    between atoms: C_33  and  O_34
REMARK                            x       y       z     vdW  Elec       q    Type
REMARK                         _______ _______ _______ _____ _____    ______ ____
ROOT
ATOM      1  C   UNL     1       0.075  10.580  20.546  0.00  0.00    +0.000 C 
ATOM      2  O   UNL     1       1.226  10.604  19.675  0.00  0.00    +0.000 OA
ATOM      3  C   UNL     1       1.916   9.333  19.743  0.00  0.00    +0.000 C 
ATOM      4  C   UNL     1       1.226   8.534  20.843  0.00  0.00    +0.000 C 
ATOM      5  C   UNL     1      -0.182   9.107  20.881  0.00  0.00    +0.000 C 
ENDROOT
BRANCH   1  14
ATOM      6  C   UNL     1      -3.734  11.416  17.733  0.00  0.00    +0.000 A 
ATOM      7  N   UNL     1      -3.334  10.586  16.740  0.00  0.00    +0.000 NA
ATOM      8  C   UNL     1      -2.099  10.049  16.813  0.00  0.00    +0.000 A 
ATOM      9  N   UNL     1      -1.196  10.185  17.795  0.00  0.00    +0.000 NA
ATOM     10  C   UNL     1      -1.637  10.998  18.762  0.00  0.00    +0.000 A 
ATOM     11  C   UNL     1      -2.845  11.670  18.796  0.00  0.00    +0.000 A 
ATOM     12  N   UNL     1      -2.881  12.541  19.869  0.00  0.00    +0.000 NA
ATOM     13  C   UNL     1      -1.769  12.298  20.535  0.00  0.00    +0.000 A 
ATOM     14  N   UNL     1      -1.006  11.328  19.931  0.00  0.00    +0.000 N 
BRANCH   6  15
ATOM     15  N   UNL     1      -4.932  12.111  17.547  0.00  0.00    +0.000 N 
ATOM     16  H   UNL     1      -5.338  11.842  16.656  0.00  0.00    +0.000 HD
ATOM     17  H   UNL     1      -4.814  13.111  17.681  0.00  0.00    +0.000 HD
ENDBRANCH   6  15
ENDBRANCH   1  14
BRANCH   4  18
ATOM     18  O   UNL     1       1.841   8.780  22.125  0.00  0.00    +0.000 OA
ATOM     19  H   UNL     1       1.272   8.417  22.829  0.00  0.00    +0.000 HD
ENDBRANCH   4  18
BRANCH   5  20
ATOM     20  O   UNL     1      -0.742   8.896  22.177  0.00  0.00    +0.000 OA
ATOM     21  H   UNL     1      -0.048   9.127  22.827  0.00  0.00    +0.000 HD
ENDBRANCH   5  20
BRANCH   3  22
ATOM     22  C   UNL     1       1.853   8.635  18.382  0.00  0.00    +0.000 C 
BRANCH  22  23
ATOM     23  S   UNL     1       2.863   7.109  18.435  0.00  0.00    +0.000 S 
BRANCH  23  24
ATOM     24  C   UNL     1       3.967   7.400  17.024  0.00  0.00    +0.000 C 
BRANCH  24  25
ATOM     25  C   UNL     1       5.410   6.961  17.236  0.00  0.00    +0.000 C 
BRANCH  25  26
ATOM     26  C   UNL     1       5.855   5.648  16.558  0.00  0.00    +0.000 C 
BRANCH  26  27
ATOM     27  C   UNL     1       5.909   4.630  17.704  0.00  0.00    +0.000 C 
ATOM     28  O   UNL     1       6.977   4.367  18.253  0.00  0.00    +0.000 OA
ATOM     29  N   UNL     1       4.745   4.077  18.161  0.00  0.00    +0.000 N 
ATOM     30  C   UNL     1       4.738   3.409  19.463  0.00  0.00    +0.000 C 
ATOM     31  C   UNL     1       3.294   3.205  19.715  0.00  0.00    +0.000 A 
ATOM     32  C   UNL     1       2.566   3.080  20.879  0.00  0.00    +0.000 A 
ATOM     33  C   UNL     1       1.248   2.655  20.765  0.00  0.00    +0.000 A 
ATOM     34  C   UNL     1       0.776   2.189  19.532  0.00  0.00    +0.000 A 
ATOM     35  C   UNL     1       1.512   2.414  18.365  0.00  0.00    +0.000 A 
ATOM     36  C   UNL     1       2.685   3.106  18.471  0.00  0.00    +0.000 A 
ATOM     37  C   UNL     1       3.470   3.911  17.481  0.00  0.00    +0.000 C 
ENDBRANCH  26  27
BRANCH  26  38
ATOM     38  N   UNL     1       7.193   5.735  15.956  0.00  0.00    +0.000 NA
ATOM     39  H   UNL     1       7.656   4.832  16.093  0.00  0.00    +0.000 HD
ATOM     40  H   UNL     1       7.754   6.431  16.442  0.00  0.00    +0.000 HD
ENDBRANCH  26  38
ENDBRANCH  25  26
ENDBRANCH  24  25
ENDBRANCH  23  24
ENDBRANCH  22  23
ENDBRANCH   3  22
TORSDOF 11
ENDMDL
MODEL 5
REMARK VINA RESULT:      -7.6      2.148      3.103
REMARK  Name = 
REMARK  11 active torsions:
REMARK  status: ('A' for Active; 'I' for Inactive)
REMARK    1  A    between atoms: N_1  and  C_2
REMARK    2  A    between atoms: N_10  and  C_11
REMARK    3  A    between atoms: C_13  and  C_14
REMARK    4  A    between atoms: C_14  and  S_15
REMARK    5  A    between atoms: S_15  and  C_16
REMARK    6  A    between atoms: C_16  and  C_17
REMARK    7  A    between atoms: C_17  and  C_18
REMARK    8  A    between atoms: C_18  and  N_19
REMARK    9  A    between atoms: C_18  and  C_20
REMARK   10  A    between atoms: C_31  and  O_32
REMARK   11  A    between atoms: C_33  and  O_34
REMARK                            x       y       z     vdW  Elec       q    Type
REMARK                         _______ _______ _______ _____ _____    ______ ____
ROOT
ATOM      1  C   UNL     1       3.637   4.037  18.237  0.00  0.00    +0.000 C 
ATOM      2  O   UNL     1       2.220   4.309  18.294  0.00  0.00    +0.000 OA
ATOM      3  C   UNL     1       1.599   3.451  19.283  0.00  0.00    +0.000 C 
ATOM      4  C   UNL     1       2.684   2.489  19.752  0.00  0.00    +0.000 C 
ATOM      5  C   UNL     1       3.978   3.250  19.507  0.00  0.00    +0.000 C 
ENDROOT
BRANCH   1  14
ATOM      6  C   UNL     1       7.391   7.020  17.867  0.00  0.00    +0.000 A 
ATOM      7  N   UNL     1       8.103   6.439  18.862  0.00  0.00    +0.000 NA
ATOM      8  C   UNL     1       7.504   5.490  19.610  0.00  0.00    +0.000 A 
ATOM      9  N   UNL     1       6.271   4.982  19.465  0.00  0.00    +0.000 NA
ATOM     10  C   UNL     1       5.608   5.570  18.463  0.00  0.00    +0.000 A 
ATOM     11  C   UNL     1       6.063   6.596  17.656  0.00  0.00    +0.000 A 
ATOM     12  N   UNL     1       5.045   7.055  16.840  0.00  0.00    +0.000 NA
ATOM     13  C   UNL     1       4.040   6.231  17.065  0.00  0.00    +0.000 A 
ATOM     14  N   UNL     1       4.353   5.277  18.003  0.00  0.00    +0.000 N 
BRANCH   6  15
ATOM     15  N   UNL     1       7.957   8.128  17.232  0.00  0.00    +0.000 N 
ATOM     16  H   UNL     1       7.243   8.838  17.101  0.00  0.00    +0.000 HD
ATOM     17  H   UNL     1       8.462   7.866  16.391  0.00  0.00    +0.000 HD
ENDBRANCH   6  15
ENDBRANCH   1  14
BRANCH   4  18
ATOM     18  O   UNL     1       2.708   1.298  18.937  0.00  0.00    +0.000 OA
ATOM     19  H   UNL     1       2.435   0.533  19.477  0.00  0.00    +0.000 HD
ENDBRANCH   4  18
BRANCH   5  20
ATOM     20  O   UNL     1       5.049   2.320  19.344  0.00  0.00    +0.000 OA
ATOM     21  H   UNL     1       5.829   2.834  19.054  0.00  0.00    +0.000 HD
ENDBRANCH   5  20
BRANCH   3  22
ATOM     22  C   UNL     1       1.035   4.302  20.425  0.00  0.00    +0.000 C 
BRANCH  22  23
ATOM     23  S   UNL     1       2.079   5.789  20.647  0.00  0.00    +0.000 S 
BRANCH  23  24
ATOM     24  C   UNL     1       0.801   7.041  20.957  0.00  0.00    +0.000 C 
BRANCH  24  25
ATOM     25  C   UNL     1       1.324   8.382  21.454  0.00  0.00    +0.000 C 
BRANCH  25  26
ATOM     26  C   UNL     1       0.440   9.622  21.201  0.00  0.00    +0.000 C 
BRANCH  26  27
ATOM     27  C   UNL     1       0.563   9.871  19.693  0.00  0.00    +0.000 C 
ATOM     28  O   UNL     1       1.639   9.713  19.122  0.00  0.00    +0.000 OA
ATOM     29  N   UNL     1      -0.556  10.195  18.977  0.00  0.00    +0.000 N 
ATOM     30  C   UNL     1      -0.529  10.071  17.519  0.00  0.00    +0.000 C 
ATOM     31  C   UNL     1      -1.953  10.232  17.153  0.00  0.00    +0.000 A 
ATOM     32  C   UNL     1      -2.689   9.784  16.077  0.00  0.00    +0.000 A 
ATOM     33  C   UNL     1      -3.963  10.314  15.909  0.00  0.00    +0.000 A 
ATOM     34  C   UNL     1      -4.369  11.400  16.694  0.00  0.00    +0.000 A 
ATOM     35  C   UNL     1      -3.634  11.765  17.826  0.00  0.00    +0.000 A 
ATOM     36  C   UNL     1      -2.529  11.025  18.138  0.00  0.00    +0.000 A 
ATOM     37  C   UNL     1      -1.799  10.802  19.427  0.00  0.00    +0.000 C 
ENDBRANCH  26  27
BRANCH  26  38
ATOM     38  N   UNL     1       0.915  10.821  21.906  0.00  0.00    +0.000 NA
ATOM     39  H   UNL     1       0.558  10.780  22.866  0.00  0.00    +0.000 HD
ATOM     40  H   UNL     1       0.523  11.658  21.482  0.00  0.00    +0.000 HD
ENDBRANCH  26  38
ENDBRANCH  25  26
ENDBRANCH  24  25
ENDBRANCH  23  24
ENDBRANCH  22  23
ENDBRANCH   3  22
TORSDOF 11
ENDMDL
MODEL 6
REMARK VINA RESULT:      -7.6      2.221      3.499
REMARK  Name = 
REMARK  11 active torsions:
REMARK  status: ('A' for Active; 'I' for Inactive)
REMARK    1  A    between atoms: N_1  and  C_2
REMARK    2  A    between atoms: N_10  and  C_11
REMARK    3  A    between atoms: C_13  and  C_14
REMARK    4  A    between atoms: C_14  and  S_15
REMARK    5  A    between atoms: S_15  and  C_16
REMARK    6  A    between atoms: C_16  and  C_17
REMARK    7  A    between atoms: C_17  and  C_18
REMARK    8  A    between atoms: C_18  and  N_19
REMARK    9  A    between atoms: C_18  and  C_20
REMARK   10  A    between atoms: C_31  and  O_32
REMARK   11  A    between atoms: C_33  and  O_34
REMARK                            x       y       z     vdW  Elec       q    Type
REMARK                         _______ _______ _______ _____ _____    ______ ____
ROOT
ATOM      1  C   UNL     1       3.359   3.399  18.182  0.00  0.00    +0.000 C 
ATOM      2  O   UNL     1       2.336   4.388  18.428  0.00  0.00    +0.000 OA
ATOM      3  C   UNL     1       1.221   3.774  19.118  0.00  0.00    +0.000 C 
ATOM      4  C   UNL     1       1.519   2.280  19.161  0.00  0.00    +0.000 C 
ATOM      5  C   UNL     1       3.037   2.209  19.091  0.00  0.00    +0.000 C 
ENDROOT
BRANCH   1  14
ATOM      6  C   UNL     1       6.822   6.689  17.624  0.00  0.00    +0.000 A 
ATOM      7  N   UNL     1       6.453   7.039  16.369  0.00  0.00    +0.000 NA
ATOM      8  C   UNL     1       5.500   6.308  15.753  0.00  0.00    +0.000 A 
ATOM      9  N   UNL     1       4.802   5.276  16.250  0.00  0.00    +0.000 NA
ATOM     10  C   UNL     1       5.185   4.975  17.496  0.00  0.00    +0.000 A 
ATOM     11  C   UNL     1       6.186   5.586  18.228  0.00  0.00    +0.000 A 
ATOM     12  N   UNL     1       6.406   4.901  19.408  0.00  0.00    +0.000 NA
ATOM     13  C   UNL     1       5.467   3.976  19.438  0.00  0.00    +0.000 A 
ATOM     14  N   UNL     1       4.665   4.017  18.323  0.00  0.00    +0.000 N 
BRANCH   6  15
ATOM     15  N   UNL     1       7.937   7.331  18.169  0.00  0.00    +0.000 N 
ATOM     16  H   UNL     1       8.081   8.214  17.689  0.00  0.00    +0.000 HD
ATOM     17  H   UNL     1       8.748   6.720  18.198  0.00  0.00    +0.000 HD
ENDBRANCH   6  15
ENDBRANCH   1  14
BRANCH   4  18
ATOM     18  O   UNL     1       0.988   1.612  17.997  0.00  0.00    +0.000 OA
ATOM     19  H   UNL     1       0.778   2.275  17.313  0.00  0.00    +0.000 HD
ENDBRANCH   4  18
BRANCH   5  20
ATOM     20  O   UNL     1       3.425   0.945  18.551  0.00  0.00    +0.000 OA
ATOM     21  H   UNL     1       2.810   0.751  17.814  0.00  0.00    +0.000 HD
ENDBRANCH   5  20
BRANCH   3  22
ATOM     22  C   UNL     1       1.075   4.385  20.515  0.00  0.00    +0.000 C 
BRANCH  22  23
ATOM     23  S   UNL     1       2.344   5.683  20.744  0.00  0.00    +0.000 S 
BRANCH  23  24
ATOM     24  C   UNL     1       1.365   7.166  20.371  0.00  0.00    +0.000 C 
BRANCH  24  25
ATOM     25  C   UNL     1       1.360   8.224  21.466  0.00  0.00    +0.000 C 
BRANCH  25  26
ATOM     26  C   UNL     1       0.416   9.431  21.278  0.00  0.00    +0.000 C 
BRANCH  26  27
ATOM     27  C   UNL     1       0.568   9.802  19.797  0.00  0.00    +0.000 C 
ATOM     28  O   UNL     1       1.667   9.734  19.249  0.00  0.00    +0.000 OA
ATOM     29  N   UNL     1      -0.544  10.131  19.074  0.00  0.00    +0.000 N 
ATOM     30  C   UNL     1      -0.471  10.123  17.612  0.00  0.00    +0.000 C 
ATOM     31  C   UNL     1      -1.891  10.250  17.216  0.00  0.00    +0.000 A 
ATOM     32  C   UNL     1      -2.576   9.855  16.086  0.00  0.00    +0.000 A 
ATOM     33  C   UNL     1      -3.867  10.342  15.920  0.00  0.00    +0.000 A 
ATOM     34  C   UNL     1      -4.344  11.344  16.773  0.00  0.00    +0.000 A 
ATOM     35  C   UNL     1      -3.657  11.651  17.952  0.00  0.00    +0.000 A 
ATOM     36  C   UNL     1      -2.528  10.938  18.241  0.00  0.00    +0.000 A 
ATOM     37  C   UNL     1      -1.825  10.648  19.531  0.00  0.00    +0.000 C 
ENDBRANCH  26  27
BRANCH  26  38
ATOM     38  N   UNL     1       0.802  10.595  22.087  0.00  0.00    +0.000 NA
ATOM     39  H   UNL     1       0.486  10.426  23.046  0.00  0.00    +0.000 HD
ATOM     40  H   UNL     1       0.318  11.428  21.760  0.00  0.00    +0.000 HD
ENDBRANCH  26  38
ENDBRANCH  25  26
ENDBRANCH  24  25
ENDBRANCH  23  24
ENDBRANCH  22  23
ENDBRANCH   3  22
TORSDOF 11
ENDMDL
MODEL 7
REMARK VINA RESULT:      -7.5      5.915      8.954
REMARK  Name = 
REMARK  11 active torsions:
REMARK  status: ('A' for Active; 'I' for Inactive)
REMARK    1  A    between atoms: N_1  and  C_2
REMARK    2  A    between atoms: N_10  and  C_11
REMARK    3  A    between atoms: C_13  and  C_14
REMARK    4  A    between atoms: C_14  and  S_15
REMARK    5  A    between atoms: S_15  and  C_16
REMARK    6  A    between atoms: C_16  and  C_17
REMARK    7  A    between atoms: C_17  and  C_18
REMARK    8  A    between atoms: C_18  and  N_19
REMARK    9  A    between atoms: C_18  and  C_20
REMARK   10  A    between atoms: C_31  and  O_32
REMARK   11  A    between atoms: C_33  and  O_34
REMARK                            x       y       z     vdW  Elec       q    Type
REMARK                         _______ _______ _______ _____ _____    ______ ____
ROOT
ATOM      1  C   UNL     1       5.372   4.632  17.080  0.00  0.00    +0.000 C 
ATOM      2  O   UNL     1       6.357   4.599  18.134  0.00  0.00    +0.000 OA
ATOM      3  C   UNL     1       7.525   5.357  17.733  0.00  0.00    +0.000 C 
ATOM      4  C   UNL     1       7.296   5.752  16.279  0.00  0.00    +0.000 C 
ATOM      5  C   UNL     1       5.781   5.771  16.140  0.00  0.00    +0.000 C 
ENDROOT
BRANCH   1  14
ATOM      6  C   UNL     1       1.593   3.245  19.711  0.00  0.00    +0.000 A 
ATOM      7  N   UNL     1       1.767   1.922  19.482  0.00  0.00    +0.000 NA
ATOM      8  C   UNL     1       2.694   1.544  18.577  0.00  0.00    +0.000 A 
ATOM      9  N   UNL     1       3.537   2.325  17.884  0.00  0.00    +0.000 NA
ATOM     10  C   UNL     1       3.343   3.621  18.152  0.00  0.00    +0.000 A 
ATOM     11  C   UNL     1       2.394   4.161  19.000  0.00  0.00    +0.000 A 
ATOM     12  N   UNL     1       2.386   5.539  18.898  0.00  0.00    +0.000 NA
ATOM     13  C   UNL     1       3.399   5.822  18.101  0.00  0.00    +0.000 A 
ATOM     14  N   UNL     1       4.046   4.690  17.667  0.00  0.00    +0.000 N 
BRANCH   6  15
ATOM     15  N   UNL     1       0.505   3.623  20.501  0.00  0.00    +0.000 N 
ATOM     16  H   UNL     1      -0.110   2.825  20.625  0.00  0.00    +0.000 HD
ATOM     17  H   UNL     1       0.054   4.462  20.148  0.00  0.00    +0.000 HD
ENDBRANCH   6  15
ENDBRANCH   1  14
BRANCH   4  18
ATOM     18  O   UNL     1       7.812   4.746  15.382  0.00  0.00    +0.000 OA
ATOM     19  H   UNL     1       8.704   5.007  15.086  0.00  0.00    +0.000 HD
ENDBRANCH   4  18
BRANCH   5  20
ATOM     20  O   UNL     1       5.431   5.551  14.774  0.00  0.00    +0.000 OA
ATOM     21  H   UNL     1       4.923   4.714  14.743  0.00  0.00    +0.000 HD
ENDBRANCH   5  20
BRANCH   3  22
ATOM     22  C   UNL     1       7.695   6.570  18.652  0.00  0.00    +0.000 C 
BRANCH  22  23
ATOM     23  S   UNL     1       7.917   8.075  17.634  0.00  0.00    +0.000 S 
BRANCH  23  24
ATOM     24  C   UNL     1       8.760   9.154  18.826  0.00  0.00    +0.000 C 
BRANCH  24  25
ATOM     25  C   UNL     1       9.020  10.573  18.336  0.00  0.00    +0.000 C 
BRANCH  25  26
ATOM     26  C   UNL     1       9.543  11.592  19.370  0.00  0.00    +0.000 C 
BRANCH  26  27
ATOM     27  C   UNL     1      10.834  12.135  18.745  0.00  0.00    +0.000 C 
ATOM     28  O   UNL     1      11.572  11.394  18.099  0.00  0.00    +0.000 OA
ATOM     29  N   UNL     1      11.116  13.469  18.848  0.00  0.00    +0.000 N 
ATOM     30  C   UNL     1      12.123  14.054  17.961  0.00  0.00    +0.000 C 
ATOM     31  C   UNL     1      11.940  15.506  18.177  0.00  0.00    +0.000 A 
ATOM     32  C   UNL     1      12.194  16.600  17.377  0.00  0.00    +0.000 A 
ATOM     33  C   UNL     1      12.133  17.854  17.973  0.00  0.00    +0.000 A 
ATOM     34  C   UNL     1      12.018  17.954  19.364  0.00  0.00    +0.000 A 
ATOM     35  C   UNL     1      11.676  16.833  20.125  0.00  0.00    +0.000 A 
ATOM     36  C   UNL     1      11.449  15.657  19.468  0.00  0.00    +0.000 A 
ATOM     37  C   UNL     1      10.658  14.438  19.831  0.00  0.00    +0.000 C 
ENDBRANCH  26  27
BRANCH  26  38
ATOM     38  N   UNL     1       9.879  10.979  20.663  0.00  0.00    +0.000 NA
ATOM     39  H   UNL     1      10.667  10.343  20.511  0.00  0.00    +0.000 HD
ATOM     40  H   UNL     1       9.103  10.413  20.998  0.00  0.00    +0.000 HD
ENDBRANCH  26  38
ENDBRANCH  25  26
ENDBRANCH  24  25
ENDBRANCH  23  24
ENDBRANCH  22  23
ENDBRANCH   3  22
TORSDOF 11
ENDMDL
MODEL 8
REMARK VINA RESULT:      -7.5      3.762      9.771
REMARK  Name = 
REMARK  11 active torsions:
REMARK  status: ('A' for Active; 'I' for Inactive)
REMARK    1  A    between atoms: N_1  and  C_2
REMARK    2  A    between atoms: N_10  and  C_11
REMARK    3  A    between atoms: C_13  and  C_14
REMARK    4  A    between atoms: C_14  and  S_15
REMARK    5  A    between atoms: S_15  and  C_16
REMARK    6  A    between atoms: C_16  and  C_17
REMARK    7  A    between atoms: C_17  and  C_18
REMARK    8  A    between atoms: C_18  and  N_19
REMARK    9  A    between atoms: C_18  and  C_20
REMARK   10  A    between atoms: C_31  and  O_32
REMARK   11  A    between atoms: C_33  and  O_34
REMARK                            x       y       z     vdW  Elec       q    Type
REMARK                         _______ _______ _______ _____ _____    ______ ____
ROOT
ATOM      1  C   UNL     1      -0.793  11.383  18.505  0.00  0.00    +0.000 C 
ATOM      2  O   UNL     1      -0.652  10.089  19.131  0.00  0.00    +0.000 OA
ATOM      3  C   UNL     1       0.739   9.854  19.457  0.00  0.00    +0.000 C 
ATOM      4  C   UNL     1       1.519  11.017  18.854  0.00  0.00    +0.000 C 
ATOM      5  C   UNL     1       0.503  12.147  18.798  0.00  0.00    +0.000 C 
ENDROOT
BRANCH   1  14
ATOM      6  C   UNL     1      -5.545  11.977  18.938  0.00  0.00    +0.000 A 
ATOM      7  N   UNL     1      -5.835  11.526  17.695  0.00  0.00    +0.000 NA
ATOM      8  C   UNL     1      -4.815  11.286  16.845  0.00  0.00    +0.000 A 
ATOM      9  N   UNL     1      -3.499  11.384  17.087  0.00  0.00    +0.000 NA
ATOM     10  C   UNL     1      -3.256  11.815  18.330  0.00  0.00    +0.000 A 
ATOM     11  C   UNL     1      -4.192  12.163  19.287  0.00  0.00    +0.000 A 
ATOM     12  N   UNL     1      -3.570  12.717  20.390  0.00  0.00    +0.000 NA
ATOM     13  C   UNL     1      -2.280  12.582  20.149  0.00  0.00    +0.000 A 
ATOM     14  N   UNL     1      -2.040  11.988  18.933  0.00  0.00    +0.000 N 
BRANCH   6  15
ATOM     15  N   UNL     1      -6.612  12.402  19.734  0.00  0.00    +0.000 N 
ATOM     16  H   UNL     1      -7.226  11.615  19.916  0.00  0.00    +0.000 HD
ATOM     17  H   UNL     1      -7.069  13.223  19.346  0.00  0.00    +0.000 HD
ENDBRANCH   6  15
ENDBRANCH   1  14
BRANCH   4  18
ATOM     18  O   UNL     1       1.929  10.719  17.503  0.00  0.00    +0.000 OA
ATOM     19  H   UNL     1       1.439   9.939  17.182  0.00  0.00    +0.000 HD
ENDBRANCH   4  18
BRANCH   5  20
ATOM     20  O   UNL     1       0.878  13.067  17.772  0.00  0.00    +0.000 OA
ATOM     21  H   UNL     1       0.111  13.147  17.169  0.00  0.00    +0.000 HD
ENDBRANCH   5  20
BRANCH   3  22
ATOM     22  C   UNL     1       0.906   9.759  20.976  0.00  0.00    +0.000 C 
BRANCH  22  23
ATOM     23  S   UNL     1       0.794   8.006  21.490  0.00  0.00    +0.000 S 
BRANCH  23  24
ATOM     24  C   UNL     1       2.048   7.267  20.404  0.00  0.00    +0.000 C 
BRANCH  24  25
ATOM     25  C   UNL     1       1.755   5.838  19.966  0.00  0.00    +0.000 C 
BRANCH  25  26
ATOM     26  C   UNL     1       2.694   4.732  20.493  0.00  0.00    +0.000 C 
BRANCH  26  27
ATOM     27  C   UNL     1       2.895   3.802  19.290  0.00  0.00    +0.000 C 
ATOM     28  O   UNL     1       2.107   2.883  19.076  0.00  0.00    +0.000 OA
ATOM     29  N   UNL     1       3.913   4.054  18.413  0.00  0.00    +0.000 N 
ATOM     30  C   UNL     1       3.891   3.420  17.095  0.00  0.00    +0.000 C 
ATOM     31  C   UNL     1       4.965   4.137  16.372  0.00  0.00    +0.000 A 
ATOM     32  C   UNL     1       5.173   4.386  15.032  0.00  0.00    +0.000 A 
ATOM     33  C   UNL     1       6.415   4.887  14.661  0.00  0.00    +0.000 A 
ATOM     34  C   UNL     1       7.452   4.931  15.601  0.00  0.00    +0.000 A 
ATOM     35  C   UNL     1       7.178   4.755  16.960  0.00  0.00    +0.000 A 
ATOM     36  C   UNL     1       5.879   4.554  17.332  0.00  0.00    +0.000 A 
ATOM     37  C   UNL     1       5.156   4.781  18.624  0.00  0.00    +0.000 C 
ENDBRANCH  26  27
BRANCH  26  38
ATOM     38  N   UNL     1       2.104   3.949  21.587  0.00  0.00    +0.000 NA
ATOM     39  H   UNL     1       1.968   4.579  22.383  0.00  0.00    +0.000 HD
ATOM     40  H   UNL     1       2.750   3.225  21.892  0.00  0.00    +0.000 HD
ENDBRANCH  26  38
ENDBRANCH  25  26
ENDBRANCH  24  25
ENDBRANCH  23  24
ENDBRANCH  22  23
ENDBRANCH   3  22
TORSDOF 11
ENDMDL
MODEL 9
REMARK VINA RESULT:      -7.5      1.103      1.620
REMARK  Name = 
REMARK  11 active torsions:
REMARK  status: ('A' for Active; 'I' for Inactive)
REMARK    1  A    between atoms: N_1  and  C_2
REMARK    2  A    between atoms: N_10  and  C_11
REMARK    3  A    between atoms: C_13  and  C_14
REMARK    4  A    between atoms: C_14  and  S_15
REMARK    5  A    between atoms: S_15  and  C_16
REMARK    6  A    between atoms: C_16  and  C_17
REMARK    7  A    between atoms: C_17  and  C_18
REMARK    8  A    between atoms: C_18  and  N_19
REMARK    9  A    between atoms: C_18  and  C_20
REMARK   10  A    between atoms: C_31  and  O_32
REMARK   11  A    between atoms: C_33  and  O_34
REMARK                            x       y       z     vdW  Elec       q    Type
REMARK                         _______ _______ _______ _____ _____    ______ ____
ROOT
ATOM      1  C   UNL     1       4.455   3.543  17.695  0.00  0.00    +0.000 C 
ATOM      2  O   UNL     1       3.168   3.431  17.051  0.00  0.00    +0.000 OA
ATOM      3  C   UNL     1       2.310   2.559  17.827  0.00  0.00    +0.000 C 
ATOM      4  C   UNL     1       3.182   1.982  18.936  0.00  0.00    +0.000 C 
ATOM      5  C   UNL     1       4.269   3.028  19.126  0.00  0.00    +0.000 C 
ENDROOT
BRANCH   1  14
ATOM      6  C   UNL     1       7.602   7.177  17.803  0.00  0.00    +0.000 A 
ATOM      7  N   UNL     1       8.238   6.752  18.921  0.00  0.00    +0.000 NA
ATOM      8  C   UNL     1       7.711   5.713  19.602  0.00  0.00    +0.000 A 
ATOM      9  N   UNL     1       6.633   4.981  19.285  0.00  0.00    +0.000 NA
ATOM     10  C   UNL     1       6.046   5.423  18.168  0.00  0.00    +0.000 A 
ATOM     11  C   UNL     1       6.428   6.509  17.402  0.00  0.00    +0.000 A 
ATOM     12  N   UNL     1       5.490   6.759  16.419  0.00  0.00    +0.000 NA
ATOM     13  C   UNL     1       4.631   5.762  16.515  0.00  0.00    +0.000 A 
ATOM     14  N   UNL     1       4.958   4.894  17.528  0.00  0.00    +0.000 N 
BRANCH   6  15
ATOM     15  N   UNL     1       8.049   8.367  17.222  0.00  0.00    +0.000 N 
ATOM     16  H   UNL     1       8.894   8.181  16.692  0.00  0.00    +0.000 HD
ATOM     17  H   UNL     1       8.126   9.116  17.905  0.00  0.00    +0.000 HD
ENDBRANCH   6  15
ENDBRANCH   1  14
BRANCH   4  18
ATOM     18  O   UNL     1       3.813   0.755  18.514  0.00  0.00    +0.000 OA
ATOM     19  H   UNL     1       4.116   0.851  17.591  0.00  0.00    +0.000 HD
ENDBRANCH   4  18
BRANCH   5  20
ATOM     20  O   UNL     1       5.431   2.405  19.675  0.00  0.00    +0.000 OA
ATOM     21  H   UNL     1       6.189   2.683  19.122  0.00  0.00    +0.000 HD
ENDBRANCH   5  20
BRANCH   3  22
ATOM     22  C   UNL     1       1.118   3.353  18.369  0.00  0.00    +0.000 C 
BRANCH  22  23
ATOM     23  S   UNL     1       1.693   4.487  19.685  0.00  0.00    +0.000 S 
BRANCH  23  24
ATOM     24  C   UNL     1       1.880   6.022  18.735  0.00  0.00    +0.000 C 
BRANCH  24  25
ATOM     25  C   UNL     1       2.361   7.222  19.541  0.00  0.00    +0.000 C 
BRANCH  25  26
ATOM     26  C   UNL     1       1.318   7.944  20.421  0.00  0.00    +0.000 C 
BRANCH  26  27
ATOM     27  C   UNL     1       1.086   9.283  19.711  0.00  0.00    +0.000 C 
ATOM     28  O   UNL     1       1.669   9.538  18.659  0.00  0.00    +0.000 OA
ATOM     29  N   UNL     1       0.165  10.158  20.217  0.00  0.00    +0.000 N 
ATOM     30  C   UNL     1      -0.327  11.244  19.369  0.00  0.00    +0.000 C 
ATOM     31  C   UNL     1      -1.468  11.772  20.149  0.00  0.00    +0.000 A 
ATOM     32  C   UNL     1      -2.617  12.436  19.774  0.00  0.00    +0.000 A 
ATOM     33  C   UNL     1      -3.379  13.012  20.784  0.00  0.00    +0.000 A 
ATOM     34  C   UNL     1      -2.870  13.072  22.087  0.00  0.00    +0.000 A 
ATOM     35  C   UNL     1      -1.750  12.314  22.441  0.00  0.00    +0.000 A 
ATOM     36  C   UNL     1      -1.188  11.515  21.485  0.00  0.00    +0.000 A 
ATOM     37  C   UNL     1      -0.342  10.283  21.575  0.00  0.00    +0.000 C 
ENDBRANCH  26  27
BRANCH  26  38
ATOM     38  N   UNL     1       1.805   8.222  21.780  0.00  0.00    +0.000 NA
ATOM     39  H   UNL     1       1.945   7.323  22.251  0.00  0.00    +0.000 HD
ATOM     40  H   UNL     1       1.100   8.726  22.311  0.00  0.00    +0.000 HD
ENDBRANCH  26  38
ENDBRANCH  25  26
ENDBRANCH  24  25
ENDBRANCH  23  24
ENDBRANCH  22  23
ENDBRANCH   3  22
TORSDOF 11
ENDMDL
