MODEL 1
REMARK VINA RESULT:      -7.8      0.000      0.000
REMARK  Name = 
REMARK  2 active torsions:
REMARK  status: ('A' for Active; 'I' for Inactive)
REMARK    1  A    between atoms: C_1  and  C_2
REMARK    2  A    between atoms: C_7  and  C_8
REMARK                            x       y       z     vdW  Elec       q    Type
REMARK                         _______ _______ _______ _____ _____    ______ ____
ROOT
ATOM      1  C   UNL     1       6.735   4.901  16.987  0.00  0.00    +0.000 C 
ATOM      2  C   UNL     1       5.417   5.144  17.619  0.00  0.00    +0.000 A 
ATOM      3  N   UNL     1       4.728   6.261  17.325  0.00  0.00    +0.000 NA
ATOM      4  N   UNL     1       3.642   6.257  18.171  0.00  0.00    +0.000 N 
ATOM      5  C   UNL     1       2.872   7.415  18.308  0.00  0.00    +0.000 A 
ATOM      6  N   UNL     1       2.059   7.642  19.320  0.00  0.00    +0.000 NA
ATOM      7  C   UNL     1       1.551   8.928  19.220  0.00  0.00    +0.000 A 
ATOM      8  C   UNL     1       1.941   9.621  18.089  0.00  0.00    +0.000 A 
ATOM      9  S   UNL     1       3.006   8.662  17.149  0.00  0.00    +0.000 S 
ATOM     10  C   UNL     1       3.594   5.075  18.844  0.00  0.00    +0.000 A 
ATOM     11  C   UNL     1       4.725   4.359  18.547  0.00  0.00    +0.000 A 
ATOM     12  C   UNL     1       4.838   3.070  19.284  0.00  0.00    +0.000 C 
ATOM     13  C   UNL     1       3.508   3.166  20.052  0.00  0.00    +0.000 A 
ATOM     14  C   UNL     1       2.985   2.224  20.925  0.00  0.00    +0.000 A 
ATOM     15  C   UNL     1       1.737   2.481  21.504  0.00  0.00    +0.000 A 
ATOM     16  C   UNL     1       1.026   3.659  21.207  0.00  0.00    +0.000 A 
ATOM     17  C   UNL     1       1.549   4.614  20.331  0.00  0.00    +0.000 A 
ATOM     18  C   UNL     1       2.786   4.362  19.777  0.00  0.00    +0.000 A 
ENDROOT
BRANCH   7  19
ATOM     19  C   UNL     1       0.705   9.488  20.266  0.00  0.00    +0.000 A 
ATOM     20  C   UNL     1       0.016  10.689  20.030  0.00  0.00    +0.000 A 
ATOM     21  C   UNL     1      -0.798  11.249  21.021  0.00  0.00    +0.000 A 
ATOM     22  C   UNL     1      -0.919  10.614  22.255  0.00  0.00    +0.000 A 
ATOM     23 CL   UNL     1      -1.895  11.314  23.486  0.00  0.00    +0.000 Cl
ATOM     24  C   UNL     1      -0.247   9.419  22.502  0.00  0.00    +0.000 A 
ATOM     25  C   UNL     1       0.562   8.857  21.509  0.00  0.00    +0.000 A 
ENDBRANCH   7  19
TORSDOF 1
ENDMDL
MODEL 2
REMARK VINA RESULT:      -6.9      6.971     10.494
REMARK  Name = 
REMARK  2 active torsions:
REMARK  status: ('A' for Active; 'I' for Inactive)
REMARK    1  A    between atoms: C_1  and  C_2
REMARK    2  A    between atoms: C_7  and  C_8
REMARK                            x       y       z     vdW  Elec       q    Type
REMARK                         _______ _______ _______ _____ _____    ______ ____
ROOT
ATOM      1  C   UNL     1      -1.181  15.255  24.731  0.00  0.00    +0.000 C 
ATOM      2  C   UNL     1      -1.947  14.387  23.806  0.00  0.00    +0.000 A 
ATOM      3  N   UNL     1      -1.304  13.475  23.055  0.00  0.00    +0.000 NA
ATOM      4  N   UNL     1      -2.260  12.950  22.216  0.00  0.00    +0.000 N 
ATOM      5  C   UNL     1      -1.866  12.169  21.125  0.00  0.00    +0.000 A 
ATOM      6  N   UNL     1      -2.632  11.922  20.083  0.00  0.00    +0.000 NA
ATOM      7  C   UNL     1      -1.899  11.234  19.129  0.00  0.00    +0.000 A 
ATOM      8  C   UNL     1      -0.608  10.913  19.507  0.00  0.00    +0.000 A 
ATOM      9  S   UNL     1      -0.284  11.528  21.074  0.00  0.00    +0.000 S 
ATOM     10  C   UNL     1      -3.487  13.420  22.572  0.00  0.00    +0.000 A 
ATOM     11  C   UNL     1      -3.322  14.364  23.554  0.00  0.00    +0.000 A 
ATOM     12  C   UNL     1      -4.588  15.021  23.982  0.00  0.00    +0.000 C 
ATOM     13  C   UNL     1      -5.538  14.232  23.064  0.00  0.00    +0.000 A 
ATOM     14  C   UNL     1      -6.918  14.352  23.000  0.00  0.00    +0.000 A 
ATOM     15  C   UNL     1      -7.614  13.516  22.119  0.00  0.00    +0.000 A 
ATOM     16  C   UNL     1      -6.937  12.575  21.322  0.00  0.00    +0.000 A 
ATOM     17  C   UNL     1      -5.546  12.451  21.379  0.00  0.00    +0.000 A 
ATOM     18  C   UNL     1      -4.866  13.288  22.237  0.00  0.00    +0.000 A 
ENDROOT
BRANCH   7  19
ATOM     19  C   UNL     1      -2.466  10.922  17.823  0.00  0.00    +0.000 A 
ATOM     20  C   UNL     1      -1.823   9.988  16.994  0.00  0.00    +0.000 A 
ATOM     21  C   UNL     1      -2.344   9.676  15.734  0.00  0.00    +0.000 A 
ATOM     22  C   UNL     1      -3.507  10.304  15.294  0.00  0.00    +0.000 A 
ATOM     23 CL   UNL     1      -4.136   9.946  13.734  0.00  0.00    +0.000 Cl
ATOM     24  C   UNL     1      -4.160  11.228  16.107  0.00  0.00    +0.000 A 
ATOM     25  C   UNL     1      -3.642  11.535  17.369  0.00  0.00    +0.000 A 
ENDBRANCH   7  19
TORSDOF 1
ENDMDL
MODEL 3
REMARK VINA RESULT:      -6.8      6.979     10.582
REMARK  Name = 
REMARK  2 active torsions:
REMARK  status: ('A' for Active; 'I' for Inactive)
REMARK    1  A    between atoms: C_1  and  C_2
REMARK    2  A    between atoms: C_7  and  C_8
REMARK                            x       y       z     vdW  Elec       q    Type
REMARK                         _______ _______ _______ _____ _____    ______ ____
ROOT
ATOM      1  C   UNL     1      -1.020  15.557  25.003  0.00  0.00    +0.000 C 
ATOM      2  C   UNL     1      -1.798  14.686  24.091  0.00  0.00    +0.000 A 
ATOM      3  N   UNL     1      -1.174  13.723  23.389  0.00  0.00    +0.000 NA
ATOM      4  N   UNL     1      -2.129  13.203  22.546  0.00  0.00    +0.000 N 
ATOM      5  C   UNL     1      -1.741  12.369  21.494  0.00  0.00    +0.000 A 
ATOM      6  N   UNL     1      -2.492  12.113  20.442  0.00  0.00    +0.000 NA
ATOM      7  C   UNL     1      -1.765  11.363  19.532  0.00  0.00    +0.000 A 
ATOM      8  C   UNL     1      -0.496  11.008  19.952  0.00  0.00    +0.000 A 
ATOM      9  S   UNL     1      -0.184  11.667  21.504  0.00  0.00    +0.000 S 
ATOM     10  C   UNL     1      -3.345  13.732  22.855  0.00  0.00    +0.000 A 
ATOM     11  C   UNL     1      -3.167  14.705  23.807  0.00  0.00    +0.000 A 
ATOM     12  C   UNL     1      -4.416  15.424  24.180  0.00  0.00    +0.000 C 
ATOM     13  C   UNL     1      -5.375  14.638  23.268  0.00  0.00    +0.000 A 
ATOM     14  C   UNL     1      -6.747  14.808  23.166  0.00  0.00    +0.000 A 
ATOM     15  C   UNL     1      -7.454  13.967  22.299  0.00  0.00    +0.000 A 
ATOM     16  C   UNL     1      -6.795  12.972  21.553  0.00  0.00    +0.000 A 
ATOM     17  C   UNL     1      -5.412  12.798  21.648  0.00  0.00    +0.000 A 
ATOM     18  C   UNL     1      -4.720  13.640  22.492  0.00  0.00    +0.000 A 
ENDROOT
BRANCH   7  19
ATOM     19  C   UNL     1      -2.312  11.025  18.224  0.00  0.00    +0.000 A 
ATOM     20  C   UNL     1      -3.532  11.589  17.817  0.00  0.00    +0.000 A 
ATOM     21  C   UNL     1      -4.080  11.275  16.569  0.00  0.00    +0.000 A 
ATOM     22  C   UNL     1      -3.414  10.387  15.727  0.00  0.00    +0.000 A 
ATOM     23 CL   UNL     1      -4.099   9.975  14.204  0.00  0.00    +0.000 Cl
ATOM     24  C   UNL     1      -2.200   9.825  16.114  0.00  0.00    +0.000 A 
ATOM     25  C   UNL     1      -1.650  10.144  17.359  0.00  0.00    +0.000 A 
ENDBRANCH   7  19
TORSDOF 1
ENDMDL
MODEL 4
REMARK VINA RESULT:      -6.6      6.527      9.679
REMARK  Name = 
REMARK  2 active torsions:
REMARK  status: ('A' for Active; 'I' for Inactive)
REMARK    1  A    between atoms: C_1  and  C_2
REMARK    2  A    between atoms: C_7  and  C_8
REMARK                            x       y       z     vdW  Elec       q    Type
REMARK                         _______ _______ _______ _____ _____    ______ ____
ROOT
ATOM      1  C   UNL     1       5.093  14.364  17.908  0.00  0.00    +0.000 C 
ATOM      2  C   UNL     1       3.669  14.501  18.293  0.00  0.00    +0.000 A 
ATOM      3  N   UNL     1       3.026  13.466  18.860  0.00  0.00    +0.000 NA
ATOM      4  N   UNL     1       1.710  13.859  18.958  0.00  0.00    +0.000 N 
ATOM      5  C   UNL     1       0.727  12.911  19.256  0.00  0.00    +0.000 A 
ATOM      6  N   UNL     1      -0.558  13.087  19.027  0.00  0.00    +0.000 NA
ATOM      7  C   UNL     1      -1.239  11.914  19.313  0.00  0.00    +0.000 A 
ATOM      8  C   UNL     1      -0.454  10.895  19.823  0.00  0.00    +0.000 A 
ATOM      9  S   UNL     1       1.183  11.397  19.902  0.00  0.00    +0.000 S 
ATOM     10  C   UNL     1       1.600  15.170  18.608  0.00  0.00    +0.000 A 
ATOM     11  C   UNL     1       2.817  15.600  18.145  0.00  0.00    +0.000 A 
ATOM     12  C   UNL     1       2.816  17.005  17.651  0.00  0.00    +0.000 C 
ATOM     13  C   UNL     1       1.342  17.320  17.959  0.00  0.00    +0.000 A 
ATOM     14  C   UNL     1       0.691  18.528  17.754  0.00  0.00    +0.000 A 
ATOM     15  C   UNL     1      -0.652  18.627  18.133  0.00  0.00    +0.000 A 
ATOM     16  C   UNL     1      -1.328  17.536  18.709  0.00  0.00    +0.000 A 
ATOM     17  C   UNL     1      -0.680  16.315  18.915  0.00  0.00    +0.000 A 
ATOM     18  C   UNL     1       0.639  16.220  18.526  0.00  0.00    +0.000 A 
ENDROOT
BRANCH   7  19
ATOM     19  C   UNL     1      -2.666  11.786  19.048  0.00  0.00    +0.000 A 
ATOM     20  C   UNL     1      -3.105  10.967  17.996  0.00  0.00    +0.000 A 
ATOM     21  C   UNL     1      -4.470  10.833  17.720  0.00  0.00    +0.000 A 
ATOM     22  C   UNL     1      -5.401  11.525  18.490  0.00  0.00    +0.000 A 
ATOM     23 CL   UNL     1      -7.078  11.387  18.135  0.00  0.00    +0.000 Cl
ATOM     24  C   UNL     1      -4.982  12.337  19.542  0.00  0.00    +0.000 A 
ATOM     25  C   UNL     1      -3.618  12.465  19.821  0.00  0.00    +0.000 A 
ENDBRANCH   7  19
TORSDOF 1
ENDMDL
MODEL 5
REMARK VINA RESULT:      -6.4      5.097      9.592
REMARK  Name = 
REMARK  2 active torsions:
REMARK  status: ('A' for Active; 'I' for Inactive)
REMARK    1  A    between atoms: C_1  and  C_2
REMARK    2  A    between atoms: C_7  and  C_8
REMARK                            x       y       z     vdW  Elec       q    Type
REMARK                         _______ _______ _______ _____ _____    ______ ____
ROOT
ATOM      1  C   UNL     1      -1.244  17.362  21.158  0.00  0.00    +0.000 C 
ATOM      2  C   UNL     1      -0.485  16.327  20.418  0.00  0.00    +0.000 A 
ATOM      3  N   UNL     1      -1.080  15.167  20.088  0.00  0.00    +0.000 NA
ATOM      4  N   UNL     1      -0.084  14.382  19.552  0.00  0.00    +0.000 N 
ATOM      5  C   UNL     1      -0.312  13.017  19.357  0.00  0.00    +0.000 A 
ATOM      6  N   UNL     1       0.646  12.126  19.198  0.00  0.00    +0.000 NA
ATOM      7  C   UNL     1       0.090  10.857  19.162  0.00  0.00    +0.000 A 
ATOM      8  C   UNL     1      -1.292  10.825  19.222  0.00  0.00    +0.000 A 
ATOM      9  S   UNL     1      -1.911  12.416  19.378  0.00  0.00    +0.000 S 
ATOM     10  C   UNL     1       1.051  15.120  19.411  0.00  0.00    +0.000 A 
ATOM     11  C   UNL     1       0.844  16.349  19.985  0.00  0.00    +0.000 A 
ATOM     12  C   UNL     1       2.043  17.234  19.971  0.00  0.00    +0.000 C 
ATOM     13  C   UNL     1       2.988  16.271  19.230  0.00  0.00    +0.000 A 
ATOM     14  C   UNL     1       4.302  16.520  18.861  0.00  0.00    +0.000 A 
ATOM     15  C   UNL     1       4.991  15.525  18.159  0.00  0.00    +0.000 A 
ATOM     16  C   UNL     1       4.371  14.305  17.831  0.00  0.00    +0.000 A 
ATOM     17  C   UNL     1       3.049  14.046  18.203  0.00  0.00    +0.000 A 
ATOM     18  C   UNL     1       2.381  15.025  18.907  0.00  0.00    +0.000 A 
ENDROOT
BRANCH   7  19
ATOM     19  C   UNL     1       0.929   9.667  19.101  0.00  0.00    +0.000 A 
ATOM     20  C   UNL     1       1.598   9.351  17.908  0.00  0.00    +0.000 A 
ATOM     21  C   UNL     1       2.404   8.211  17.825  0.00  0.00    +0.000 A 
ATOM     22  C   UNL     1       2.537   7.377  18.933  0.00  0.00    +0.000 A 
ATOM     23 CL   UNL     1       3.503   5.958  18.826  0.00  0.00    +0.000 Cl
ATOM     24  C   UNL     1       1.885   7.681  20.126  0.00  0.00    +0.000 A 
ATOM     25  C   UNL     1       1.083   8.824  20.210  0.00  0.00    +0.000 A 
ENDBRANCH   7  19
TORSDOF 1
ENDMDL
MODEL 6
REMARK VINA RESULT:      -6.3      5.457      7.764
REMARK  Name = 
REMARK  2 active torsions:
REMARK  status: ('A' for Active; 'I' for Inactive)
REMARK    1  A    between atoms: C_1  and  C_2
REMARK    2  A    between atoms: C_7  and  C_8
REMARK                            x       y       z     vdW  Elec       q    Type
REMARK                         _______ _______ _______ _____ _____    ______ ____
ROOT
ATOM      1  C   UNL     1      -2.712  11.017  15.849  0.00  0.00    +0.000 C 
ATOM      2  C   UNL     1      -2.460  11.083  17.308  0.00  0.00    +0.000 A 
ATOM      3  N   UNL     1      -3.289  11.784  18.101  0.00  0.00    +0.000 NA
ATOM      4  N   UNL     1      -2.707  11.769  19.348  0.00  0.00    +0.000 N 
ATOM      5  C   UNL     1      -3.179  12.634  20.340  0.00  0.00    +0.000 A 
ATOM      6  N   UNL     1      -2.495  12.959  21.418  0.00  0.00    +0.000 NA
ATOM      7  C   UNL     1      -3.188  13.931  22.123  0.00  0.00    +0.000 A 
ATOM      8  C   UNL     1      -4.421  14.266  21.594  0.00  0.00    +0.000 A 
ATOM      9  S   UNL     1      -4.703  13.382  20.153  0.00  0.00    +0.000 S 
ATOM     10  C   UNL     1      -1.633  10.933  19.339  0.00  0.00    +0.000 A 
ATOM     11  C   UNL     1      -1.423  10.509  18.051  0.00  0.00    +0.000 A 
ATOM     12  C   UNL     1      -0.221   9.645  17.885  0.00  0.00    +0.000 C 
ATOM     13  C   UNL     1       0.210   9.624  19.362  0.00  0.00    +0.000 A 
ATOM     14  C   UNL     1       1.288   8.938  19.901  0.00  0.00    +0.000 A 
ATOM     15  C   UNL     1       1.498   9.017  21.282  0.00  0.00    +0.000 A 
ATOM     16  C   UNL     1       0.638   9.766  22.107  0.00  0.00    +0.000 A 
ATOM     17  C   UNL     1      -0.449  10.462  21.570  0.00  0.00    +0.000 A 
ATOM     18  C   UNL     1      -0.640  10.392  20.207  0.00  0.00    +0.000 A 
ENDROOT
BRANCH   7  19
ATOM     19  C   UNL     1      -2.614  14.557  23.307  0.00  0.00    +0.000 A 
ATOM     20  C   UNL     1      -1.389  15.236  23.207  0.00  0.00    +0.000 A 
ATOM     21  C   UNL     1      -0.816  15.840  24.331  0.00  0.00    +0.000 A 
ATOM     22  C   UNL     1      -1.462  15.759  25.563  0.00  0.00    +0.000 A 
ATOM     23 CL   UNL     1      -0.747  16.475  26.953  0.00  0.00    +0.000 Cl
ATOM     24  C   UNL     1      -2.681  15.095  25.677  0.00  0.00    +0.000 A 
ATOM     25  C   UNL     1      -3.256  14.496  24.552  0.00  0.00    +0.000 A 
ENDBRANCH   7  19
TORSDOF 1
ENDMDL
MODEL 7
REMARK VINA RESULT:      -6.3      6.295      8.525
REMARK  Name = 
REMARK  2 active torsions:
REMARK  status: ('A' for Active; 'I' for Inactive)
REMARK    1  A    between atoms: C_1  and  C_2
REMARK    2  A    between atoms: C_7  and  C_8
REMARK                            x       y       z     vdW  Elec       q    Type
REMARK                         _______ _______ _______ _____ _____    ______ ____
ROOT
ATOM      1  C   UNL     1      -2.914  10.149  15.158  0.00  0.00    +0.000 C 
ATOM      2  C   UNL     1      -2.918  10.515  16.593  0.00  0.00    +0.000 A 
ATOM      3  N   UNL     1      -4.043  10.980  17.163  0.00  0.00    +0.000 NA
ATOM      4  N   UNL     1      -3.682  11.359  18.436  0.00  0.00    +0.000 N 
ATOM      5  C   UNL     1      -4.559  12.134  19.201  0.00  0.00    +0.000 A 
ATOM      6  N   UNL     1      -4.193  12.838  20.252  0.00  0.00    +0.000 NA
ATOM      7  C   UNL     1      -5.269  13.589  20.697  0.00  0.00    +0.000 A 
ATOM      8  C   UNL     1      -6.450  13.378  20.010  0.00  0.00    +0.000 A 
ATOM      9  S   UNL     1      -6.200  12.250  18.743  0.00  0.00    +0.000 S 
ATOM     10  C   UNL     1      -2.399  10.972  18.680  0.00  0.00    +0.000 A 
ATOM     11  C   UNL     1      -1.871  10.466  17.519  0.00  0.00    +0.000 A 
ATOM     12  C   UNL     1      -0.437  10.077  17.625  0.00  0.00    +0.000 C 
ATOM     13  C   UNL     1      -0.248  10.429  19.111  0.00  0.00    +0.000 A 
ATOM     14  C   UNL     1       0.906  10.263  19.862  0.00  0.00    +0.000 A 
ATOM     15  C   UNL     1       0.870  10.614  21.216  0.00  0.00    +0.000 A 
ATOM     16  C   UNL     1      -0.305  11.118  21.805  0.00  0.00    +0.000 A 
ATOM     17  C   UNL     1      -1.470  11.291  21.054  0.00  0.00    +0.000 A 
ATOM     18  C   UNL     1      -1.422  10.958  19.717  0.00  0.00    +0.000 A 
ENDROOT
BRANCH   7  19
ATOM     19  C   UNL     1      -5.122  14.547  21.786  0.00  0.00    +0.000 A 
ATOM     20  C   UNL     1      -6.212  14.805  22.633  0.00  0.00    +0.000 A 
ATOM     21  C   UNL     1      -6.096  15.724  23.681  0.00  0.00    +0.000 A 
ATOM     22  C   UNL     1      -4.892  16.395  23.881  0.00  0.00    +0.000 A 
ATOM     23 CL   UNL     1      -4.755  17.548  25.150  0.00  0.00    +0.000 Cl
ATOM     24  C   UNL     1      -3.800  16.145  23.053  0.00  0.00    +0.000 A 
ATOM     25  C   UNL     1      -3.914  15.222  22.009  0.00  0.00    +0.000 A 
ENDBRANCH   7  19
TORSDOF 1
ENDMDL
MODEL 8
REMARK VINA RESULT:      -6.3      2.623      4.469
REMARK  Name = 
REMARK  2 active torsions:
REMARK  status: ('A' for Active; 'I' for Inactive)
REMARK    1  A    between atoms: C_1  and  C_2
REMARK    2  A    between atoms: C_7  and  C_8
REMARK                            x       y       z     vdW  Elec       q    Type
REMARK                         _______ _______ _______ _____ _____    ______ ____
ROOT
ATOM      1  C   UNL     1       0.706   2.393  19.433  0.00  0.00    +0.000 C 
ATOM      2  C   UNL     1       1.447   3.667  19.282  0.00  0.00    +0.000 A 
ATOM      3  N   UNL     1       1.168   4.705  20.090  0.00  0.00    +0.000 NA
ATOM      4  N   UNL     1       1.908   5.760  19.605  0.00  0.00    +0.000 N 
ATOM      5  C   UNL     1       1.640   7.055  20.055  0.00  0.00    +0.000 A 
ATOM      6  N   UNL     1       2.017   8.147  19.421  0.00  0.00    +0.000 NA
ATOM      7  C   UNL     1       1.481   9.255  20.059  0.00  0.00    +0.000 A 
ATOM      8  C   UNL     1       0.767   8.975  21.210  0.00  0.00    +0.000 A 
ATOM      9  S   UNL     1       0.720   7.282  21.476  0.00  0.00    +0.000 S 
ATOM     10  C   UNL     1       2.742   5.317  18.624  0.00  0.00    +0.000 A 
ATOM     11  C   UNL     1       2.451   4.001  18.367  0.00  0.00    +0.000 A 
ATOM     12  C   UNL     1       3.242   3.412  17.251  0.00  0.00    +0.000 C 
ATOM     13  C   UNL     1       4.089   4.657  16.933  0.00  0.00    +0.000 A 
ATOM     14  C   UNL     1       5.084   4.758  15.973  0.00  0.00    +0.000 A 
ATOM     15  C   UNL     1       5.769   5.974  15.857  0.00  0.00    +0.000 A 
ATOM     16  C   UNL     1       5.462   7.064  16.693  0.00  0.00    +0.000 A 
ATOM     17  C   UNL     1       4.458   6.969  17.660  0.00  0.00    +0.000 A 
ATOM     18  C   UNL     1       3.777   5.774  17.758  0.00  0.00    +0.000 A 
ENDROOT
BRANCH   7  19
ATOM     19  C   UNL     1       1.647  10.595  19.511  0.00  0.00    +0.000 A 
ATOM     20  C   UNL     1       2.275  10.762  18.267  0.00  0.00    +0.000 A 
ATOM     21  C   UNL     1       2.450  12.038  17.723  0.00  0.00    +0.000 A 
ATOM     22  C   UNL     1       2.005  13.155  18.427  0.00  0.00    +0.000 A 
ATOM     23 CL   UNL     1       2.245  14.729  17.776  0.00  0.00    +0.000 Cl
ATOM     24  C   UNL     1       1.375  13.006  19.660  0.00  0.00    +0.000 A 
ATOM     25  C   UNL     1       1.195  11.729  20.200  0.00  0.00    +0.000 A 
ENDBRANCH   7  19
TORSDOF 1
ENDMDL
MODEL 9
REMARK VINA RESULT:      -6.3      7.674      9.621
REMARK  Name = 
REMARK  2 active torsions:
REMARK  status: ('A' for Active; 'I' for Inactive)
REMARK    1  A    between atoms: C_1  and  C_2
REMARK    2  A    between atoms: C_7  and  C_8
REMARK                            x       y       z     vdW  Elec       q    Type
REMARK                         _______ _______ _______ _____ _____    ______ ____
ROOT
ATOM      1  C   UNL     1      -6.976  13.219  20.846  0.00  0.00    +0.000 C 
ATOM      2  C   UNL     1      -5.626  12.809  20.395  0.00  0.00    +0.000 A 
ATOM      3  N   UNL     1      -4.559  13.035  21.182  0.00  0.00    +0.000 NA
ATOM      4  N   UNL     1      -3.463  12.681  20.427  0.00  0.00    +0.000 N 
ATOM      5  C   UNL     1      -2.184  13.049  20.854  0.00  0.00    +0.000 A 
ATOM      6  N   UNL     1      -1.128  13.084  20.067  0.00  0.00    +0.000 NA
ATOM      7  C   UNL     1      -0.054  13.613  20.765  0.00  0.00    +0.000 A 
ATOM      8  C   UNL     1      -0.309  13.900  22.094  0.00  0.00    +0.000 A 
ATOM      9  S   UNL     1      -1.944  13.546  22.470  0.00  0.00    +0.000 S 
ATOM     10  C   UNL     1      -3.877  12.096  19.270  0.00  0.00    +0.000 A 
ATOM     11  C   UNL     1      -5.244  12.194  19.199  0.00  0.00    +0.000 A 
ATOM     12  C   UNL     1      -5.825  11.660  17.935  0.00  0.00    +0.000 C 
ATOM     13  C   UNL     1      -4.506  11.193  17.295  0.00  0.00    +0.000 A 
ATOM     14  C   UNL     1      -4.358  10.554  16.073  0.00  0.00    +0.000 A 
ATOM     15  C   UNL     1      -3.070  10.176  15.677  0.00  0.00    +0.000 A 
ATOM     16  C   UNL     1      -1.954  10.430  16.495  0.00  0.00    +0.000 A 
ATOM     17  C   UNL     1      -2.095  11.076  17.726  0.00  0.00    +0.000 A 
ATOM     18  C   UNL     1      -3.364  11.460  18.102  0.00  0.00    +0.000 A 
ENDROOT
BRANCH   7  19
ATOM     19  C   UNL     1       1.221  13.870  20.108  0.00  0.00    +0.000 A 
ATOM     20  C   UNL     1       1.435  13.397  18.804  0.00  0.00    +0.000 A 
ATOM     21  C   UNL     1       2.653  13.627  18.155  0.00  0.00    +0.000 A 
ATOM     22  C   UNL     1       3.665  14.322  18.812  0.00  0.00    +0.000 A 
ATOM     23 CL   UNL     1       5.174  14.581  18.029  0.00  0.00    +0.000 Cl
ATOM     24  C   UNL     1       3.465  14.803  20.104  0.00  0.00    +0.000 A 
ATOM     25  C   UNL     1       2.246  14.579  20.750  0.00  0.00    +0.000 A 
ENDBRANCH   7  19
TORSDOF 1
ENDMDL
