MODEL 1
REMARK VINA RESULT:      -8.2      0.000      0.000
REMARK  Name = 
REMARK  8 active torsions:
REMARK  status: ('A' for Active; 'I' for Inactive)
REMARK    1  A    between atoms: C_1  and  C_2
REMARK    2  A    between atoms: C_6  and  C_7
REMARK    3  A    between atoms: C_7  and  C_8
REMARK    4  A    between atoms: C_8  and  C_9
REMARK    5  A    between atoms: C_8  and  N_10
REMARK    6  A    between atoms: C_13  and  N_14
REMARK    7  A    between atoms: C_17  and  C_18
REMARK    8  A    between atoms: N_20  and  C_21
REMARK                            x       y       z     vdW  Elec       q    Type
REMARK                         _______ _______ _______ _____ _____    ______ ____
ROOT
ATOM      1  N   UNL     1       4.862   5.246  18.000  0.00  0.00    +0.000 NA
ATOM      2  C   UNL     1       4.766   5.632  19.417  0.00  0.00    +0.000 C 
ATOM      3  C   UNL     1       3.350   5.617  19.994  0.00  0.00    +0.000 C 
ATOM      4  C   UNL     1       2.313   6.391  19.155  0.00  0.00    +0.000 C 
ATOM      5  C   UNL     1       2.378   5.803  17.737  0.00  0.00    +0.000 C 
ATOM      6  C   UNL     1       3.782   5.747  17.126  0.00  0.00    +0.000 C 
ENDROOT
BRANCH   4   7
ATOM      7  N   UNL     1       2.277   7.884  19.227  0.00  0.00    +0.000 NA
ATOM      8  C   UNL     1       1.950   8.473  17.920  0.00  0.00    +0.000 C 
ATOM      9  C   UNL     1       1.861  10.003  17.945  0.00  0.00    +0.000 C 
ATOM     10  C   UNL     1       0.870  10.494  19.003  0.00  0.00    +0.000 C 
ATOM     11  C   UNL     1       1.349   9.966  20.351  0.00  0.00    +0.000 C 
ATOM     12  C   UNL     1       1.510   8.448  20.333  0.00  0.00    +0.000 C 
BRANCH  10  13
ATOM     13  C   UNL     1      -0.576  10.083  18.690  0.00  0.00    +0.000 C 
ATOM     14  O   UNL     1      -1.348   9.641  19.537  0.00  0.00    +0.000 OA
ATOM     15  N   UNL     1      -0.927  10.212  17.360  0.00  0.00    +0.000 N 
ATOM     16  H   UNL     1      -0.235  10.523  16.690  0.00  0.00    +0.000 HD
BRANCH  15  17
ATOM     17  C   UNL     1      -2.246   9.930  16.887  0.00  0.00    +0.000 C 
ATOM     18  C   UNL     1      -3.212  11.052  16.624  0.00  0.00    +0.000 C 
ATOM     19  C   UNL     1      -2.648  10.265  15.478  0.00  0.00    +0.000 C 
ENDBRANCH  15  17
ENDBRANCH  10  13
ENDBRANCH   4   7
BRANCH   1  20
ATOM     20  C   UNL     1       6.212   5.528  17.398  0.00  0.00    +0.000 C 
ATOM     21  C   UNL     1       7.231   5.982  18.465  0.00  0.00    +0.000 C 
BRANCH  20  22
ATOM     22  C   UNL     1       6.712   4.325  16.549  0.00  0.00    +0.000 C 
BRANCH  22  28
ATOM     23  C   UNL     1       5.485   2.904  11.846  0.00  0.00    +0.000 C 
ATOM     24  C   UNL     1       6.264   3.764  12.796  0.00  0.00    +0.000 A 
ATOM     25  C   UNL     1       7.242   4.633  12.325  0.00  0.00    +0.000 A 
ATOM     26  C   UNL     1       7.921   5.417  13.245  0.00  0.00    +0.000 A 
ATOM     27  N   UNL     1       7.711   5.377  14.580  0.00  0.00    +0.000 NA
ATOM     28  C   UNL     1       6.787   4.501  15.044  0.00  0.00    +0.000 A 
ATOM     29  C   UNL     1       6.040   3.696  14.180  0.00  0.00    +0.000 A 
ENDBRANCH  22  28
ENDBRANCH  20  22
ENDBRANCH   1  20
TORSDOF 6
ENDMDL
MODEL 2
REMARK VINA RESULT:      -7.3      3.364      8.070
REMARK  Name = 
REMARK  8 active torsions:
REMARK  status: ('A' for Active; 'I' for Inactive)
REMARK    1  A    between atoms: C_1  and  C_2
REMARK    2  A    between atoms: C_6  and  C_7
REMARK    3  A    between atoms: C_7  and  C_8
REMARK    4  A    between atoms: C_8  and  C_9
REMARK    5  A    between atoms: C_8  and  N_10
REMARK    6  A    between atoms: C_13  and  N_14
REMARK    7  A    between atoms: C_17  and  C_18
REMARK    8  A    between atoms: N_20  and  C_21
REMARK                            x       y       z     vdW  Elec       q    Type
REMARK                         _______ _______ _______ _____ _____    ______ ____
ROOT
ATOM      1  N   UNL     1       2.042   2.931  19.712  0.00  0.00    +0.000 NA
ATOM      2  C   UNL     1       1.739   3.545  18.409  0.00  0.00    +0.000 C 
ATOM      3  C   UNL     1       2.550   2.997  17.235  0.00  0.00    +0.000 C 
ATOM      4  C   UNL     1       4.073   2.965  17.472  0.00  0.00    +0.000 C 
ATOM      5  C   UNL     1       4.293   2.164  18.765  0.00  0.00    +0.000 C 
ATOM      6  C   UNL     1       3.468   2.639  19.966  0.00  0.00    +0.000 C 
ENDROOT
BRANCH   4   7
ATOM      7  N   UNL     1       4.860   4.232  17.364  0.00  0.00    +0.000 NA
ATOM      8  C   UNL     1       6.306   3.968  17.413  0.00  0.00    +0.000 C 
ATOM      9  C   UNL     1       7.162   5.231  17.266  0.00  0.00    +0.000 C 
ATOM     10  C   UNL     1       6.813   6.006  15.993  0.00  0.00    +0.000 C 
ATOM     11  C   UNL     1       5.335   6.371  16.075  0.00  0.00    +0.000 C 
ATOM     12  C   UNL     1       4.464   5.134  16.288  0.00  0.00    +0.000 C 
BRANCH  10  13
ATOM     13  C   UNL     1       7.155   5.223  14.716  0.00  0.00    +0.000 C 
ATOM     14  O   UNL     1       8.162   5.436  14.046  0.00  0.00    +0.000 OA
ATOM     15  N   UNL     1       6.209   4.281  14.358  0.00  0.00    +0.000 N 
ATOM     16  H   UNL     1       5.366   4.187  14.909  0.00  0.00    +0.000 HD
BRANCH  15  17
ATOM     17  C   UNL     1       6.380   3.419  13.230  0.00  0.00    +0.000 C 
ATOM     18  C   UNL     1       5.331   3.362  12.154  0.00  0.00    +0.000 C 
ATOM     19  C   UNL     1       6.667   3.981  11.866  0.00  0.00    +0.000 C 
ENDBRANCH  15  17
ENDBRANCH  10  13
ENDBRANCH   4   7
BRANCH   1  20
ATOM     20  C   UNL     1       1.432   3.668  20.873  0.00  0.00    +0.000 C 
ATOM     21  C   UNL     1       1.168   2.731  22.071  0.00  0.00    +0.000 C 
BRANCH  20  22
ATOM     22  C   UNL     1       2.274   4.920  21.251  0.00  0.00    +0.000 C 
BRANCH  22  28
ATOM     23  C   UNL     1       2.723   8.433  17.631  0.00  0.00    +0.000 C 
ATOM     24  C   UNL     1       2.168   7.963  18.942  0.00  0.00    +0.000 A 
ATOM     25  C   UNL     1       1.420   8.821  19.742  0.00  0.00    +0.000 A 
ATOM     26  C   UNL     1       0.917   8.330  20.937  0.00  0.00    +0.000 A 
ATOM     27  N   UNL     1       1.123   7.073  21.391  0.00  0.00    +0.000 NA
ATOM     28  C   UNL     1       1.886   6.249  20.632  0.00  0.00    +0.000 A 
ATOM     29  C   UNL     1       2.406   6.658  19.401  0.00  0.00    +0.000 A 
ENDBRANCH  22  28
ENDBRANCH  20  22
ENDBRANCH   1  20
TORSDOF 6
ENDMDL
MODEL 3
REMARK VINA RESULT:      -7.1      2.750      8.905
REMARK  Name = 
REMARK  8 active torsions:
REMARK  status: ('A' for Active; 'I' for Inactive)
REMARK    1  A    between atoms: C_1  and  C_2
REMARK    2  A    between atoms: C_6  and  C_7
REMARK    3  A    between atoms: C_7  and  C_8
REMARK    4  A    between atoms: C_8  and  C_9
REMARK    5  A    between atoms: C_8  and  N_10
REMARK    6  A    between atoms: C_13  and  N_14
REMARK    7  A    between atoms: C_17  and  C_18
REMARK    8  A    between atoms: N_20  and  C_21
REMARK                            x       y       z     vdW  Elec       q    Type
REMARK                         _______ _______ _______ _____ _____    ______ ____
ROOT
ATOM      1  N   UNL     1       0.680   9.576  19.973  0.00  0.00    +0.000 NA
ATOM      2  C   UNL     1       0.777   8.615  21.083  0.00  0.00    +0.000 C 
ATOM      3  C   UNL     1       2.082   7.821  21.136  0.00  0.00    +0.000 C 
ATOM      4  C   UNL     1       2.471   7.145  19.806  0.00  0.00    +0.000 C 
ATOM      5  C   UNL     1       2.500   8.258  18.747  0.00  0.00    +0.000 C 
ATOM      6  C   UNL     1       1.234   9.120  18.682  0.00  0.00    +0.000 C 
ENDROOT
BRANCH   4   7
ATOM      7  N   UNL     1       1.777   5.887  19.391  0.00  0.00    +0.000 NA
ATOM      8  C   UNL     1       1.961   5.625  17.955  0.00  0.00    +0.000 C 
ATOM      9  C   UNL     1       1.302   4.325  17.484  0.00  0.00    +0.000 C 
ATOM     10  C   UNL     1       1.777   3.121  18.301  0.00  0.00    +0.000 C 
ATOM     11  C   UNL     1       1.427   3.397  19.759  0.00  0.00    +0.000 C 
ATOM     12  C   UNL     1       2.017   4.722  20.236  0.00  0.00    +0.000 C 
BRANCH  10  13
ATOM     13  C   UNL     1       3.271   2.827  18.101  0.00  0.00    +0.000 C 
ATOM     14  O   UNL     1       3.913   2.073  18.828  0.00  0.00    +0.000 OA
ATOM     15  N   UNL     1       3.849   3.519  17.053  0.00  0.00    +0.000 N 
ATOM     16  H   UNL     1       3.293   4.176  16.522  0.00  0.00    +0.000 HD
BRANCH  15  17
ATOM     17  C   UNL     1       5.217   3.335  16.679  0.00  0.00    +0.000 C 
ATOM     18  C   UNL     1       5.781   4.061  15.489  0.00  0.00    +0.000 C 
ATOM     19  C   UNL     1       6.223   4.434  16.873  0.00  0.00    +0.000 C 
ENDBRANCH  15  17
ENDBRANCH  10  13
ENDBRANCH   4   7
BRANCH   1  20
ATOM     20  C   UNL     1      -0.704  10.137  19.792  0.00  0.00    +0.000 C 
ATOM     21  C   UNL     1      -1.161  10.941  21.029  0.00  0.00    +0.000 C 
BRANCH  20  22
ATOM     22  C   UNL     1      -0.817  10.941  18.466  0.00  0.00    +0.000 C 
BRANCH  22  28
ATOM     23  C   UNL     1      -3.569  10.058  14.307  0.00  0.00    +0.000 C 
ATOM     24  C   UNL     1      -3.440  10.567  15.711  0.00  0.00    +0.000 A 
ATOM     25  C   UNL     1      -4.502  11.219  16.329  0.00  0.00    +0.000 A 
ATOM     26  C   UNL     1      -4.334  11.656  17.634  0.00  0.00    +0.000 A 
ATOM     27  N   UNL     1      -3.193  11.510  18.344  0.00  0.00    +0.000 NA
ATOM     28  C   UNL     1      -2.144  10.912  17.730  0.00  0.00    +0.000 A 
ATOM     29  C   UNL     1      -2.241  10.418  16.426  0.00  0.00    +0.000 A 
ENDBRANCH  22  28
ENDBRANCH  20  22
ENDBRANCH   1  20
TORSDOF 6
ENDMDL
MODEL 4
REMARK VINA RESULT:      -7.1      4.157      6.070
REMARK  Name = 
REMARK  8 active torsions:
REMARK  status: ('A' for Active; 'I' for Inactive)
REMARK    1  A    between atoms: C_1  and  C_2
REMARK    2  A    between atoms: C_6  and  C_7
REMARK    3  A    between atoms: C_7  and  C_8
REMARK    4  A    between atoms: C_8  and  C_9
REMARK    5  A    between atoms: C_8  and  N_10
REMARK    6  A    between atoms: C_13  and  N_14
REMARK    7  A    between atoms: C_17  and  C_18
REMARK    8  A    between atoms: N_20  and  C_21
REMARK                            x       y       z     vdW  Elec       q    Type
REMARK                         _______ _______ _______ _____ _____    ______ ____
ROOT
ATOM      1  N   UNL     1       1.048   8.896  19.849  0.00  0.00    +0.000 NA
ATOM      2  C   UNL     1       1.181   9.718  21.062  0.00  0.00    +0.000 C 
ATOM      3  C   UNL     1       0.372  11.015  21.054  0.00  0.00    +0.000 C 
ATOM      4  C   UNL     1       0.571  11.881  19.794  0.00  0.00    +0.000 C 
ATOM      5  C   UNL     1       0.249  10.978  18.593  0.00  0.00    +0.000 C 
ATOM      6  C   UNL     1       0.997   9.640  18.574  0.00  0.00    +0.000 C 
ENDROOT
BRANCH   4   7
ATOM      7  N   UNL     1       1.810  12.708  19.658  0.00  0.00    +0.000 NA
ATOM      8  C   UNL     1       1.861  13.381  18.352  0.00  0.00    +0.000 C 
ATOM      9  C   UNL     1       3.093  14.275  18.175  0.00  0.00    +0.000 C 
ATOM     10  C   UNL     1       3.212  15.305  19.301  0.00  0.00    +0.000 C 
ATOM     11  C   UNL     1       3.298  14.534  20.613  0.00  0.00    +0.000 C 
ATOM     12  C   UNL     1       2.113  13.585  20.784  0.00  0.00    +0.000 C 
BRANCH  10  13
ATOM     13  C   UNL     1       2.061  16.322  19.291  0.00  0.00    +0.000 C 
ATOM     14  O   UNL     1       1.287  16.472  20.233  0.00  0.00    +0.000 OA
ATOM     15  N   UNL     1       1.939  17.029  18.109  0.00  0.00    +0.000 N 
ATOM     16  H   UNL     1       2.563  16.824  17.340  0.00  0.00    +0.000 HD
BRANCH  15  17
ATOM     17  C   UNL     1       0.962  18.057  17.932  0.00  0.00    +0.000 C 
ATOM     18  C   UNL     1       0.531  18.462  16.549  0.00  0.00    +0.000 C 
ATOM     19  C   UNL     1      -0.422  17.729  17.447  0.00  0.00    +0.000 C 
ENDBRANCH  15  17
ENDBRANCH  10  13
ENDBRANCH   4   7
BRANCH   1  20
ATOM     20  C   UNL     1       2.051   7.777  19.776  0.00  0.00    +0.000 C 
ATOM     21  C   UNL     1       1.646   6.585  20.669  0.00  0.00    +0.000 C 
BRANCH  20  22
ATOM     22  C   UNL     1       2.332   7.368  18.302  0.00  0.00    +0.000 C 
BRANCH  22  28
ATOM     23  C   UNL     1       2.436   2.349  17.636  0.00  0.00    +0.000 C 
ATOM     24  C   UNL     1       3.134   3.662  17.823  0.00  0.00    +0.000 A 
ATOM     25  C   UNL     1       4.516   3.715  17.974  0.00  0.00    +0.000 A 
ATOM     26  C   UNL     1       5.112   4.957  18.128  0.00  0.00    +0.000 A 
ATOM     27  N   UNL     1       4.435   6.127  18.163  0.00  0.00    +0.000 NA
ATOM     28  C   UNL     1       3.085   6.074  18.056  0.00  0.00    +0.000 A 
ATOM     29  C   UNL     1       2.410   4.864  17.870  0.00  0.00    +0.000 A 
ENDBRANCH  22  28
ENDBRANCH  20  22
ENDBRANCH   1  20
TORSDOF 6
ENDMDL
MODEL 5
REMARK VINA RESULT:      -7.0      2.532      8.329
REMARK  Name = 
REMARK  8 active torsions:
REMARK  status: ('A' for Active; 'I' for Inactive)
REMARK    1  A    between atoms: C_1  and  C_2
REMARK    2  A    between atoms: C_6  and  C_7
REMARK    3  A    between atoms: C_7  and  C_8
REMARK    4  A    between atoms: C_8  and  C_9
REMARK    5  A    between atoms: C_8  and  N_10
REMARK    6  A    between atoms: C_13  and  N_14
REMARK    7  A    between atoms: C_17  and  C_18
REMARK    8  A    between atoms: N_20  and  C_21
REMARK                            x       y       z     vdW  Elec       q    Type
REMARK                         _______ _______ _______ _____ _____    ______ ____
ROOT
ATOM      1  N   UNL     1       2.299   6.193  19.203  0.00  0.00    +0.000 NA
ATOM      2  C   UNL     1       2.075   5.669  17.846  0.00  0.00    +0.000 C 
ATOM      3  C   UNL     1       2.331   4.171  17.683  0.00  0.00    +0.000 C 
ATOM      4  C   UNL     1       3.694   3.695  18.225  0.00  0.00    +0.000 C 
ATOM      5  C   UNL     1       3.759   4.148  19.691  0.00  0.00    +0.000 C 
ATOM      6  C   UNL     1       3.463   5.634  19.921  0.00  0.00    +0.000 C 
ENDROOT
BRANCH   4   7
ATOM      7  N   UNL     1       4.931   3.946  17.422  0.00  0.00    +0.000 NA
ATOM      8  C   UNL     1       4.681   4.916  16.346  0.00  0.00    +0.000 C 
ATOM      9  C   UNL     1       5.928   5.240  15.516  0.00  0.00    +0.000 C 
ATOM     10  C   UNL     1       7.084   5.722  16.396  0.00  0.00    +0.000 C 
ATOM     11  C   UNL     1       7.384   4.611  17.396  0.00  0.00    +0.000 C 
ATOM     12  C   UNL     1       6.140   4.222  18.192  0.00  0.00    +0.000 C 
BRANCH  10  13
ATOM     13  C   UNL     1       6.782   7.063  17.080  0.00  0.00    +0.000 C 
ATOM     14  O   UNL     1       5.645   7.440  17.352  0.00  0.00    +0.000 OA
ATOM     15  N   UNL     1       7.900   7.837  17.328  0.00  0.00    +0.000 N 
ATOM     16  H   UNL     1       8.809   7.510  17.028  0.00  0.00    +0.000 HD
BRANCH  15  17
ATOM     17  C   UNL     1       7.825   9.094  18.006  0.00  0.00    +0.000 C 
ATOM     18  C   UNL     1       8.898   9.494  18.980  0.00  0.00    +0.000 C 
ATOM     19  C   UNL     1       8.772  10.210  17.668  0.00  0.00    +0.000 C 
ENDBRANCH  15  17
ENDBRANCH  10  13
ENDBRANCH   4   7
BRANCH   1  20
ATOM     20  C   UNL     1       2.301   7.696  19.268  0.00  0.00    +0.000 C 
ATOM     21  C   UNL     1       2.228   8.329  17.861  0.00  0.00    +0.000 C 
BRANCH  20  22
ATOM     22  C   UNL     1       1.198   8.220  20.231  0.00  0.00    +0.000 C 
BRANCH  22  28
ATOM     23  C   UNL     1      -1.863  11.387  17.732  0.00  0.00    +0.000 C 
ATOM     24  C   UNL     1      -0.767  11.129  18.722  0.00  0.00    +0.000 A 
ATOM     25  C   UNL     1      -0.082  12.187  19.311  0.00  0.00    +0.000 A 
ATOM     26  C   UNL     1       0.912  11.893  20.232  0.00  0.00    +0.000 A 
ATOM     27  N   UNL     1       1.277  10.639  20.583  0.00  0.00    +0.000 NA
ATOM     28  C   UNL     1       0.638   9.608  19.979  0.00  0.00    +0.000 A 
ATOM     29  C   UNL     1      -0.394   9.819  19.061  0.00  0.00    +0.000 A 
ENDBRANCH  22  28
ENDBRANCH  20  22
ENDBRANCH   1  20
TORSDOF 6
ENDMDL
MODEL 6
REMARK VINA RESULT:      -7.0      2.466      8.890
REMARK  Name = 
REMARK  8 active torsions:
REMARK  status: ('A' for Active; 'I' for Inactive)
REMARK    1  A    between atoms: C_1  and  C_2
REMARK    2  A    between atoms: C_6  and  C_7
REMARK    3  A    between atoms: C_7  and  C_8
REMARK    4  A    between atoms: C_8  and  C_9
REMARK    5  A    between atoms: C_8  and  N_10
REMARK    6  A    between atoms: C_13  and  N_14
REMARK    7  A    between atoms: C_17  and  C_18
REMARK    8  A    between atoms: N_20  and  C_21
REMARK                            x       y       z     vdW  Elec       q    Type
REMARK                         _______ _______ _______ _____ _____    ______ ____
ROOT
ATOM      1  N   UNL     1       1.407   8.350  19.202  0.00  0.00    +0.000 NA
ATOM      2  C   UNL     1       2.019   8.269  17.866  0.00  0.00    +0.000 C 
ATOM      3  C   UNL     1       2.476   6.871  17.451  0.00  0.00    +0.000 C 
ATOM      4  C   UNL     1       3.361   6.156  18.491  0.00  0.00    +0.000 C 
ATOM      5  C   UNL     1       2.565   6.149  19.805  0.00  0.00    +0.000 C 
ATOM      6  C   UNL     1       2.038   7.519  20.247  0.00  0.00    +0.000 C 
ENDROOT
BRANCH   4   7
ATOM      7  N   UNL     1       4.801   6.538  18.619  0.00  0.00    +0.000 NA
ATOM      8  C   UNL     1       5.591   5.453  19.219  0.00  0.00    +0.000 C 
ATOM      9  C   UNL     1       7.083   5.778  19.337  0.00  0.00    +0.000 C 
ATOM     10  C   UNL     1       7.684   6.177  17.987  0.00  0.00    +0.000 C 
ATOM     11  C   UNL     1       6.912   7.394  17.490  0.00  0.00    +0.000 C 
ATOM     12  C   UNL     1       5.411   7.117  17.426  0.00  0.00    +0.000 C 
BRANCH  10  13
ATOM     13  C   UNL     1       7.675   5.022  16.975  0.00  0.00    +0.000 C 
ATOM     14  O   UNL     1       8.068   3.889  17.243  0.00  0.00    +0.000 OA
ATOM     15  N   UNL     1       7.224   5.373  15.716  0.00  0.00    +0.000 N 
ATOM     16  H   UNL     1       6.970   6.334  15.529  0.00  0.00    +0.000 HD
BRANCH  15  17
ATOM     17  C   UNL     1       7.093   4.421  14.658  0.00  0.00    +0.000 C 
ATOM     18  C   UNL     1       5.756   4.186  14.011  0.00  0.00    +0.000 C 
ATOM     19  C   UNL     1       6.850   4.869  13.244  0.00  0.00    +0.000 C 
ENDBRANCH  15  17
ENDBRANCH  10  13
ENDBRANCH   4   7
BRANCH   1  20
ATOM     20  C   UNL     1       1.217   9.763  19.684  0.00  0.00    +0.000 C 
ATOM     21  C   UNL     1       1.571  10.794  18.590  0.00  0.00    +0.000 C 
BRANCH  20  22
ATOM     22  C   UNL     1      -0.205   9.968  20.280  0.00  0.00    +0.000 C 
BRANCH  22  28
ATOM     23  C   UNL     1      -2.703   9.770  15.879  0.00  0.00    +0.000 C 
ATOM     24  C   UNL     1      -2.436  10.409  17.209  0.00  0.00    +0.000 A 
ATOM     25  C   UNL     1      -3.059  11.603  17.559  0.00  0.00    +0.000 A 
ATOM     26  C   UNL     1      -2.789  12.142  18.807  0.00  0.00    +0.000 A 
ATOM     27  N   UNL     1      -1.939  11.594  19.705  0.00  0.00    +0.000 NA
ATOM     28  C   UNL     1      -1.301  10.453  19.350  0.00  0.00    +0.000 A 
ATOM     29  C   UNL     1      -1.539   9.831  18.121  0.00  0.00    +0.000 A 
ENDBRANCH  22  28
ENDBRANCH  20  22
ENDBRANCH   1  20
TORSDOF 6
ENDMDL
MODEL 7
REMARK VINA RESULT:      -6.9      3.321      8.088
REMARK  Name = 
REMARK  8 active torsions:
REMARK  status: ('A' for Active; 'I' for Inactive)
REMARK    1  A    between atoms: C_1  and  C_2
REMARK    2  A    between atoms: C_6  and  C_7
REMARK    3  A    between atoms: C_7  and  C_8
REMARK    4  A    between atoms: C_8  and  C_9
REMARK    5  A    between atoms: C_8  and  N_10
REMARK    6  A    between atoms: C_13  and  N_14
REMARK    7  A    between atoms: C_17  and  C_18
REMARK    8  A    between atoms: N_20  and  C_21
REMARK                            x       y       z     vdW  Elec       q    Type
REMARK                         _______ _______ _______ _____ _____    ______ ____
ROOT
ATOM      1  N   UNL     1       2.205   2.865  19.830  0.00  0.00    +0.000 NA
ATOM      2  C   UNL     1       1.878   3.294  18.461  0.00  0.00    +0.000 C 
ATOM      3  C   UNL     1       2.793   2.731  17.374  0.00  0.00    +0.000 C 
ATOM      4  C   UNL     1       4.299   2.917  17.650  0.00  0.00    +0.000 C 
ATOM      5  C   UNL     1       4.567   2.292  19.028  0.00  0.00    +0.000 C 
ATOM      6  C   UNL     1       3.645   2.784  20.149  0.00  0.00    +0.000 C 
ENDROOT
BRANCH   4   7
ATOM      7  N   UNL     1       4.928   4.255  17.422  0.00  0.00    +0.000 NA
ATOM      8  C   UNL     1       6.394   4.173  17.490  0.00  0.00    +0.000 C 
ATOM      9  C   UNL     1       7.092   5.511  17.223  0.00  0.00    +0.000 C 
ATOM     10  C   UNL     1       6.663   6.117  15.885  0.00  0.00    +0.000 C 
ATOM     11  C   UNL     1       5.151   6.306  15.938  0.00  0.00    +0.000 C 
ATOM     12  C   UNL     1       4.434   4.998  16.268  0.00  0.00    +0.000 C 
BRANCH  10  13
ATOM     13  C   UNL     1       7.107   5.266  14.685  0.00  0.00    +0.000 C 
ATOM     14  O   UNL     1       8.192   5.406  14.126  0.00  0.00    +0.000 OA
ATOM     15  N   UNL     1       6.162   4.353  14.257  0.00  0.00    +0.000 N 
ATOM     16  H   UNL     1       5.259   4.319  14.712  0.00  0.00    +0.000 HD
BRANCH  15  17
ATOM     17  C   UNL     1       6.415   3.437  13.189  0.00  0.00    +0.000 C 
ATOM     18  C   UNL     1       5.389   3.229  12.110  0.00  0.00    +0.000 C 
ATOM     19  C   UNL     1       6.676   3.932  11.794  0.00  0.00    +0.000 C 
ENDBRANCH  15  17
ENDBRANCH  10  13
ENDBRANCH   4   7
BRANCH   1  20
ATOM     20  C   UNL     1       1.465   3.639  20.888  0.00  0.00    +0.000 C 
ATOM     21  C   UNL     1       0.991   2.725  22.039  0.00  0.00    +0.000 C 
BRANCH  20  22
ATOM     22  C   UNL     1       2.296   4.858  21.378  0.00  0.00    +0.000 C 
BRANCH  22  28
ATOM     23  C   UNL     1       0.426   9.497  20.585  0.00  0.00    +0.000 C 
ATOM     24  C   UNL     1       1.255   8.325  20.153  0.00  0.00    +0.000 A 
ATOM     25  C   UNL     1       1.834   8.294  18.888  0.00  0.00    +0.000 A 
ATOM     26  C   UNL     1       2.604   7.194  18.546  0.00  0.00    +0.000 A 
ATOM     27  N   UNL     1       2.814   6.131  19.355  0.00  0.00    +0.000 NA
ATOM     28  C   UNL     1       2.218   6.141  20.572  0.00  0.00    +0.000 A 
ATOM     29  C   UNL     1       1.449   7.225  21.004  0.00  0.00    +0.000 A 
ENDBRANCH  22  28
ENDBRANCH  20  22
ENDBRANCH   1  20
TORSDOF 6
ENDMDL
MODEL 8
REMARK VINA RESULT:      -6.9      2.946      8.580
REMARK  Name = 
REMARK  8 active torsions:
REMARK  status: ('A' for Active; 'I' for Inactive)
REMARK    1  A    between atoms: C_1  and  C_2
REMARK    2  A    between atoms: C_6  and  C_7
REMARK    3  A    between atoms: C_7  and  C_8
REMARK    4  A    between atoms: C_8  and  C_9
REMARK    5  A    between atoms: C_8  and  N_10
REMARK    6  A    between atoms: C_13  and  N_14
REMARK    7  A    between atoms: C_17  and  C_18
REMARK    8  A    between atoms: N_20  and  C_21
REMARK                            x       y       z     vdW  Elec       q    Type
REMARK                         _______ _______ _______ _____ _____    ______ ____
ROOT
ATOM      1  N   UNL     1       2.451   5.582  19.317  0.00  0.00    +0.000 NA
ATOM      2  C   UNL     1       2.131   5.180  17.938  0.00  0.00    +0.000 C 
ATOM      3  C   UNL     1       2.477   3.732  17.593  0.00  0.00    +0.000 C 
ATOM      4  C   UNL     1       3.918   3.319  17.952  0.00  0.00    +0.000 C 
ATOM      5  C   UNL     1       4.098   3.627  19.446  0.00  0.00    +0.000 C 
ATOM      6  C   UNL     1       3.719   5.053  19.860  0.00  0.00    +0.000 C 
ENDROOT
BRANCH   4   7
ATOM      7  N   UNL     1       5.047   3.750  17.070  0.00  0.00    +0.000 NA
ATOM      8  C   UNL     1       4.633   4.832  16.165  0.00  0.00    +0.000 C 
ATOM      9  C   UNL     1       5.765   5.340  15.265  0.00  0.00    +0.000 C 
ATOM     10  C   UNL     1       6.983   5.778  16.081  0.00  0.00    +0.000 C 
ATOM     11  C   UNL     1       7.446   4.569  16.887  0.00  0.00    +0.000 C 
ATOM     12  C   UNL     1       6.316   4.002  17.744  0.00  0.00    +0.000 C 
BRANCH  10  13
ATOM     13  C   UNL     1       6.691   6.998  16.966  0.00  0.00    +0.000 C 
ATOM     14  O   UNL     1       5.570   7.269  17.390  0.00  0.00    +0.000 OA
ATOM     15  N   UNL     1       7.792   7.796  17.215  0.00  0.00    +0.000 N 
ATOM     16  H   UNL     1       8.681   7.563  16.792  0.00  0.00    +0.000 HD
BRANCH  15  17
ATOM     17  C   UNL     1       7.727   8.945  18.062  0.00  0.00    +0.000 C 
ATOM     18  C   UNL     1       8.947   9.405  18.810  0.00  0.00    +0.000 C 
ATOM     19  C   UNL     1       8.409  10.227  17.676  0.00  0.00    +0.000 C 
ENDBRANCH  15  17
ENDBRANCH  10  13
ENDBRANCH   4   7
BRANCH   1  20
ATOM     20  C   UNL     1       2.350   7.066  19.542  0.00  0.00    +0.000 C 
ATOM     21  C   UNL     1       2.111   7.830  18.221  0.00  0.00    +0.000 C 
BRANCH  20  22
ATOM     22  C   UNL     1       1.300   7.400  20.639  0.00  0.00    +0.000 C 
BRANCH  22  28
ATOM     23  C   UNL     1      -1.235  11.036  23.090  0.00  0.00    +0.000 C 
ATOM     24  C   UNL     1      -0.382  10.572  21.947  0.00  0.00    +0.000 A 
ATOM     25  C   UNL     1      -0.084  11.430  20.893  0.00  0.00    +0.000 A 
ATOM     26  C   UNL     1       0.723  10.956  19.870  0.00  0.00    +0.000 A 
ATOM     27  N   UNL     1       1.224   9.702  19.815  0.00  0.00    +0.000 NA
ATOM     28  C   UNL     1       0.901   8.853  20.821  0.00  0.00    +0.000 A 
ATOM     29  C   UNL     1       0.117   9.261  21.903  0.00  0.00    +0.000 A 
ENDBRANCH  22  28
ENDBRANCH  20  22
ENDBRANCH   1  20
TORSDOF 6
ENDMDL
MODEL 9
REMARK VINA RESULT:      -6.9      4.090      5.953
REMARK  Name = 
REMARK  8 active torsions:
REMARK  status: ('A' for Active; 'I' for Inactive)
REMARK    1  A    between atoms: C_1  and  C_2
REMARK    2  A    between atoms: C_6  and  C_7
REMARK    3  A    between atoms: C_7  and  C_8
REMARK    4  A    between atoms: C_8  and  C_9
REMARK    5  A    between atoms: C_8  and  N_10
REMARK    6  A    between atoms: C_13  and  N_14
REMARK    7  A    between atoms: C_17  and  C_18
REMARK    8  A    between atoms: N_20  and  C_21
REMARK                            x       y       z     vdW  Elec       q    Type
REMARK                         _______ _______ _______ _____ _____    ______ ____
ROOT
ATOM      1  N   UNL     1       1.117   8.867  19.716  0.00  0.00    +0.000 NA
ATOM      2  C   UNL     1       1.256   9.662  20.947  0.00  0.00    +0.000 C 
ATOM      3  C   UNL     1       0.451  10.961  20.970  0.00  0.00    +0.000 C 
ATOM      4  C   UNL     1       0.649  11.854  19.729  0.00  0.00    +0.000 C 
ATOM      5  C   UNL     1       0.322  10.979  18.509  0.00  0.00    +0.000 C 
ATOM      6  C   UNL     1       1.065   9.640  18.459  0.00  0.00    +0.000 C 
ENDROOT
BRANCH   4   7
ATOM      7  N   UNL     1       1.891  12.680  19.609  0.00  0.00    +0.000 NA
ATOM      8  C   UNL     1       1.934  13.395  18.325  0.00  0.00    +0.000 C 
ATOM      9  C   UNL     1       3.168  14.288  18.166  0.00  0.00    +0.000 C 
ATOM     10  C   UNL     1       3.300  15.282  19.323  0.00  0.00    +0.000 C 
ATOM     11  C   UNL     1       3.394  14.469  20.609  0.00  0.00    +0.000 C 
ATOM     12  C   UNL     1       2.207  13.520  20.760  0.00  0.00    +0.000 C 
BRANCH  10  13
ATOM     13  C   UNL     1       2.154  16.303  19.355  0.00  0.00    +0.000 C 
ATOM     14  O   UNL     1       1.452  16.497  20.344  0.00  0.00    +0.000 OA
ATOM     15  N   UNL     1       1.947  16.961  18.157  0.00  0.00    +0.000 N 
ATOM     16  H   UNL     1       2.512  16.721  17.353  0.00  0.00    +0.000 HD
BRANCH  15  17
ATOM     17  C   UNL     1       0.961  17.985  18.009  0.00  0.00    +0.000 C 
ATOM     18  C   UNL     1       0.581  18.479  16.640  0.00  0.00    +0.000 C 
ATOM     19  C   UNL     1      -0.396  17.673  17.444  0.00  0.00    +0.000 C 
ENDBRANCH  15  17
ENDBRANCH  10  13
ENDBRANCH   4   7
BRANCH   1  20
ATOM     20  C   UNL     1       2.117   7.747  19.616  0.00  0.00    +0.000 C 
ATOM     21  C   UNL     1       1.751   6.569  20.544  0.00  0.00    +0.000 C 
BRANCH  20  22
ATOM     22  C   UNL     1       2.332   7.316  18.137  0.00  0.00    +0.000 C 
BRANCH  22  28
ATOM     23  C   UNL     1       7.126   6.167  16.978  0.00  0.00    +0.000 C 
ATOM     24  C   UNL     1       5.700   5.767  17.208  0.00  0.00    +0.000 A 
ATOM     25  C   UNL     1       5.283   4.461  16.968  0.00  0.00    +0.000 A 
ATOM     26  C   UNL     1       3.956   4.141  17.213  0.00  0.00    +0.000 A 
ATOM     27  N   UNL     1       3.029   5.023  17.651  0.00  0.00    +0.000 NA
ATOM     28  C   UNL     1       3.424   6.304  17.846  0.00  0.00    +0.000 A 
ATOM     29  C   UNL     1       4.750   6.701  17.649  0.00  0.00    +0.000 A 
ENDBRANCH  22  28
ENDBRANCH  20  22
ENDBRANCH   1  20
TORSDOF 6
ENDMDL
