MODEL 1
REMARK VINA RESULT:      -8.5      0.000      0.000
REMARK  Name = 
REMARK  16 active torsions:
REMARK  status: ('A' for Active; 'I' for Inactive)
REMARK    1  A    between atoms: C_3  and  O_4
REMARK    2  A    between atoms: O_4  and  C_5
REMARK    3  A    between atoms: C_5  and  C_6
REMARK    4  A    between atoms: C_8  and  O_9
REMARK    5  A    between atoms: O_9  and  C_10
REMARK    6  A    between atoms: C_10  and  C_12
REMARK    7  A    between atoms: C_19  and  C_20
REMARK    8  A    between atoms: C_19  and  C_21
REMARK    9  A    between atoms: C_21  and  O_23
REMARK   10  A    between atoms: C_27  and  C_28
REMARK   11  A    between atoms: C_29  and  C_30
REMARK   12  A    between atoms: C_30  and  C_31
REMARK   13  A    between atoms: C_31  and  C_32
REMARK   14  A    between atoms: C_32  and  C_33
REMARK   15  A    between atoms: C_34  and  C_35
REMARK   16  A    between atoms: C_35  and  O_36
REMARK                            x       y       z     vdW  Elec       q    Type
REMARK                         _______ _______ _______ _____ _____    ______ ____
ROOT
ATOM      1  C   UNL     1       5.713   6.635  16.299  0.00  0.00    +0.000 C 
ATOM      2  C   UNL     1       5.405   5.601  17.111  0.00  0.00    +0.000 C 
ATOM      3  C   UNL     1       5.454   5.811  18.621  0.00  0.00    +0.000 C 
ATOM      4  C   UNL     1       4.103   5.420  19.375  0.00  0.00    +0.000 C 
ATOM      5  C   UNL     1       3.839   3.886  19.072  0.00  0.00    +0.000 C 
ATOM      6  C   UNL     1       2.754   3.214  20.063  0.00  0.00    +0.000 C 
ATOM      7  C   UNL     1       3.430   2.816  21.432  0.00  0.00    +0.000 C 
ATOM      8  C   UNL     1       2.208   1.865  19.530  0.00  0.00    +0.000 C 
ATOM      9  C   UNL     1       1.932   1.801  18.042  0.00  0.00    +0.000 C 
ATOM     10  C   UNL     1       3.092   2.281  17.170  0.00  0.00    +0.000 C 
ATOM     11  C   UNL     1       3.603   3.707  17.479  0.00  0.00    +0.000 C 
ATOM     12  C   UNL     1       2.456   4.627  17.034  0.00  0.00    +0.000 C 
ATOM     13  C   UNL     1       4.787   4.312  16.531  0.00  0.00    +0.000 C 
ENDROOT
BRANCH   6  14
ATOM     14  C   UNL     1       1.607   4.146  20.548  0.00  0.00    +0.000 C 
ATOM     15  O   UNL     1       0.473   4.124  20.084  0.00  0.00    +0.000 OA
BRANCH  14  16
ATOM     16  O   UNL     1       1.902   5.042  21.509  0.00  0.00    +0.000 OA
ATOM     17  H   UNL     1       1.687   4.776  22.412  0.00  0.00    +0.000 HD
ENDBRANCH  14  16
ENDBRANCH   6  14
BRANCH   3  18
ATOM     18  O   UNL     1       6.569   4.936  19.058  0.00  0.00    +0.000 OA
BRANCH  18  19
ATOM     19  C   UNL     1       7.658   5.525  19.638  0.00  0.00    +0.000 C 
ATOM     20  C   UNL     1       8.195   6.691  18.834  0.00  0.00    +0.000 C 
ATOM     21  O   UNL     1       8.146   5.177  20.720  0.00  0.00    +0.000 OA
ENDBRANCH  18  19
ENDBRANCH   3  18
BRANCH   4  22
ATOM     22  O   UNL     1       2.773   6.132  19.077  0.00  0.00    +0.000 OA
BRANCH  22  23
ATOM     23  C   UNL     1       2.532   7.425  18.803  0.00  0.00    +0.000 C 
ATOM     24  O   UNL     1       2.924   7.953  17.751  0.00  0.00    +0.000 OA
BRANCH  23  25
ATOM     25  C   UNL     1       1.654   8.325  19.787  0.00  0.00    +0.000 A 
ATOM     26  C   UNL     1       1.011   9.443  19.230  0.00  0.00    +0.000 A 
ATOM     27  C   UNL     1       0.081  10.240  19.925  0.00  0.00    +0.000 A 
ATOM     28  C   UNL     1      -0.256   9.966  21.239  0.00  0.00    +0.000 A 
ATOM     29  C   UNL     1       0.362   8.876  21.851  0.00  0.00    +0.000 A 
ATOM     30  C   UNL     1       1.309   8.075  21.143  0.00  0.00    +0.000 A 
ENDBRANCH  23  25
ENDBRANCH  22  23
ENDBRANCH   4  22
BRANCH  13  31
ATOM     31  C   UNL     1       5.608   3.499  15.453  0.00  0.00    +0.000 C 
BRANCH  31  32
ATOM     32  C   UNL     1       5.907   4.355  14.192  0.00  0.00    +0.000 C 
BRANCH  32  33
ATOM     33  C   UNL     1       5.763   3.708  12.837  0.00  0.00    +0.000 C 
ATOM     34  C   UNL     1       7.007   3.505  12.015  0.00  0.00    +0.000 C 
ATOM     35  C   UNL     1       4.522   3.500  12.356  0.00  0.00    +0.000 C 
BRANCH  35  36
ATOM     36  C   UNL     1       4.138   2.982  11.013  0.00  0.00    +0.000 C 
BRANCH  36  37
ATOM     37  O   UNL     1       3.357   3.984  10.385  0.00  0.00    +0.000 OA
ATOM     38  H   UNL     1       3.688   4.056   9.472  0.00  0.00    +0.000 HD
ENDBRANCH  36  37
ENDBRANCH  35  36
ENDBRANCH  32  33
ENDBRANCH  31  32
ENDBRANCH  13  31
TORSDOF 12
ENDMDL
MODEL 2
REMARK VINA RESULT:      -8.2      1.332      1.607
REMARK  Name = 
REMARK  16 active torsions:
REMARK  status: ('A' for Active; 'I' for Inactive)
REMARK    1  A    between atoms: C_3  and  O_4
REMARK    2  A    between atoms: O_4  and  C_5
REMARK    3  A    between atoms: C_5  and  C_6
REMARK    4  A    between atoms: C_8  and  O_9
REMARK    5  A    between atoms: O_9  and  C_10
REMARK    6  A    between atoms: C_10  and  C_12
REMARK    7  A    between atoms: C_19  and  C_20
REMARK    8  A    between atoms: C_19  and  C_21
REMARK    9  A    between atoms: C_21  and  O_23
REMARK   10  A    between atoms: C_27  and  C_28
REMARK   11  A    between atoms: C_29  and  C_30
REMARK   12  A    between atoms: C_30  and  C_31
REMARK   13  A    between atoms: C_31  and  C_32
REMARK   14  A    between atoms: C_32  and  C_33
REMARK   15  A    between atoms: C_34  and  C_35
REMARK   16  A    between atoms: C_35  and  O_36
REMARK                            x       y       z     vdW  Elec       q    Type
REMARK                         _______ _______ _______ _____ _____    ______ ____
ROOT
ATOM      1  C   UNL     1       5.659   6.658  16.486  0.00  0.00    +0.000 C 
ATOM      2  C   UNL     1       5.318   5.638  17.303  0.00  0.00    +0.000 C 
ATOM      3  C   UNL     1       5.316   5.872  18.810  0.00  0.00    +0.000 C 
ATOM      4  C   UNL     1       3.938   5.497  19.523  0.00  0.00    +0.000 C 
ATOM      5  C   UNL     1       3.678   3.960  19.235  0.00  0.00    +0.000 C 
ATOM      6  C   UNL     1       2.557   3.308  20.199  0.00  0.00    +0.000 C 
ATOM      7  C   UNL     1       3.183   2.928  21.596  0.00  0.00    +0.000 C 
ATOM      8  C   UNL     1       2.024   1.953  19.669  0.00  0.00    +0.000 C 
ATOM      9  C   UNL     1       1.800   1.866  18.173  0.00  0.00    +0.000 C 
ATOM     10  C   UNL     1       2.991   2.327  17.334  0.00  0.00    +0.000 C 
ATOM     11  C   UNL     1       3.497   3.756  17.638  0.00  0.00    +0.000 C 
ATOM     12  C   UNL     1       2.370   4.674  17.139  0.00  0.00    +0.000 C 
ATOM     13  C   UNL     1       4.715   4.342  16.722  0.00  0.00    +0.000 C 
ENDROOT
BRANCH   6  14
ATOM     14  C   UNL     1       1.398   4.252  20.629  0.00  0.00    +0.000 C 
ATOM     15  O   UNL     1       0.257   4.169  20.189  0.00  0.00    +0.000 OA
BRANCH  14  16
ATOM     16  O   UNL     1       1.689   5.226  21.510  0.00  0.00    +0.000 OA
ATOM     17  H   UNL     1       0.979   5.857  21.690  0.00  0.00    +0.000 HD
ENDBRANCH  14  16
ENDBRANCH   6  14
BRANCH   3  18
ATOM     18  O   UNL     1       6.412   5.000  19.299  0.00  0.00    +0.000 OA
BRANCH  18  19
ATOM     19  C   UNL     1       7.655   5.164  18.753  0.00  0.00    +0.000 C 
ATOM     20  C   UNL     1       8.237   6.536  19.015  0.00  0.00    +0.000 C 
ATOM     21  O   UNL     1       8.267   4.284  18.135  0.00  0.00    +0.000 OA
ENDBRANCH  18  19
ENDBRANCH   3  18
BRANCH   4  22
ATOM     22  O   UNL     1       2.622   6.210  19.169  0.00  0.00    +0.000 OA
BRANCH  22  23
ATOM     23  C   UNL     1       2.395   7.500  18.875  0.00  0.00    +0.000 C 
ATOM     24  O   UNL     1       2.767   8.001  17.803  0.00  0.00    +0.000 OA
BRANCH  23  25
ATOM     25  C   UNL     1       1.558   8.434  19.864  0.00  0.00    +0.000 A 
ATOM     26  C   UNL     1       0.924   9.555  19.304  0.00  0.00    +0.000 A 
ATOM     27  C   UNL     1       0.027  10.382  20.007  0.00  0.00    +0.000 A 
ATOM     28  C   UNL     1      -0.285  10.136  21.333  0.00  0.00    +0.000 A 
ATOM     29  C   UNL     1       0.326   9.044  21.949  0.00  0.00    +0.000 A 
ATOM     30  C   UNL     1       1.240   8.213  21.232  0.00  0.00    +0.000 A 
ENDBRANCH  23  25
ENDBRANCH  22  23
ENDBRANCH   4  22
BRANCH  13  31
ATOM     31  C   UNL     1       5.570   3.509  15.686  0.00  0.00    +0.000 C 
BRANCH  31  32
ATOM     32  C   UNL     1       5.075   3.724  14.229  0.00  0.00    +0.000 C 
BRANCH  32  33
ATOM     33  C   UNL     1       6.097   4.046  13.167  0.00  0.00    +0.000 C 
ATOM     34  C   UNL     1       6.131   3.183  11.934  0.00  0.00    +0.000 C 
ATOM     35  C   UNL     1       7.036   4.972  13.441  0.00  0.00    +0.000 C 
BRANCH  35  36
ATOM     36  C   UNL     1       8.198   5.374  12.599  0.00  0.00    +0.000 C 
BRANCH  36  37
ATOM     37  O   UNL     1       9.084   6.103  13.430  0.00  0.00    +0.000 OA
ATOM     38  H   UNL     1       9.623   5.443  13.899  0.00  0.00    +0.000 HD
ENDBRANCH  36  37
ENDBRANCH  35  36
ENDBRANCH  32  33
ENDBRANCH  31  32
ENDBRANCH  13  31
TORSDOF 12
ENDMDL
MODEL 3
REMARK VINA RESULT:      -8.2      0.956      1.237
REMARK  Name = 
REMARK  16 active torsions:
REMARK  status: ('A' for Active; 'I' for Inactive)
REMARK    1  A    between atoms: C_3  and  O_4
REMARK    2  A    between atoms: O_4  and  C_5
REMARK    3  A    between atoms: C_5  and  C_6
REMARK    4  A    between atoms: C_8  and  O_9
REMARK    5  A    between atoms: O_9  and  C_10
REMARK    6  A    between atoms: C_10  and  C_12
REMARK    7  A    between atoms: C_19  and  C_20
REMARK    8  A    between atoms: C_19  and  C_21
REMARK    9  A    between atoms: C_21  and  O_23
REMARK   10  A    between atoms: C_27  and  C_28
REMARK   11  A    between atoms: C_29  and  C_30
REMARK   12  A    between atoms: C_30  and  C_31
REMARK   13  A    between atoms: C_31  and  C_32
REMARK   14  A    between atoms: C_32  and  C_33
REMARK   15  A    between atoms: C_34  and  C_35
REMARK   16  A    between atoms: C_35  and  O_36
REMARK                            x       y       z     vdW  Elec       q    Type
REMARK                         _______ _______ _______ _____ _____    ______ ____
ROOT
ATOM      1  C   UNL     1       5.739   6.773  16.382  0.00  0.00    +0.000 C 
ATOM      2  C   UNL     1       5.429   5.710  17.155  0.00  0.00    +0.000 C 
ATOM      3  C   UNL     1       5.475   5.864  18.672  0.00  0.00    +0.000 C 
ATOM      4  C   UNL     1       4.123   5.444  19.408  0.00  0.00    +0.000 C 
ATOM      5  C   UNL     1       3.860   3.923  19.048  0.00  0.00    +0.000 C 
ATOM      6  C   UNL     1       2.773   3.214  20.011  0.00  0.00    +0.000 C 
ATOM      7  C   UNL     1       3.446   2.766  21.366  0.00  0.00    +0.000 C 
ATOM      8  C   UNL     1       2.229   1.886  19.428  0.00  0.00    +0.000 C 
ATOM      9  C   UNL     1       1.956   1.877  17.938  0.00  0.00    +0.000 C 
ATOM     10  C   UNL     1       3.118   2.389  17.086  0.00  0.00    +0.000 C 
ATOM     11  C   UNL     1       3.627   3.802  17.449  0.00  0.00    +0.000 C 
ATOM     12  C   UNL     1       2.481   4.738  17.036  0.00  0.00    +0.000 C 
ATOM     13  C   UNL     1       4.813   4.443  16.526  0.00  0.00    +0.000 C 
ENDROOT
BRANCH   6  14
ATOM     14  C   UNL     1       1.625   4.128  20.528  0.00  0.00    +0.000 C 
ATOM     15  O   UNL     1       0.479   4.086  20.096  0.00  0.00    +0.000 OA
BRANCH  14  16
ATOM     16  O   UNL     1       1.932   5.028  21.480  0.00  0.00    +0.000 OA
ATOM     17  H   UNL     1       2.813   4.948  21.867  0.00  0.00    +0.000 HD
ENDBRANCH  14  16
ENDBRANCH   6  14
BRANCH   3  18
ATOM     18  O   UNL     1       6.590   4.973  19.078  0.00  0.00    +0.000 OA
BRANCH  18  19
ATOM     19  C   UNL     1       7.690   5.545  19.654  0.00  0.00    +0.000 C 
ATOM     20  C   UNL     1       8.217   6.729  18.871  0.00  0.00    +0.000 C 
ATOM     21  O   UNL     1       8.196   5.167  20.718  0.00  0.00    +0.000 OA
ENDBRANCH  18  19
ENDBRANCH   3  18
BRANCH   4  22
ATOM     22  O   UNL     1       2.793   6.167  19.134  0.00  0.00    +0.000 OA
BRANCH  22  23
ATOM     23  C   UNL     1       2.558   7.458  18.848  0.00  0.00    +0.000 C 
ATOM     24  O   UNL     1       3.026   7.997  17.833  0.00  0.00    +0.000 OA
BRANCH  23  25
ATOM     25  C   UNL     1       1.595   8.342  19.764  0.00  0.00    +0.000 A 
ATOM     26  C   UNL     1       1.585   8.062  21.141  0.00  0.00    +0.000 A 
ATOM     27  C   UNL     1       0.915   8.849  22.097  0.00  0.00    +0.000 A 
ATOM     28  C   UNL     1       0.198   9.972  21.725  0.00  0.00    +0.000 A 
ATOM     29  C   UNL     1       0.158  10.293  20.368  0.00  0.00    +0.000 A 
ATOM     30  C   UNL     1       0.835   9.487  19.402  0.00  0.00    +0.000 A 
ENDBRANCH  23  25
ENDBRANCH  22  23
ENDBRANCH   4  22
BRANCH  13  31
ATOM     31  C   UNL     1       5.636   3.670  15.421  0.00  0.00    +0.000 C 
BRANCH  31  32
ATOM     32  C   UNL     1       5.316   4.195  13.994  0.00  0.00    +0.000 C 
BRANCH  32  33
ATOM     33  C   UNL     1       6.069   3.603  12.828  0.00  0.00    +0.000 C 
ATOM     34  C   UNL     1       7.285   4.335  12.327  0.00  0.00    +0.000 C 
ATOM     35  C   UNL     1       5.528   2.551  12.185  0.00  0.00    +0.000 C 
BRANCH  35  36
ATOM     36  C   UNL     1       6.029   1.875  10.955  0.00  0.00    +0.000 C 
BRANCH  36  37
ATOM     37  O   UNL     1       6.986   0.913  11.366  0.00  0.00    +0.000 OA
ATOM     38  H   UNL     1       6.997   0.937  12.338  0.00  0.00    +0.000 HD
ENDBRANCH  36  37
ENDBRANCH  35  36
ENDBRANCH  32  33
ENDBRANCH  31  32
ENDBRANCH  13  31
TORSDOF 12
ENDMDL
MODEL 4
REMARK VINA RESULT:      -8.1      1.387      1.901
REMARK  Name = 
REMARK  16 active torsions:
REMARK  status: ('A' for Active; 'I' for Inactive)
REMARK    1  A    between atoms: C_3  and  O_4
REMARK    2  A    between atoms: O_4  and  C_5
REMARK    3  A    between atoms: C_5  and  C_6
REMARK    4  A    between atoms: C_8  and  O_9
REMARK    5  A    between atoms: O_9  and  C_10
REMARK    6  A    between atoms: C_10  and  C_12
REMARK    7  A    between atoms: C_19  and  C_20
REMARK    8  A    between atoms: C_19  and  C_21
REMARK    9  A    between atoms: C_21  and  O_23
REMARK   10  A    between atoms: C_27  and  C_28
REMARK   11  A    between atoms: C_29  and  C_30
REMARK   12  A    between atoms: C_30  and  C_31
REMARK   13  A    between atoms: C_31  and  C_32
REMARK   14  A    between atoms: C_32  and  C_33
REMARK   15  A    between atoms: C_34  and  C_35
REMARK   16  A    between atoms: C_35  and  O_36
REMARK                            x       y       z     vdW  Elec       q    Type
REMARK                         _______ _______ _______ _____ _____    ______ ____
ROOT
ATOM      1  C   UNL     1       5.099   6.831  16.687  0.00  0.00    +0.000 C 
ATOM      2  C   UNL     1       4.938   5.664  17.348  0.00  0.00    +0.000 C 
ATOM      3  C   UNL     1       5.175   5.632  18.854  0.00  0.00    +0.000 C 
ATOM      4  C   UNL     1       3.948   5.046  19.691  0.00  0.00    +0.000 C 
ATOM      5  C   UNL     1       3.706   3.568  19.171  0.00  0.00    +0.000 C 
ATOM      6  C   UNL     1       2.785   2.683  20.161  0.00  0.00    +0.000 C 
ATOM      7  C   UNL     1       3.647   2.111  21.352  0.00  0.00    +0.000 C 
ATOM      8  C   UNL     1       2.226   1.408  19.482  0.00  0.00    +0.000 C 
ATOM      9  C   UNL     1       1.762   1.567  18.048  0.00  0.00    +0.000 C 
ATOM     10  C   UNL     1       2.780   2.248  17.134  0.00  0.00    +0.000 C 
ATOM     11  C   UNL     1       3.272   3.633  17.612  0.00  0.00    +0.000 C 
ATOM     12  C   UNL     1       2.043   4.544  17.469  0.00  0.00    +0.000 C 
ATOM     13  C   UNL     1       4.299   4.451  16.640  0.00  0.00    +0.000 C 
ENDROOT
BRANCH   6  14
ATOM     14  C   UNL     1       1.676   3.457  20.931  0.00  0.00    +0.000 C 
ATOM     15  O   UNL     1       1.748   3.739  22.121  0.00  0.00    +0.000 OA
BRANCH  14  16
ATOM     16  O   UNL     1       0.571   3.800  20.244  0.00  0.00    +0.000 OA
ATOM     17  H   UNL     1       0.502   3.440  19.350  0.00  0.00    +0.000 HD
ENDBRANCH  14  16
ENDBRANCH   6  14
BRANCH   3  18
ATOM     18  O   UNL     1       6.369   4.765  19.000  0.00  0.00    +0.000 OA
BRANCH  18  19
ATOM     19  C   UNL     1       7.514   5.135  18.349  0.00  0.00    +0.000 C 
ATOM     20  C   UNL     1       8.039   6.481  18.800  0.00  0.00    +0.000 C 
ATOM     21  O   UNL     1       8.089   4.441  17.502  0.00  0.00    +0.000 OA
ENDBRANCH  18  19
ENDBRANCH   3  18
BRANCH   4  22
ATOM     22  O   UNL     1       2.565   5.718  19.680  0.00  0.00    +0.000 OA
BRANCH  22  23
ATOM     23  C   UNL     1       2.138   6.817  20.322  0.00  0.00    +0.000 C 
ATOM     24  O   UNL     1       2.049   6.858  21.559  0.00  0.00    +0.000 OA
BRANCH  23  25
ATOM     25  C   UNL     1       1.799   8.157  19.523  0.00  0.00    +0.000 A 
ATOM     26  C   UNL     1       1.053   9.136  20.200  0.00  0.00    +0.000 A 
ATOM     27  C   UNL     1       0.809  10.427  19.693  0.00  0.00    +0.000 A 
ATOM     28  C   UNL     1       1.297  10.815  18.457  0.00  0.00    +0.000 A 
ATOM     29  C   UNL     1       2.034   9.880  17.731  0.00  0.00    +0.000 A 
ATOM     30  C   UNL     1       2.273   8.570  18.247  0.00  0.00    +0.000 A 
ENDBRANCH  23  25
ENDBRANCH  22  23
ENDBRANCH   4  22
BRANCH  13  31
ATOM     31  C   UNL     1       5.004   3.871  15.351  0.00  0.00    +0.000 C 
BRANCH  31  32
ATOM     32  C   UNL     1       6.004   4.889  14.735  0.00  0.00    +0.000 C 
BRANCH  32  33
ATOM     33  C   UNL     1       6.742   4.497  13.479  0.00  0.00    +0.000 C 
ATOM     34  C   UNL     1       7.904   5.351  13.047  0.00  0.00    +0.000 C 
ATOM     35  C   UNL     1       6.229   3.513  12.716  0.00  0.00    +0.000 C 
BRANCH  35  36
ATOM     36  C   UNL     1       6.717   3.034  11.392  0.00  0.00    +0.000 C 
BRANCH  36  37
ATOM     37  O   UNL     1       7.182   1.708  11.572  0.00  0.00    +0.000 OA
ATOM     38  H   UNL     1       6.421   1.126  11.400  0.00  0.00    +0.000 HD
ENDBRANCH  36  37
ENDBRANCH  35  36
ENDBRANCH  32  33
ENDBRANCH  31  32
ENDBRANCH  13  31
TORSDOF 12
ENDMDL
MODEL 5
REMARK VINA RESULT:      -8.0      1.264      1.792
REMARK  Name = 
REMARK  16 active torsions:
REMARK  status: ('A' for Active; 'I' for Inactive)
REMARK    1  A    between atoms: C_3  and  O_4
REMARK    2  A    between atoms: O_4  and  C_5
REMARK    3  A    between atoms: C_5  and  C_6
REMARK    4  A    between atoms: C_8  and  O_9
REMARK    5  A    between atoms: O_9  and  C_10
REMARK    6  A    between atoms: C_10  and  C_12
REMARK    7  A    between atoms: C_19  and  C_20
REMARK    8  A    between atoms: C_19  and  C_21
REMARK    9  A    between atoms: C_21  and  O_23
REMARK   10  A    between atoms: C_27  and  C_28
REMARK   11  A    between atoms: C_29  and  C_30
REMARK   12  A    between atoms: C_30  and  C_31
REMARK   13  A    between atoms: C_31  and  C_32
REMARK   14  A    between atoms: C_32  and  C_33
REMARK   15  A    between atoms: C_34  and  C_35
REMARK   16  A    between atoms: C_35  and  O_36
REMARK                            x       y       z     vdW  Elec       q    Type
REMARK                         _______ _______ _______ _____ _____    ______ ____
ROOT
ATOM      1  C   UNL     1       5.701   6.564  16.528  0.00  0.00    +0.000 C 
ATOM      2  C   UNL     1       5.351   5.539  17.336  0.00  0.00    +0.000 C 
ATOM      3  C   UNL     1       5.328   5.765  18.844  0.00  0.00    +0.000 C 
ATOM      4  C   UNL     1       3.941   5.385  19.536  0.00  0.00    +0.000 C 
ATOM      5  C   UNL     1       3.687   3.849  19.237  0.00  0.00    +0.000 C 
ATOM      6  C   UNL     1       2.554   3.191  20.182  0.00  0.00    +0.000 C 
ATOM      7  C   UNL     1       3.161   2.805  21.586  0.00  0.00    +0.000 C 
ATOM      8  C   UNL     1       2.030   1.838  19.637  0.00  0.00    +0.000 C 
ATOM      9  C   UNL     1       1.826   1.759  18.138  0.00  0.00    +0.000 C 
ATOM     10  C   UNL     1       3.028   2.226  17.318  0.00  0.00    +0.000 C 
ATOM     11  C   UNL     1       3.528   3.654  17.637  0.00  0.00    +0.000 C 
ATOM     12  C   UNL     1       2.406   4.572  17.127  0.00  0.00    +0.000 C 
ATOM     13  C   UNL     1       4.757   4.246  16.740  0.00  0.00    +0.000 C 
ENDROOT
BRANCH   6  14
ATOM     14  C   UNL     1       1.388   4.131  20.601  0.00  0.00    +0.000 C 
ATOM     15  O   UNL     1       1.473   4.955  21.505  0.00  0.00    +0.000 OA
BRANCH  14  16
ATOM     16  O   UNL     1       0.220   3.999  19.946  0.00  0.00    +0.000 OA
ATOM     17  H   UNL     1      -0.304   4.805  19.852  0.00  0.00    +0.000 HD
ENDBRANCH  14  16
ENDBRANCH   6  14
BRANCH   3  18
ATOM     18  O   UNL     1       6.418   4.892  19.343  0.00  0.00    +0.000 OA
BRANCH  18  19
ATOM     19  C   UNL     1       7.576   5.487  19.760  0.00  0.00    +0.000 C 
ATOM     20  C   UNL     1       8.067   6.555  18.806  0.00  0.00    +0.000 C 
ATOM     21  O   UNL     1       8.158   5.216  20.818  0.00  0.00    +0.000 OA
ENDBRANCH  18  19
ENDBRANCH   3  18
BRANCH   4  22
ATOM     22  O   UNL     1       2.629   6.098  19.167  0.00  0.00    +0.000 OA
BRANCH  22  23
ATOM     23  C   UNL     1       2.412   7.380  18.829  0.00  0.00    +0.000 C 
ATOM     24  O   UNL     1       2.817   7.849  17.755  0.00  0.00    +0.000 OA
BRANCH  23  25
ATOM     25  C   UNL     1       1.546   8.342  19.765  0.00  0.00    +0.000 A 
ATOM     26  C   UNL     1       1.573   8.087  21.145  0.00  0.00    +0.000 A 
ATOM     27  C   UNL     1       0.995   8.934  22.111  0.00  0.00    +0.000 A 
ATOM     28  C   UNL     1       0.338  10.095  21.744  0.00  0.00    +0.000 A 
ATOM     29  C   UNL     1       0.265  10.394  20.384  0.00  0.00    +0.000 A 
ATOM     30  C   UNL     1       0.848   9.528  19.408  0.00  0.00    +0.000 A 
ENDBRANCH  23  25
ENDBRANCH  22  23
ENDBRANCH   4  22
BRANCH  13  31
ATOM     31  C   UNL     1       5.627   3.419  15.712  0.00  0.00    +0.000 C 
BRANCH  31  32
ATOM     32  C   UNL     1       5.092   3.563  14.260  0.00  0.00    +0.000 C 
BRANCH  32  33
ATOM     33  C   UNL     1       6.066   3.944  13.173  0.00  0.00    +0.000 C 
ATOM     34  C   UNL     1       6.038   3.155  11.891  0.00  0.00    +0.000 C 
ATOM     35  C   UNL     1       7.022   4.849  13.458  0.00  0.00    +0.000 C 
BRANCH  35  36
ATOM     36  C   UNL     1       8.146   5.295  12.588  0.00  0.00    +0.000 C 
BRANCH  36  37
ATOM     37  O   UNL     1       8.973   6.139  13.372  0.00  0.00    +0.000 OA
ATOM     38  H   UNL     1       9.071   6.967  12.870  0.00  0.00    +0.000 HD
ENDBRANCH  36  37
ENDBRANCH  35  36
ENDBRANCH  32  33
ENDBRANCH  31  32
ENDBRANCH  13  31
TORSDOF 12
ENDMDL
MODEL 6
REMARK VINA RESULT:      -8.0      7.349     10.545
REMARK  Name = 
REMARK  16 active torsions:
REMARK  status: ('A' for Active; 'I' for Inactive)
REMARK    1  A    between atoms: C_3  and  O_4
REMARK    2  A    between atoms: O_4  and  C_5
REMARK    3  A    between atoms: C_5  and  C_6
REMARK    4  A    between atoms: C_8  and  O_9
REMARK    5  A    between atoms: O_9  and  C_10
REMARK    6  A    between atoms: C_10  and  C_12
REMARK    7  A    between atoms: C_19  and  C_20
REMARK    8  A    between atoms: C_19  and  C_21
REMARK    9  A    between atoms: C_21  and  O_23
REMARK   10  A    between atoms: C_27  and  C_28
REMARK   11  A    between atoms: C_29  and  C_30
REMARK   12  A    between atoms: C_30  and  C_31
REMARK   13  A    between atoms: C_31  and  C_32
REMARK   14  A    between atoms: C_32  and  C_33
REMARK   15  A    between atoms: C_34  and  C_35
REMARK   16  A    between atoms: C_35  and  O_36
REMARK                            x       y       z     vdW  Elec       q    Type
REMARK                         _______ _______ _______ _____ _____    ______ ____
ROOT
ATOM      1  C   UNL     1       0.607  11.948  19.957  0.00  0.00    +0.000 C 
ATOM      2  C   UNL     1      -0.537  11.810  20.663  0.00  0.00    +0.000 C 
ATOM      3  C   UNL     1      -0.464  11.794  22.186  0.00  0.00    +0.000 C 
ATOM      4  C   UNL     1      -1.413  12.866  22.891  0.00  0.00    +0.000 C 
ATOM      5  C   UNL     1      -2.895  12.533  22.438  0.00  0.00    +0.000 C 
ATOM      6  C   UNL     1      -4.021  13.243  23.353  0.00  0.00    +0.000 C 
ATOM      7  C   UNL     1      -4.254  12.422  24.679  0.00  0.00    +0.000 C 
ATOM      8  C   UNL     1      -5.421  13.249  22.688  0.00  0.00    +0.000 C 
ATOM      9  C   UNL     1      -5.448  13.529  21.199  0.00  0.00    +0.000 C 
ATOM     10  C   UNL     1      -4.481  12.671  20.384  0.00  0.00    +0.000 C 
ATOM     11  C   UNL     1      -3.003  12.735  20.834  0.00  0.00    +0.000 C 
ATOM     12  C   UNL     1      -2.558  14.161  20.476  0.00  0.00    +0.000 C 
ATOM     13  C   UNL     1      -1.904  11.906  19.955  0.00  0.00    +0.000 C 
ENDROOT
BRANCH   6  14
ATOM     14  C   UNL     1      -3.651  14.643  23.922  0.00  0.00    +0.000 C 
ATOM     15  O   UNL     1      -3.307  14.834  25.083  0.00  0.00    +0.000 OA
BRANCH  14  16
ATOM     16  O   UNL     1      -3.747  15.695  23.088  0.00  0.00    +0.000 OA
ATOM     17  H   UNL     1      -4.003  16.533  23.496  0.00  0.00    +0.000 HD
ENDBRANCH  14  16
ENDBRANCH   6  14
BRANCH   3  18
ATOM     18  O   UNL     1      -0.880  10.415  22.540  0.00  0.00    +0.000 OA
BRANCH  18  19
ATOM     19  C   UNL     1       0.095   9.516  22.873  0.00  0.00    +0.000 C 
ATOM     20  C   UNL     1       0.387   8.526  21.766  0.00  0.00    +0.000 C 
ATOM     21  O   UNL     1       0.707   9.518  23.948  0.00  0.00    +0.000 OA
ENDBRANCH  18  19
ENDBRANCH   3  18
BRANCH   4  22
ATOM     22  O   UNL     1      -1.243  14.376  22.659  0.00  0.00    +0.000 OA
BRANCH  22  23
ATOM     23  C   UNL     1      -0.147  15.146  22.769  0.00  0.00    +0.000 C 
ATOM     24  O   UNL     1       0.069  15.834  23.778  0.00  0.00    +0.000 OA
BRANCH  23  25
ATOM     25  C   UNL     1       0.975  15.147  21.633  0.00  0.00    +0.000 A 
ATOM     26  C   UNL     1       0.627  15.703  20.390  0.00  0.00    +0.000 A 
ATOM     27  C   UNL     1       1.545  15.922  19.344  0.00  0.00    +0.000 A 
ATOM     28  C   UNL     1       2.879  15.583  19.480  0.00  0.00    +0.000 A 
ATOM     29  C   UNL     1       3.282  15.012  20.687  0.00  0.00    +0.000 A 
ATOM     30  C   UNL     1       2.345  14.787  21.742  0.00  0.00    +0.000 A 
ENDBRANCH  23  25
ENDBRANCH  22  23
ENDBRANCH   4  22
BRANCH  13  31
ATOM     31  C   UNL     1      -2.236  10.872  18.807  0.00  0.00    +0.000 C 
BRANCH  31  32
ATOM     32  C   UNL     1      -2.115  11.518  17.399  0.00  0.00    +0.000 C 
BRANCH  32  33
ATOM     33  C   UNL     1      -3.135  11.149  16.351  0.00  0.00    +0.000 C 
ATOM     34  C   UNL     1      -4.592  11.292  16.703  0.00  0.00    +0.000 C 
ATOM     35  C   UNL     1      -2.707  10.553  15.223  0.00  0.00    +0.000 C 
BRANCH  35  36
ATOM     36  C   UNL     1      -3.531  10.006  14.108  0.00  0.00    +0.000 C 
BRANCH  36  37
ATOM     37  O   UNL     1      -2.664   9.806  13.005  0.00  0.00    +0.000 OA
ATOM     38  H   UNL     1      -1.949  10.459  13.098  0.00  0.00    +0.000 HD
ENDBRANCH  36  37
ENDBRANCH  35  36
ENDBRANCH  32  33
ENDBRANCH  31  32
ENDBRANCH  13  31
TORSDOF 12
ENDMDL
MODEL 7
REMARK VINA RESULT:      -7.8      1.172      1.709
REMARK  Name = 
REMARK  16 active torsions:
REMARK  status: ('A' for Active; 'I' for Inactive)
REMARK    1  A    between atoms: C_3  and  O_4
REMARK    2  A    between atoms: O_4  and  C_5
REMARK    3  A    between atoms: C_5  and  C_6
REMARK    4  A    between atoms: C_8  and  O_9
REMARK    5  A    between atoms: O_9  and  C_10
REMARK    6  A    between atoms: C_10  and  C_12
REMARK    7  A    between atoms: C_19  and  C_20
REMARK    8  A    between atoms: C_19  and  C_21
REMARK    9  A    between atoms: C_21  and  O_23
REMARK   10  A    between atoms: C_27  and  C_28
REMARK   11  A    between atoms: C_29  and  C_30
REMARK   12  A    between atoms: C_30  and  C_31
REMARK   13  A    between atoms: C_31  and  C_32
REMARK   14  A    between atoms: C_32  and  C_33
REMARK   15  A    between atoms: C_34  and  C_35
REMARK   16  A    between atoms: C_35  and  O_36
REMARK                            x       y       z     vdW  Elec       q    Type
REMARK                         _______ _______ _______ _____ _____    ______ ____
ROOT
ATOM      1  C   UNL     1       5.331   6.985  16.687  0.00  0.00    +0.000 C 
ATOM      2  C   UNL     1       5.208   5.799  17.320  0.00  0.00    +0.000 C 
ATOM      3  C   UNL     1       5.352   5.755  18.837  0.00  0.00    +0.000 C 
ATOM      4  C   UNL     1       4.118   5.074  19.587  0.00  0.00    +0.000 C 
ATOM      5  C   UNL     1       4.009   3.592  19.032  0.00  0.00    +0.000 C 
ATOM      6  C   UNL     1       3.091   2.631  19.950  0.00  0.00    +0.000 C 
ATOM      7  C   UNL     1       3.913   2.096  21.185  0.00  0.00    +0.000 C 
ATOM      8  C   UNL     1       2.663   1.333  19.219  0.00  0.00    +0.000 C 
ATOM      9  C   UNL     1       2.280   1.486  17.761  0.00  0.00    +0.000 C 
ATOM     10  C   UNL     1       3.305   2.250  16.922  0.00  0.00    +0.000 C 
ATOM     11  C   UNL     1       3.671   3.656  17.449  0.00  0.00    +0.000 C 
ATOM     12  C   UNL     1       2.394   4.485  17.241  0.00  0.00    +0.000 C 
ATOM     13  C   UNL     1       4.699   4.558  16.557  0.00  0.00    +0.000 C 
ENDROOT
BRANCH   6  14
ATOM     14  C   UNL     1       1.886   3.314  20.657  0.00  0.00    +0.000 C 
ATOM     15  O   UNL     1       0.807   3.518  20.113  0.00  0.00    +0.000 OA
BRANCH  14  16
ATOM     16  O   UNL     1       2.065   3.726  21.926  0.00  0.00    +0.000 OA
ATOM     17  H   UNL     1       1.820   3.092  22.613  0.00  0.00    +0.000 HD
ENDBRANCH  14  16
ENDBRANCH   6  14
BRANCH   3  18
ATOM     18  O   UNL     1       6.591   4.968  19.047  0.00  0.00    +0.000 OA
BRANCH  18  19
ATOM     19  C   UNL     1       7.662   5.598  19.618  0.00  0.00    +0.000 C 
ATOM     20  C   UNL     1       8.180   6.750  18.784  0.00  0.00    +0.000 C 
ATOM     21  O   UNL     1       8.150   5.292  20.712  0.00  0.00    +0.000 OA
ENDBRANCH  18  19
ENDBRANCH   3  18
BRANCH   4  22
ATOM     22  O   UNL     1       2.696   5.651  19.497  0.00  0.00    +0.000 OA
BRANCH  22  23
ATOM     23  C   UNL     1       2.108   6.609  20.233  0.00  0.00    +0.000 C 
ATOM     24  O   UNL     1       1.798   6.423  21.419  0.00  0.00    +0.000 OA
BRANCH  23  25
ATOM     25  C   UNL     1       1.854   8.067  19.634  0.00  0.00    +0.000 A 
ATOM     26  C   UNL     1       2.308   8.311  18.327  0.00  0.00    +0.000 A 
ATOM     27  C   UNL     1       2.023   9.486  17.604  0.00  0.00    +0.000 A 
ATOM     28  C   UNL     1       1.265  10.502  18.158  0.00  0.00    +0.000 A 
ATOM     29  C   UNL     1       0.799  10.324  19.460  0.00  0.00    +0.000 A 
ATOM     30  C   UNL     1       1.096   9.133  20.191  0.00  0.00    +0.000 A 
ENDBRANCH  23  25
ENDBRANCH  22  23
ENDBRANCH   4  22
BRANCH  13  31
ATOM     31  C   UNL     1       5.521   4.050  15.307  0.00  0.00    +0.000 C 
BRANCH  31  32
ATOM     32  C   UNL     1       4.861   4.485  13.969  0.00  0.00    +0.000 C 
BRANCH  32  33
ATOM     33  C   UNL     1       5.277   3.778  12.703  0.00  0.00    +0.000 C 
ATOM     34  C   UNL     1       4.197   3.359  11.740  0.00  0.00    +0.000 C 
ATOM     35  C   UNL     1       6.564   3.404  12.571  0.00  0.00    +0.000 C 
BRANCH  35  36
ATOM     36  C   UNL     1       7.177   2.608  11.471  0.00  0.00    +0.000 C 
BRANCH  36  37
ATOM     37  O   UNL     1       6.593   1.317  11.512  0.00  0.00    +0.000 OA
ATOM     38  H   UNL     1       6.515   1.083  12.454  0.00  0.00    +0.000 HD
ENDBRANCH  36  37
ENDBRANCH  35  36
ENDBRANCH  32  33
ENDBRANCH  31  32
ENDBRANCH  13  31
TORSDOF 12
ENDMDL
MODEL 8
REMARK VINA RESULT:      -7.8      1.702      2.096
REMARK  Name = 
REMARK  16 active torsions:
REMARK  status: ('A' for Active; 'I' for Inactive)
REMARK    1  A    between atoms: C_3  and  O_4
REMARK    2  A    between atoms: O_4  and  C_5
REMARK    3  A    between atoms: C_5  and  C_6
REMARK    4  A    between atoms: C_8  and  O_9
REMARK    5  A    between atoms: O_9  and  C_10
REMARK    6  A    between atoms: C_10  and  C_12
REMARK    7  A    between atoms: C_19  and  C_20
REMARK    8  A    between atoms: C_19  and  C_21
REMARK    9  A    between atoms: C_21  and  O_23
REMARK   10  A    between atoms: C_27  and  C_28
REMARK   11  A    between atoms: C_29  and  C_30
REMARK   12  A    between atoms: C_30  and  C_31
REMARK   13  A    between atoms: C_31  and  C_32
REMARK   14  A    between atoms: C_32  and  C_33
REMARK   15  A    between atoms: C_34  and  C_35
REMARK   16  A    between atoms: C_35  and  O_36
REMARK                            x       y       z     vdW  Elec       q    Type
REMARK                         _______ _______ _______ _____ _____    ______ ____
ROOT
ATOM      1  C   UNL     1       4.808   6.693  16.427  0.00  0.00    +0.000 C 
ATOM      2  C   UNL     1       4.671   5.555  17.140  0.00  0.00    +0.000 C 
ATOM      3  C   UNL     1       5.098   5.547  18.604  0.00  0.00    +0.000 C 
ATOM      4  C   UNL     1       3.959   5.054  19.609  0.00  0.00    +0.000 C 
ATOM      5  C   UNL     1       3.573   3.580  19.173  0.00  0.00    +0.000 C 
ATOM      6  C   UNL     1       2.741   2.775  20.300  0.00  0.00    +0.000 C 
ATOM      7  C   UNL     1       3.717   2.184  21.390  0.00  0.00    +0.000 C 
ATOM      8  C   UNL     1       2.031   1.517  19.739  0.00  0.00    +0.000 C 
ATOM      9  C   UNL     1       1.396   1.666  18.372  0.00  0.00    +0.000 C 
ATOM     10  C   UNL     1       2.323   2.263  17.314  0.00  0.00    +0.000 C 
ATOM     11  C   UNL     1       2.947   3.630  17.680  0.00  0.00    +0.000 C 
ATOM     12  C   UNL     1       1.760   4.606  17.665  0.00  0.00    +0.000 C 
ATOM     13  C   UNL     1       3.882   4.363  16.559  0.00  0.00    +0.000 C 
ENDROOT
BRANCH   6  14
ATOM     14  C   UNL     1       1.784   3.630  21.178  0.00  0.00    +0.000 C 
ATOM     15  O   UNL     1       2.021   3.934  22.342  0.00  0.00    +0.000 OA
BRANCH  14  16
ATOM     16  O   UNL     1       0.622   4.024  20.625  0.00  0.00    +0.000 OA
ATOM     17  H   UNL     1       0.693   4.476  19.774  0.00  0.00    +0.000 HD
ENDBRANCH  14  16
ENDBRANCH   6  14
BRANCH   3  18
ATOM     18  O   UNL     1       6.253   4.617  18.626  0.00  0.00    +0.000 OA
BRANCH  18  19
ATOM     19  C   UNL     1       7.454   5.075  18.160  0.00  0.00    +0.000 C 
ATOM     20  C   UNL     1       7.812   6.443  18.700  0.00  0.00    +0.000 C 
ATOM     21  O   UNL     1       8.197   4.439  17.403  0.00  0.00    +0.000 OA
ENDBRANCH  18  19
ENDBRANCH   3  18
BRANCH   4  22
ATOM     22  O   UNL     1       2.625   5.804  19.752  0.00  0.00    +0.000 OA
BRANCH  22  23
ATOM     23  C   UNL     1       2.374   7.123  19.748  0.00  0.00    +0.000 C 
ATOM     24  O   UNL     1       2.795   7.865  18.848  0.00  0.00    +0.000 OA
BRANCH  23  25
ATOM     25  C   UNL     1       1.448   7.788  20.867  0.00  0.00    +0.000 A 
ATOM     26  C   UNL     1       2.069   8.659  21.778  0.00  0.00    +0.000 A 
ATOM     27  C   UNL     1       1.369   9.441  22.717  0.00  0.00    +0.000 A 
ATOM     28  C   UNL     1      -0.010   9.388  22.806  0.00  0.00    +0.000 A 
ATOM     29  C   UNL     1      -0.682   8.530  21.937  0.00  0.00    +0.000 A 
ATOM     30  C   UNL     1       0.033   7.734  20.991  0.00  0.00    +0.000 A 
ENDBRANCH  23  25
ENDBRANCH  22  23
ENDBRANCH   4  22
BRANCH  13  31
ATOM     31  C   UNL     1       4.383   3.710  15.211  0.00  0.00    +0.000 C 
BRANCH  31  32
ATOM     32  C   UNL     1       5.933   3.745  15.096  0.00  0.00    +0.000 C 
BRANCH  32  33
ATOM     33  C   UNL     1       6.544   4.223  13.802  0.00  0.00    +0.000 C 
ATOM     34  C   UNL     1       6.288   3.414  12.559  0.00  0.00    +0.000 C 
ATOM     35  C   UNL     1       7.422   5.243  13.847  0.00  0.00    +0.000 C 
BRANCH  35  36
ATOM     36  C   UNL     1       8.225   5.808  12.726  0.00  0.00    +0.000 C 
BRANCH  36  37
ATOM     37  O   UNL     1       9.503   6.131  13.248  0.00  0.00    +0.000 OA
ATOM     38  H   UNL     1       9.699   7.035  12.947  0.00  0.00    +0.000 HD
ENDBRANCH  36  37
ENDBRANCH  35  36
ENDBRANCH  32  33
ENDBRANCH  31  32
ENDBRANCH  13  31
TORSDOF 12
ENDMDL
MODEL 9
REMARK VINA RESULT:      -7.7      1.412      1.896
REMARK  Name = 
REMARK  16 active torsions:
REMARK  status: ('A' for Active; 'I' for Inactive)
REMARK    1  A    between atoms: C_3  and  O_4
REMARK    2  A    between atoms: O_4  and  C_5
REMARK    3  A    between atoms: C_5  and  C_6
REMARK    4  A    between atoms: C_8  and  O_9
REMARK    5  A    between atoms: O_9  and  C_10
REMARK    6  A    between atoms: C_10  and  C_12
REMARK    7  A    between atoms: C_19  and  C_20
REMARK    8  A    between atoms: C_19  and  C_21
REMARK    9  A    between atoms: C_21  and  O_23
REMARK   10  A    between atoms: C_27  and  C_28
REMARK   11  A    between atoms: C_29  and  C_30
REMARK   12  A    between atoms: C_30  and  C_31
REMARK   13  A    between atoms: C_31  and  C_32
REMARK   14  A    between atoms: C_32  and  C_33
REMARK   15  A    between atoms: C_34  and  C_35
REMARK   16  A    between atoms: C_35  and  O_36
REMARK                            x       y       z     vdW  Elec       q    Type
REMARK                         _______ _______ _______ _____ _____    ______ ____
ROOT
ATOM      1  C   UNL     1       4.868   6.945  16.814  0.00  0.00    +0.000 C 
ATOM      2  C   UNL     1       4.744   5.770  17.468  0.00  0.00    +0.000 C 
ATOM      3  C   UNL     1       4.958   5.743  18.978  0.00  0.00    +0.000 C 
ATOM      4  C   UNL     1       3.743   5.104  19.793  0.00  0.00    +0.000 C 
ATOM      5  C   UNL     1       3.570   3.619  19.266  0.00  0.00    +0.000 C 
ATOM      6  C   UNL     1       2.671   2.693  20.238  0.00  0.00    +0.000 C 
ATOM      7  C   UNL     1       3.536   2.153  21.442  0.00  0.00    +0.000 C 
ATOM      8  C   UNL     1       2.176   1.398  19.546  0.00  0.00    +0.000 C 
ATOM      9  C   UNL     1       1.729   1.543  18.106  0.00  0.00    +0.000 C 
ATOM     10  C   UNL     1       2.733   2.268  17.210  0.00  0.00    +0.000 C 
ATOM     11  C   UNL     1       3.160   3.671  17.700  0.00  0.00    +0.000 C 
ATOM     12  C   UNL     1       1.897   4.531  17.539  0.00  0.00    +0.000 C 
ATOM     13  C   UNL     1       4.168   4.534  16.747  0.00  0.00    +0.000 C 
ENDROOT
BRANCH   6  14
ATOM     14  C   UNL     1       1.519   3.418  20.991  0.00  0.00    +0.000 C 
ATOM     15  O   UNL     1       1.512   3.603  22.203  0.00  0.00    +0.000 OA
BRANCH  14  16
ATOM     16  O   UNL     1       0.465   3.830  20.262  0.00  0.00    +0.000 OA
ATOM     17  H   UNL     1      -0.294   4.152  20.764  0.00  0.00    +0.000 HD
ENDBRANCH  14  16
ENDBRANCH   6  14
BRANCH   3  18
ATOM     18  O   UNL     1       6.184   4.925  19.141  0.00  0.00    +0.000 OA
BRANCH  18  19
ATOM     19  C   UNL     1       7.352   5.408  18.618  0.00  0.00    +0.000 C 
ATOM     20  C   UNL     1       7.988   4.459  17.624  0.00  0.00    +0.000 C 
ATOM     21  O   UNL     1       7.834   6.514  18.891  0.00  0.00    +0.000 OA
ENDBRANCH  18  19
ENDBRANCH   3  18
BRANCH   4  22
ATOM     22  O   UNL     1       2.334   5.718  19.762  0.00  0.00    +0.000 OA
BRANCH  22  23
ATOM     23  C   UNL     1       1.834   6.761  20.445  0.00  0.00    +0.000 C 
ATOM     24  O   UNL     1       1.494   6.660  21.634  0.00  0.00    +0.000 OA
BRANCH  23  25
ATOM     25  C   UNL     1       1.729   8.207  19.778  0.00  0.00    +0.000 A 
ATOM     26  C   UNL     1       2.122   8.323  18.434  0.00  0.00    +0.000 A 
ATOM     27  C   UNL     1       1.942   9.487  17.661  0.00  0.00    +0.000 A 
ATOM     28  C   UNL     1       1.359  10.620  18.199  0.00  0.00    +0.000 A 
ATOM     29  C   UNL     1       0.961  10.571  19.535  0.00  0.00    +0.000 A 
ATOM     30  C   UNL     1       1.152   9.390  20.316  0.00  0.00    +0.000 A 
ENDBRANCH  23  25
ENDBRANCH  22  23
ENDBRANCH   4  22
BRANCH  13  31
ATOM     31  C   UNL     1       4.917   3.988  15.468  0.00  0.00    +0.000 C 
BRANCH  31  32
ATOM     32  C   UNL     1       5.962   5.007  14.935  0.00  0.00    +0.000 C 
BRANCH  32  33
ATOM     33  C   UNL     1       6.755   4.642  13.704  0.00  0.00    +0.000 C 
ATOM     34  C   UNL     1       7.928   5.510  13.336  0.00  0.00    +0.000 C 
ATOM     35  C   UNL     1       6.282   3.668  12.903  0.00  0.00    +0.000 C 
BRANCH  35  36
ATOM     36  C   UNL     1       6.828   3.215  11.594  0.00  0.00    +0.000 C 
BRANCH  36  37
ATOM     37  O   UNL     1       6.887   1.800  11.631  0.00  0.00    +0.000 OA
ATOM     38  H   UNL     1       7.830   1.568  11.695  0.00  0.00    +0.000 HD
ENDBRANCH  36  37
ENDBRANCH  35  36
ENDBRANCH  32  33
ENDBRANCH  31  32
ENDBRANCH  13  31
TORSDOF 12
ENDMDL
