MODEL 1
REMARK VINA RESULT:      -7.2      0.000      0.000
REMARK  Name = 
REMARK  7 active torsions:
REMARK  status: ('A' for Active; 'I' for Inactive)
REMARK    1  A    between atoms: C_1  and  C_2
REMARK    2  A    between atoms: C_13  and  C_14
REMARK    3  A    between atoms: C_18  and  C_19
REMARK    4  A    between atoms: C_22  and  C_23
REMARK    5  A    between atoms: C_23  and  C_24
REMARK    6  A    between atoms: C_23  and  C_25
REMARK    7  A    between atoms: C_23  and  C_26
REMARK                            x       y       z     vdW  Elec       q    Type
REMARK                         _______ _______ _______ _____ _____    ______ ____
ROOT
ATOM      1  C   UNL     1       2.266   8.719  17.509  0.00  0.00    +0.000 C 
ATOM      2  C   UNL     1       1.750   8.819  18.899  0.00  0.00    +0.000 A 
ATOM      3  N   UNL     1       1.164  10.017  19.284  0.00  0.00    +0.000 NA
ATOM      4  C   UNL     1       0.676   9.904  20.495  0.00  0.00    +0.000 A 
ATOM      5  N   UNL     1       0.031  10.950  21.092  0.00  0.00    +0.000 N 
ATOM      6  C   UNL     1      -0.733  10.903  22.229  0.00  0.00    +0.000 C 
ATOM      7  O   UNL     1      -0.901   9.914  22.940  0.00  0.00    +0.000 OA
ATOM      8  N   UNL     1      -1.371  12.102  22.538  0.00  0.00    +0.000 N 
ATOM      9  C   UNL     1      -2.355  12.147  23.631  0.00  0.00    +0.000 C 
ATOM     10  C   UNL     1      -3.632  12.658  22.963  0.00  0.00    +0.000 C 
ATOM     11  C   UNL     1      -3.106  13.591  21.896  0.00  0.00    +0.000 C 
ATOM     12  C   UNL     1      -2.814  13.016  20.550  0.00  0.00    +0.000 C 
ATOM     13  C   UNL     1      -1.689  13.145  21.568  0.00  0.00    +0.000 C 
ATOM     14  S   UNL     1       0.923   8.415  21.262  0.00  0.00    +0.000 S 
ATOM     15  C   UNL     1       1.769   7.851  19.889  0.00  0.00    +0.000 A 
ATOM     16  H   UNL     1       0.098  11.802  20.549  0.00  0.00    +0.000 HD
ENDROOT
BRANCH  13  17
ATOM     17  C   UNL     1      -0.551  14.003  21.084  0.00  0.00    +0.000 C 
ATOM     18  N   UNL     1      -0.278  15.153  21.746  0.00  0.00    +0.000 N 
ATOM     19  O   UNL     1       0.138  13.620  20.143  0.00  0.00    +0.000 OA
ATOM     20  H   UNL     1       0.574  15.630  21.482  0.00  0.00    +0.000 HD
ATOM     21  H   UNL     1      -0.705  15.382  22.635  0.00  0.00    +0.000 HD
ENDBRANCH  13  17
BRANCH  15  22
ATOM     22  C   UNL     1       2.429   6.515  19.798  0.00  0.00    +0.000 A 
ATOM     23  C   UNL     1       3.726   6.335  19.367  0.00  0.00    +0.000 A 
ATOM     24  S   UNL     1       4.108   4.671  19.339  0.00  0.00    +0.000 S 
ATOM     25  C   UNL     1       2.502   4.297  19.861  0.00  0.00    +0.000 A 
ATOM     26  N   UNL     1       1.749   5.351  20.101  0.00  0.00    +0.000 NA
BRANCH  25  27
ATOM     27  C   UNL     1       2.023   2.856  19.984  0.00  0.00    +0.000 C 
ATOM     28  C   UNL     1       1.765   2.489  21.455  0.00  0.00    +0.000 C 
ATOM     29  C   UNL     1       0.704   2.668  19.201  0.00  0.00    +0.000 C 
ATOM     30  C   UNL     1       3.068   1.896  19.385  0.00  0.00    +0.000 C 
ENDBRANCH  25  27
ENDBRANCH  15  22
TORSDOF 3
ENDMDL
MODEL 2
REMARK VINA RESULT:      -7.0      3.730      9.655
REMARK  Name = 
REMARK  7 active torsions:
REMARK  status: ('A' for Active; 'I' for Inactive)
REMARK    1  A    between atoms: C_1  and  C_2
REMARK    2  A    between atoms: C_13  and  C_14
REMARK    3  A    between atoms: C_18  and  C_19
REMARK    4  A    between atoms: C_22  and  C_23
REMARK    5  A    between atoms: C_23  and  C_24
REMARK    6  A    between atoms: C_23  and  C_25
REMARK    7  A    between atoms: C_23  and  C_26
REMARK                            x       y       z     vdW  Elec       q    Type
REMARK                         _______ _______ _______ _____ _____    ______ ____
ROOT
ATOM      1  C   UNL     1       0.431   8.145  21.453  0.00  0.00    +0.000 C 
ATOM      2  C   UNL     1       1.201   8.354  20.200  0.00  0.00    +0.000 A 
ATOM      3  N   UNL     1       2.218   7.455  19.911  0.00  0.00    +0.000 NA
ATOM      4  C   UNL     1       2.725   7.722  18.732  0.00  0.00    +0.000 A 
ATOM      5  N   UNL     1       3.735   6.961  18.213  0.00  0.00    +0.000 N 
ATOM      6  C   UNL     1       4.184   6.964  16.918  0.00  0.00    +0.000 C 
ATOM      7  O   UNL     1       3.794   7.713  16.025  0.00  0.00    +0.000 OA
ATOM      8  N   UNL     1       5.146   5.994  16.646  0.00  0.00    +0.000 N 
ATOM      9  C   UNL     1       5.589   5.772  15.260  0.00  0.00    +0.000 C 
ATOM     10  C   UNL     1       5.295   4.293  15.007  0.00  0.00    +0.000 C 
ATOM     11  C   UNL     1       5.518   3.666  16.364  0.00  0.00    +0.000 C 
ATOM     12  C   UNL     1       4.352   3.581  17.292  0.00  0.00    +0.000 C 
ATOM     13  C   UNL     1       5.313   4.758  17.403  0.00  0.00    +0.000 C 
ATOM     14  S   UNL     1       2.076   9.063  17.927  0.00  0.00    +0.000 S 
ATOM     15  C   UNL     1       1.033   9.349  19.251  0.00  0.00    +0.000 A 
ATOM     16  H   UNL     1       4.093   6.293  18.884  0.00  0.00    +0.000 HD
ENDROOT
BRANCH  13  17
ATOM     17  C   UNL     1       5.963   4.864  18.757  0.00  0.00    +0.000 C 
ATOM     18  N   UNL     1       7.303   4.697  18.848  0.00  0.00    +0.000 N 
ATOM     19  O   UNL     1       5.280   5.153  19.734  0.00  0.00    +0.000 OA
ATOM     20  H   UNL     1       7.722   4.912  19.743  0.00  0.00    +0.000 HD
ATOM     21  H   UNL     1       7.902   4.654  18.032  0.00  0.00    +0.000 HD
ENDBRANCH  13  17
BRANCH  15  22
ATOM     22  C   UNL     1       0.098  10.508  19.349  0.00  0.00    +0.000 A 
ATOM     23  C   UNL     1      -1.203  10.477  18.892  0.00  0.00    +0.000 A 
ATOM     24  S   UNL     1      -1.939  12.001  19.120  0.00  0.00    +0.000 S 
ATOM     25  C   UNL     1      -0.461  12.615  19.773  0.00  0.00    +0.000 A 
ATOM     26  N   UNL     1       0.503  11.721  19.873  0.00  0.00    +0.000 NA
BRANCH  25  27
ATOM     27  C   UNL     1      -0.311  14.082  20.155  0.00  0.00    +0.000 C 
ATOM     28  C   UNL     1       0.736  14.253  21.269  0.00  0.00    +0.000 C 
ATOM     29  C   UNL     1       0.150  14.903  18.930  0.00  0.00    +0.000 C 
ATOM     30  C   UNL     1      -1.664  14.650  20.623  0.00  0.00    +0.000 C 
ENDBRANCH  25  27
ENDBRANCH  15  22
TORSDOF 3
ENDMDL
MODEL 3
REMARK VINA RESULT:      -6.9      3.115      9.288
REMARK  Name = 
REMARK  7 active torsions:
REMARK  status: ('A' for Active; 'I' for Inactive)
REMARK    1  A    between atoms: C_1  and  C_2
REMARK    2  A    between atoms: C_13  and  C_14
REMARK    3  A    between atoms: C_18  and  C_19
REMARK    4  A    between atoms: C_22  and  C_23
REMARK    5  A    between atoms: C_23  and  C_24
REMARK    6  A    between atoms: C_23  and  C_25
REMARK    7  A    between atoms: C_23  and  C_26
REMARK                            x       y       z     vdW  Elec       q    Type
REMARK                         _______ _______ _______ _____ _____    ______ ____
ROOT
ATOM      1  C   UNL     1      -0.548   9.219  22.599  0.00  0.00    +0.000 C 
ATOM      2  C   UNL     1       0.394   8.907  21.493  0.00  0.00    +0.000 A 
ATOM      3  N   UNL     1       0.823   7.594  21.363  0.00  0.00    +0.000 NA
ATOM      4  C   UNL     1       1.562   7.472  20.288  0.00  0.00    +0.000 A 
ATOM      5  N   UNL     1       2.091   6.263  19.932  0.00  0.00    +0.000 N 
ATOM      6  C   UNL     1       2.663   5.939  18.729  0.00  0.00    +0.000 C 
ATOM      7  O   UNL     1       2.857   6.713  17.795  0.00  0.00    +0.000 OA
ATOM      8  N   UNL     1       3.005   4.594  18.606  0.00  0.00    +0.000 N 
ATOM      9  C   UNL     1       3.468   4.074  17.309  0.00  0.00    +0.000 C 
ATOM     10  C   UNL     1       2.487   2.945  16.989  0.00  0.00    +0.000 C 
ATOM     11  C   UNL     1       2.146   2.394  18.355  0.00  0.00    +0.000 C 
ATOM     12  C   UNL     1       0.984   2.993  19.077  0.00  0.00    +0.000 C 
ATOM     13  C   UNL     1       2.389   3.509  19.362  0.00  0.00    +0.000 C 
ATOM     14  S   UNL     1       1.836   8.892  19.407  0.00  0.00    +0.000 S 
ATOM     15  C   UNL     1       0.912   9.772  20.544  0.00  0.00    +0.000 A 
ATOM     16  H   UNL     1       1.945   5.558  20.643  0.00  0.00    +0.000 HD
ENDROOT
BRANCH  13  17
ATOM     17  C   UNL     1       2.790   3.364  20.806  0.00  0.00    +0.000 C 
ATOM     18  N   UNL     1       3.784   2.501  21.119  0.00  0.00    +0.000 N 
ATOM     19  O   UNL     1       2.251   4.066  21.656  0.00  0.00    +0.000 OA
ATOM     20  H   UNL     1       4.120   2.532  22.072  0.00  0.00    +0.000 HD
ATOM     21  H   UNL     1       4.368   2.065  20.415  0.00  0.00    +0.000 HD
ENDBRANCH  13  17
BRANCH  15  22
ATOM     22  C   UNL     1       0.716  11.251  20.504  0.00  0.00    +0.000 A 
ATOM     23  C   UNL     1      -0.423  11.855  20.013  0.00  0.00    +0.000 A 
ATOM     24  S   UNL     1      -0.258  13.553  20.072  0.00  0.00    +0.000 S 
ATOM     25  C   UNL     1       1.340  13.372  20.707  0.00  0.00    +0.000 A 
ATOM     26  N   UNL     1       1.703  12.123  20.920  0.00  0.00    +0.000 NA
BRANCH  25  27
ATOM     27  C   UNL     1       2.239  14.578  20.951  0.00  0.00    +0.000 C 
ATOM     28  C   UNL     1       2.307  15.471  19.701  0.00  0.00    +0.000 C 
ATOM     29  C   UNL     1       1.683  15.424  22.118  0.00  0.00    +0.000 C 
ATOM     30  C   UNL     1       3.657  14.115  21.336  0.00  0.00    +0.000 C 
ENDBRANCH  25  27
ENDBRANCH  15  22
TORSDOF 3
ENDMDL
MODEL 4
REMARK VINA RESULT:      -6.8      3.679      9.462
REMARK  Name = 
REMARK  7 active torsions:
REMARK  status: ('A' for Active; 'I' for Inactive)
REMARK    1  A    between atoms: C_1  and  C_2
REMARK    2  A    between atoms: C_13  and  C_14
REMARK    3  A    between atoms: C_18  and  C_19
REMARK    4  A    between atoms: C_22  and  C_23
REMARK    5  A    between atoms: C_23  and  C_24
REMARK    6  A    between atoms: C_23  and  C_25
REMARK    7  A    between atoms: C_23  and  C_26
REMARK                            x       y       z     vdW  Elec       q    Type
REMARK                         _______ _______ _______ _____ _____    ______ ____
ROOT
ATOM      1  C   UNL     1       0.419   7.867  21.590  0.00  0.00    +0.000 C 
ATOM      2  C   UNL     1       1.163   8.150  20.336  0.00  0.00    +0.000 A 
ATOM      3  N   UNL     1       2.208   7.300  20.001  0.00  0.00    +0.000 NA
ATOM      4  C   UNL     1       2.688   7.627  18.826  0.00  0.00    +0.000 A 
ATOM      5  N   UNL     1       3.718   6.923  18.267  0.00  0.00    +0.000 N 
ATOM      6  C   UNL     1       4.149   6.990  16.968  0.00  0.00    +0.000 C 
ATOM      7  O   UNL     1       3.719   7.756  16.108  0.00  0.00    +0.000 OA
ATOM      8  N   UNL     1       5.141   6.066  16.648  0.00  0.00    +0.000 N 
ATOM      9  C   UNL     1       5.573   5.911  15.250  0.00  0.00    +0.000 C 
ATOM     10  C   UNL     1       5.328   4.432  14.946  0.00  0.00    +0.000 C 
ATOM     11  C   UNL     1       5.593   3.764  16.276  0.00  0.00    +0.000 C 
ATOM     12  C   UNL     1       4.444   3.603  17.215  0.00  0.00    +0.000 C 
ATOM     13  C   UNL     1       5.363   4.810  17.357  0.00  0.00    +0.000 C 
ATOM     14  S   UNL     1       1.981   8.972  18.080  0.00  0.00    +0.000 S 
ATOM     15  C   UNL     1       0.947   9.171  19.426  0.00  0.00    +0.000 A 
ATOM     16  H   UNL     1       4.110   6.245  18.908  0.00  0.00    +0.000 HD
ENDROOT
BRANCH  13  17
ATOM     17  C   UNL     1       6.028   4.890  18.705  0.00  0.00    +0.000 C 
ATOM     18  N   UNL     1       7.373   4.756  18.774  0.00  0.00    +0.000 N 
ATOM     19  O   UNL     1       5.350   5.130  19.700  0.00  0.00    +0.000 OA
ATOM     20  H   UNL     1       7.797   4.953  19.671  0.00  0.00    +0.000 HD
ATOM     21  H   UNL     1       7.962   4.755  17.950  0.00  0.00    +0.000 HD
ENDBRANCH  13  17
BRANCH  15  22
ATOM     22  C   UNL     1      -0.028  10.291  19.579  0.00  0.00    +0.000 A 
ATOM     23  C   UNL     1      -0.656  10.904  18.515  0.00  0.00    +0.000 A 
ATOM     24  S   UNL     1      -1.648  12.176  19.075  0.00  0.00    +0.000 S 
ATOM     25  C   UNL     1      -1.140  11.855  20.696  0.00  0.00    +0.000 A 
ATOM     26  N   UNL     1      -0.330  10.823  20.818  0.00  0.00    +0.000 NA
BRANCH  25  27
ATOM     27  C   UNL     1      -1.583  12.738  21.857  0.00  0.00    +0.000 C 
ATOM     28  C   UNL     1      -2.015  11.883  23.060  0.00  0.00    +0.000 C 
ATOM     29  C   UNL     1      -0.417  13.647  22.304  0.00  0.00    +0.000 C 
ATOM     30  C   UNL     1      -2.748  13.645  21.418  0.00  0.00    +0.000 C 
ENDBRANCH  25  27
ENDBRANCH  15  22
TORSDOF 3
ENDMDL
MODEL 5
REMARK VINA RESULT:      -6.8      3.345      9.332
REMARK  Name = 
REMARK  7 active torsions:
REMARK  status: ('A' for Active; 'I' for Inactive)
REMARK    1  A    between atoms: C_1  and  C_2
REMARK    2  A    between atoms: C_13  and  C_14
REMARK    3  A    between atoms: C_18  and  C_19
REMARK    4  A    between atoms: C_22  and  C_23
REMARK    5  A    between atoms: C_23  and  C_24
REMARK    6  A    between atoms: C_23  and  C_25
REMARK    7  A    between atoms: C_23  and  C_26
REMARK                            x       y       z     vdW  Elec       q    Type
REMARK                         _______ _______ _______ _____ _____    ______ ____
ROOT
ATOM      1  C   UNL     1      -0.351   9.071  22.275  0.00  0.00    +0.000 C 
ATOM      2  C   UNL     1       0.572   8.642  21.193  0.00  0.00    +0.000 A 
ATOM      3  N   UNL     1       0.994   7.319  21.193  0.00  0.00    +0.000 NA
ATOM      4  C   UNL     1       1.716   7.083  20.125  0.00  0.00    +0.000 A 
ATOM      5  N   UNL     1       2.235   5.841  19.888  0.00  0.00    +0.000 N 
ATOM      6  C   UNL     1       2.786   5.391  18.717  0.00  0.00    +0.000 C 
ATOM      7  O   UNL     1       2.970   6.064  17.705  0.00  0.00    +0.000 OA
ATOM      8  N   UNL     1       3.122   4.039  18.728  0.00  0.00    +0.000 N 
ATOM      9  C   UNL     1       3.562   3.385  17.485  0.00  0.00    +0.000 C 
ATOM     10  C   UNL     1       2.571   2.234  17.299  0.00  0.00    +0.000 C 
ATOM     11  C   UNL     1       2.249   1.830  18.719  0.00  0.00    +0.000 C 
ATOM     12  C   UNL     1       1.101   2.506  19.393  0.00  0.00    +0.000 C 
ATOM     13  C   UNL     1       2.512   3.041  19.602  0.00  0.00    +0.000 C 
ATOM     14  S   UNL     1       1.982   8.403  19.098  0.00  0.00    +0.000 S 
ATOM     15  C   UNL     1       1.080   9.401  20.152  0.00  0.00    +0.000 A 
ATOM     16  H   UNL     1       2.097   5.214  20.670  0.00  0.00    +0.000 HD
ENDROOT
BRANCH  13  17
ATOM     17  C   UNL     1       2.935   3.043  21.047  0.00  0.00    +0.000 C 
ATOM     18  N   UNL     1       2.137   3.655  21.954  0.00  0.00    +0.000 N 
ATOM     19  O   UNL     1       3.954   2.447  21.379  0.00  0.00    +0.000 OA
ATOM     20  H   UNL     1       2.379   3.517  22.926  0.00  0.00    +0.000 HD
ATOM     21  H   UNL     1       1.204   3.976  21.729  0.00  0.00    +0.000 HD
ENDBRANCH  13  17
BRANCH  15  22
ATOM     22  C   UNL     1       0.889  10.869  19.962  0.00  0.00    +0.000 A 
ATOM     23  C   UNL     1       0.056  11.411  19.005  0.00  0.00    +0.000 A 
ATOM     24  S   UNL     1       0.145  13.115  19.049  0.00  0.00    +0.000 S 
ATOM     25  C   UNL     1       1.323  13.019  20.312  0.00  0.00    +0.000 A 
ATOM     26  N   UNL     1       1.586  11.793  20.717  0.00  0.00    +0.000 NA
BRANCH  25  27
ATOM     27  C   UNL     1       2.006  14.266  20.857  0.00  0.00    +0.000 C 
ATOM     28  C   UNL     1       3.438  13.947  21.321  0.00  0.00    +0.000 C 
ATOM     29  C   UNL     1       2.085  15.349  19.758  0.00  0.00    +0.000 C 
ATOM     30  C   UNL     1       1.196  14.844  22.033  0.00  0.00    +0.000 C 
ENDBRANCH  25  27
ENDBRANCH  15  22
TORSDOF 3
ENDMDL
MODEL 6
REMARK VINA RESULT:      -6.7      3.261      9.226
REMARK  Name = 
REMARK  7 active torsions:
REMARK  status: ('A' for Active; 'I' for Inactive)
REMARK    1  A    between atoms: C_1  and  C_2
REMARK    2  A    between atoms: C_13  and  C_14
REMARK    3  A    between atoms: C_18  and  C_19
REMARK    4  A    between atoms: C_22  and  C_23
REMARK    5  A    between atoms: C_23  and  C_24
REMARK    6  A    between atoms: C_23  and  C_25
REMARK    7  A    between atoms: C_23  and  C_26
REMARK                            x       y       z     vdW  Elec       q    Type
REMARK                         _______ _______ _______ _____ _____    ______ ____
ROOT
ATOM      1  C   UNL     1      -0.598   9.840  21.812  0.00  0.00    +0.000 C 
ATOM      2  C   UNL     1       0.384   9.296  20.839  0.00  0.00    +0.000 A 
ATOM      3  N   UNL     1       0.733   7.957  20.955  0.00  0.00    +0.000 NA
ATOM      4  C   UNL     1       1.523   7.616  19.968  0.00  0.00    +0.000 A 
ATOM      5  N   UNL     1       1.991   6.337  19.852  0.00  0.00    +0.000 N 
ATOM      6  C   UNL     1       2.609   5.783  18.761  0.00  0.00    +0.000 C 
ATOM      7  O   UNL     1       2.908   6.378  17.727  0.00  0.00    +0.000 OA
ATOM      8  N   UNL     1       2.868   4.421  18.883  0.00  0.00    +0.000 N 
ATOM      9  C   UNL     1       3.370   3.665  17.724  0.00  0.00    +0.000 C 
ATOM     10  C   UNL     1       2.336   2.555  17.527  0.00  0.00    +0.000 C 
ATOM     11  C   UNL     1       1.881   2.261  18.938  0.00  0.00    +0.000 C 
ATOM     12  C   UNL     1       0.722   3.036  19.472  0.00  0.00    +0.000 C 
ATOM     13  C   UNL     1       2.138   3.514  19.763  0.00  0.00    +0.000 C 
ATOM     14  S   UNL     1       1.941   8.850  18.886  0.00  0.00    +0.000 S 
ATOM     15  C   UNL     1       1.013   9.958  19.798  0.00  0.00    +0.000 A 
ATOM     16  H   UNL     1       1.757   5.770  20.657  0.00  0.00    +0.000 HD
ENDROOT
BRANCH  13  17
ATOM     17  C   UNL     1       2.444   3.591  21.235  0.00  0.00    +0.000 C 
ATOM     18  N   UNL     1       2.637   2.438  21.919  0.00  0.00    +0.000 N 
ATOM     19  O   UNL     1       2.568   4.688  21.770  0.00  0.00    +0.000 OA
ATOM     20  H   UNL     1       2.976   2.532  22.867  0.00  0.00    +0.000 HD
ATOM     21  H   UNL     1       2.733   1.542  21.457  0.00  0.00    +0.000 HD
ENDBRANCH  13  17
BRANCH  15  22
ATOM     22  C   UNL     1       0.918  11.418  19.502  0.00  0.00    +0.000 A 
ATOM     23  C   UNL     1      -0.185  12.007  18.920  0.00  0.00    +0.000 A 
ATOM     24  S   UNL     1       0.097  13.674  18.682  0.00  0.00    +0.000 S 
ATOM     25  C   UNL     1       1.690  13.494  19.332  0.00  0.00    +0.000 A 
ATOM     26  N   UNL     1       1.970  12.278  19.756  0.00  0.00    +0.000 NA
BRANCH  25  27
ATOM     27  C   UNL     1       2.672  14.658  19.358  0.00  0.00    +0.000 C 
ATOM     28  C   UNL     1       3.415  14.777  18.016  0.00  0.00    +0.000 C 
ATOM     29  C   UNL     1       1.917  15.981  19.611  0.00  0.00    +0.000 C 
ATOM     30  C   UNL     1       3.690  14.468  20.499  0.00  0.00    +0.000 C 
ENDBRANCH  25  27
ENDBRANCH  15  22
TORSDOF 3
ENDMDL
MODEL 7
REMARK VINA RESULT:      -6.7      1.578      2.060
REMARK  Name = 
REMARK  7 active torsions:
REMARK  status: ('A' for Active; 'I' for Inactive)
REMARK    1  A    between atoms: C_1  and  C_2
REMARK    2  A    between atoms: C_13  and  C_14
REMARK    3  A    between atoms: C_18  and  C_19
REMARK    4  A    between atoms: C_22  and  C_23
REMARK    5  A    between atoms: C_23  and  C_24
REMARK    6  A    between atoms: C_23  and  C_25
REMARK    7  A    between atoms: C_23  and  C_26
REMARK                            x       y       z     vdW  Elec       q    Type
REMARK                         _______ _______ _______ _____ _____    ______ ____
ROOT
ATOM      1  C   UNL     1       1.860   9.368  17.722  0.00  0.00    +0.000 C 
ATOM      2  C   UNL     1       1.354   9.412  19.118  0.00  0.00    +0.000 A 
ATOM      3  N   UNL     1       0.770  10.593  19.555  0.00  0.00    +0.000 NA
ATOM      4  C   UNL     1       0.292  10.431  20.764  0.00  0.00    +0.000 A 
ATOM      5  N   UNL     1      -0.350  11.452  21.408  0.00  0.00    +0.000 N 
ATOM      6  C   UNL     1      -1.105  11.359  22.548  0.00  0.00    +0.000 C 
ATOM      7  O   UNL     1      -1.266  10.343  23.220  0.00  0.00    +0.000 OA
ATOM      8  N   UNL     1      -1.741  12.544  22.909  0.00  0.00    +0.000 N 
ATOM      9  C   UNL     1      -2.717  12.544  24.010  0.00  0.00    +0.000 C 
ATOM     10  C   UNL     1      -4.000  13.080  23.372  0.00  0.00    +0.000 C 
ATOM     11  C   UNL     1      -3.483  14.055  22.339  0.00  0.00    +0.000 C 
ATOM     12  C   UNL     1      -3.201  13.534  20.969  0.00  0.00    +0.000 C 
ATOM     13  C   UNL     1      -2.068  13.624  21.983  0.00  0.00    +0.000 C 
ATOM     14  S   UNL     1       0.546   8.913  21.470  0.00  0.00    +0.000 S 
ATOM     15  C   UNL     1       1.382   8.405  20.069  0.00  0.00    +0.000 A 
ATOM     16  H   UNL     1      -0.288  12.324  20.898  0.00  0.00    +0.000 HD
ENDROOT
BRANCH  13  17
ATOM     17  C   UNL     1      -0.934  14.502  21.525  0.00  0.00    +0.000 C 
ATOM     18  N   UNL     1      -0.664  15.630  22.224  0.00  0.00    +0.000 N 
ATOM     19  O   UNL     1      -0.247  14.153  20.570  0.00  0.00    +0.000 OA
ATOM     20  H   UNL     1       0.185  16.119  21.973  0.00  0.00    +0.000 HD
ATOM     21  H   UNL     1      -1.090  15.829  23.121  0.00  0.00    +0.000 HD
ENDBRANCH  13  17
BRANCH  15  22
ATOM     22  C   UNL     1       2.042   7.075  19.920  0.00  0.00    +0.000 A 
ATOM     23  C   UNL     1       1.756   5.989  20.721  0.00  0.00    +0.000 A 
ATOM     24  S   UNL     1       2.750   4.668  20.293  0.00  0.00    +0.000 S 
ATOM     25  C   UNL     1       3.527   5.644  19.096  0.00  0.00    +0.000 A 
ATOM     26  N   UNL     1       3.033   6.861  18.981  0.00  0.00    +0.000 NA
BRANCH  25  27
ATOM     27  C   UNL     1       4.708   5.119  18.289  0.00  0.00    +0.000 C 
ATOM     28  C   UNL     1       5.971   5.030  19.161  0.00  0.00    +0.000 C 
ATOM     29  C   UNL     1       4.393   3.706  17.749  0.00  0.00    +0.000 C 
ATOM     30  C   UNL     1       4.975   6.038  17.081  0.00  0.00    +0.000 C 
ENDBRANCH  25  27
ENDBRANCH  15  22
TORSDOF 3
ENDMDL
MODEL 8
REMARK VINA RESULT:      -6.6      3.652      9.651
REMARK  Name = 
REMARK  7 active torsions:
REMARK  status: ('A' for Active; 'I' for Inactive)
REMARK    1  A    between atoms: C_1  and  C_2
REMARK    2  A    between atoms: C_13  and  C_14
REMARK    3  A    between atoms: C_18  and  C_19
REMARK    4  A    between atoms: C_22  and  C_23
REMARK    5  A    between atoms: C_23  and  C_24
REMARK    6  A    between atoms: C_23  and  C_25
REMARK    7  A    between atoms: C_23  and  C_26
REMARK                            x       y       z     vdW  Elec       q    Type
REMARK                         _______ _______ _______ _____ _____    ______ ____
ROOT
ATOM      1  C   UNL     1       0.124   8.176  21.435  0.00  0.00    +0.000 C 
ATOM      2  C   UNL     1       1.025   8.395  20.274  0.00  0.00    +0.000 A 
ATOM      3  N   UNL     1       1.954   7.405  19.983  0.00  0.00    +0.000 NA
ATOM      4  C   UNL     1       2.593   7.706  18.880  0.00  0.00    +0.000 A 
ATOM      5  N   UNL     1       3.552   6.873  18.374  0.00  0.00    +0.000 N 
ATOM      6  C   UNL     1       4.116   6.931  17.126  0.00  0.00    +0.000 C 
ATOM      7  O   UNL     1       3.898   7.797  16.280  0.00  0.00    +0.000 OA
ATOM      8  N   UNL     1       4.979   5.877  16.841  0.00  0.00    +0.000 N 
ATOM      9  C   UNL     1       5.519   5.721  15.480  0.00  0.00    +0.000 C 
ATOM     10  C   UNL     1       5.079   4.316  15.064  0.00  0.00    +0.000 C 
ATOM     11  C   UNL     1       5.103   3.552  16.368  0.00  0.00    +0.000 C 
ATOM     12  C   UNL     1       3.855   3.534  17.186  0.00  0.00    +0.000 C 
ATOM     13  C   UNL     1       4.931   4.569  17.487  0.00  0.00    +0.000 C 
ATOM     14  S   UNL     1       2.181   9.181  18.158  0.00  0.00    +0.000 S 
ATOM     15  C   UNL     1       1.062   9.480  19.414  0.00  0.00    +0.000 A 
ATOM     16  H   UNL     1       3.767   6.111  19.004  0.00  0.00    +0.000 HD
ENDROOT
BRANCH  13  17
ATOM     17  C   UNL     1       5.462   4.477  18.892  0.00  0.00    +0.000 C 
ATOM     18  N   UNL     1       5.342   3.303  19.556  0.00  0.00    +0.000 N 
ATOM     19  O   UNL     1       6.039   5.441  19.385  0.00  0.00    +0.000 OA
ATOM     20  H   UNL     1       5.831   3.236  20.438  0.00  0.00    +0.000 HD
ATOM     21  H   UNL     1       5.050   2.448  19.098  0.00  0.00    +0.000 HD
ENDBRANCH  13  17
BRANCH  15  22
ATOM     22  C   UNL     1       0.262  10.733  19.547  0.00  0.00    +0.000 A 
ATOM     23  C   UNL     1      -1.063  10.834  19.178  0.00  0.00    +0.000 A 
ATOM     24  S   UNL     1      -1.618  12.430  19.419  0.00  0.00    +0.000 S 
ATOM     25  C   UNL     1      -0.042  12.894  19.958  0.00  0.00    +0.000 A 
ATOM     26  N   UNL     1       0.827  11.905  20.014  0.00  0.00    +0.000 NA
BRANCH  25  27
ATOM     27  C   UNL     1       0.287  14.343  20.294  0.00  0.00    +0.000 C 
ATOM     28  C   UNL     1      -0.998  15.167  20.481  0.00  0.00    +0.000 C 
ATOM     29  C   UNL     1       1.099  14.410  21.607  0.00  0.00    +0.000 C 
ATOM     30  C   UNL     1       1.145  14.966  19.176  0.00  0.00    +0.000 C 
ENDBRANCH  25  27
ENDBRANCH  15  22
TORSDOF 3
ENDMDL
MODEL 9
REMARK VINA RESULT:      -6.6      2.880      9.338
REMARK  Name = 
REMARK  7 active torsions:
REMARK  status: ('A' for Active; 'I' for Inactive)
REMARK    1  A    between atoms: C_1  and  C_2
REMARK    2  A    between atoms: C_13  and  C_14
REMARK    3  A    between atoms: C_18  and  C_19
REMARK    4  A    between atoms: C_22  and  C_23
REMARK    5  A    between atoms: C_23  and  C_24
REMARK    6  A    between atoms: C_23  and  C_25
REMARK    7  A    between atoms: C_23  and  C_26
REMARK                            x       y       z     vdW  Elec       q    Type
REMARK                         _______ _______ _______ _____ _____    ______ ____
ROOT
ATOM      1  C   UNL     1      -0.430   9.095  22.193  0.00  0.00    +0.000 C 
ATOM      2  C   UNL     1       0.531   8.672  21.142  0.00  0.00    +0.000 A 
ATOM      3  N   UNL     1       0.931   7.343  21.131  0.00  0.00    +0.000 NA
ATOM      4  C   UNL     1       1.693   7.117  20.090  0.00  0.00    +0.000 A 
ATOM      5  N   UNL     1       2.201   5.871  19.849  0.00  0.00    +0.000 N 
ATOM      6  C   UNL     1       2.794   5.435  18.692  0.00  0.00    +0.000 C 
ATOM      7  O   UNL     1       3.032   6.126  17.704  0.00  0.00    +0.000 OA
ATOM      8  N   UNL     1       3.106   4.078  18.688  0.00  0.00    +0.000 N 
ATOM      9  C   UNL     1       3.588   3.442  17.452  0.00  0.00    +0.000 C 
ATOM     10  C   UNL     1       2.587   2.313  17.199  0.00  0.00    +0.000 C 
ATOM     11  C   UNL     1       2.198   1.885  18.595  0.00  0.00    +0.000 C 
ATOM     12  C   UNL     1       1.034   2.567  19.234  0.00  0.00    +0.000 C 
ATOM     13  C   UNL     1       2.444   3.073  19.514  0.00  0.00    +0.000 C 
ATOM     14  S   UNL     1       2.025   8.453  19.104  0.00  0.00    +0.000 S 
ATOM     15  C   UNL     1       1.095   9.444  20.140  0.00  0.00    +0.000 A 
ATOM     16  H   UNL     1       2.019   5.230  20.611  0.00  0.00    +0.000 HD
ENDROOT
BRANCH  13  17
ATOM     17  C   UNL     1       2.804   3.038  20.975  0.00  0.00    +0.000 C 
ATOM     18  N   UNL     1       3.780   2.192  21.382  0.00  0.00    +0.000 N 
ATOM     19  O   UNL     1       2.252   3.809  21.752  0.00  0.00    +0.000 OA
ATOM     20  H   UNL     1       4.091   2.295  22.339  0.00  0.00    +0.000 HD
ATOM     21  H   UNL     1       4.377   1.697  20.730  0.00  0.00    +0.000 HD
ENDBRANCH  13  17
BRANCH  15  22
ATOM     22  C   UNL     1       0.937  10.919  19.973  0.00  0.00    +0.000 A 
ATOM     23  C   UNL     1       1.398  11.615  18.876  0.00  0.00    +0.000 A 
ATOM     24  S   UNL     1       1.091  13.283  19.069  0.00  0.00    +0.000 S 
ATOM     25  C   UNL     1       0.402  12.973  20.625  0.00  0.00    +0.000 A 
ATOM     26  N   UNL     1       0.349  11.698  20.952  0.00  0.00    +0.000 NA
BRANCH  25  27
ATOM     27  C   UNL     1      -0.057  14.110  21.530  0.00  0.00    +0.000 C 
ATOM     28  C   UNL     1      -1.015  15.051  20.782  0.00  0.00    +0.000 C 
ATOM     29  C   UNL     1      -0.801  13.540  22.758  0.00  0.00    +0.000 C 
ATOM     30  C   UNL     1       1.159  14.906  22.041  0.00  0.00    +0.000 C 
ENDBRANCH  25  27
ENDBRANCH  15  22
TORSDOF 3
ENDMDL
