MODEL 1
REMARK VINA RESULT:      -8.0      0.000      0.000
REMARK  Name = 
REMARK  9 active torsions:
REMARK  status: ('A' for Active; 'I' for Inactive)
REMARK    1  A    between atoms: C_1  and  C_2
REMARK    2  A    between atoms: C_2  and  O_3
REMARK    3  A    between atoms: O_3  and  C_4
REMARK    4  A    between atoms: C_9  and  N_10
REMARK    5  A    between atoms: C_11  and  C_13
REMARK    6  A    between atoms: C_13  and  N_14
REMARK    7  A    between atoms: N_14  and  S_20
REMARK    8  A    between atoms: S_20  and  C_23
REMARK    9  A    between atoms: C_26  and  N_27
REMARK                            x       y       z     vdW  Elec       q    Type
REMARK                         _______ _______ _______ _____ _____    ______ ____
ROOT
ATOM      1  N   UNL     1       3.496   5.261  19.012  0.00  0.00    +0.000 N 
ATOM      2  C   UNL     1       2.504   4.259  19.214  0.00  0.00    +0.000 A 
ATOM      3  N   UNL     1       1.925   3.653  18.209  0.00  0.00    +0.000 NA
ATOM      4  C   UNL     1       1.041   2.705  18.701  0.00  0.00    +0.000 A 
ATOM      5  C   UNL     1       0.916   2.663  20.076  0.00  0.00    +0.000 A 
ATOM      6  S   UNL     1       1.958   3.822  20.781  0.00  0.00    +0.000 S 
ENDROOT
BRANCH   1   7
ATOM      7  S   UNL     1       5.063   4.567  19.071  0.00  0.00    +0.000 S 
ATOM      8  O   UNL     1       5.905   5.499  19.783  0.00  0.00    +0.000 OA
ATOM      9  O   UNL     1       4.930   3.213  19.593  0.00  0.00    +0.000 OA
BRANCH   7  10
ATOM     10  C   UNL     1       5.748   4.409  17.416  0.00  0.00    +0.000 A 
ATOM     11  C   UNL     1       4.900   4.165  16.331  0.00  0.00    +0.000 A 
ATOM     12  C   UNL     1       5.360   4.373  15.014  0.00  0.00    +0.000 A 
ATOM     13  C   UNL     1       6.630   4.898  14.764  0.00  0.00    +0.000 A 
ATOM     14  C   UNL     1       7.502   5.064  15.848  0.00  0.00    +0.000 A 
ATOM     15  C   UNL     1       7.058   4.848  17.166  0.00  0.00    +0.000 A 
BRANCH  13  16
ATOM     16  N   UNL     1       7.094   5.062  13.453  0.00  0.00    +0.000 N 
ATOM     17  H   UNL     1       6.448   4.743  12.740  0.00  0.00    +0.000 HD
ATOM     18  H   UNL     1       7.439   5.996  13.252  0.00  0.00    +0.000 HD
ENDBRANCH  13  16
ENDBRANCH   7  10
ENDBRANCH   1   7
BRANCH   1  19
ATOM     19  C   UNL     1       3.277   6.262  17.944  0.00  0.00    +0.000 C 
BRANCH  19  21
ATOM     20  N   UNL     1       1.858   7.501  19.560  0.00  0.00    +0.000 N 
ATOM     21  C   UNL     1       2.720   7.605  18.467  0.00  0.00    +0.000 C 
ATOM     22  O   UNL     1       3.106   8.658  17.963  0.00  0.00    +0.000 OA
ATOM     23  H   UNL     1       1.703   6.570  19.904  0.00  0.00    +0.000 HD
BRANCH  20  29
ATOM     24  C   UNL     1       0.510   9.588  19.701  0.00  0.00    +0.000 A 
ATOM     25  C   UNL     1      -0.118  10.590  20.467  0.00  0.00    +0.000 A 
ATOM     26  C   UNL     1      -0.016  10.597  21.857  0.00  0.00    +0.000 A 
ATOM     27  C   UNL     1       0.708   9.593  22.484  0.00  0.00    +0.000 A 
ATOM     28  C   UNL     1       1.336   8.592  21.723  0.00  0.00    +0.000 A 
ATOM     29  C   UNL     1       1.251   8.555  20.319  0.00  0.00    +0.000 A 
BRANCH  24  30
ATOM     30  O   UNL     1       0.185   9.673  18.364  0.00  0.00    +0.000 OA
BRANCH  30  32
ATOM     31  C   UNL     1      -1.911   9.881  17.213  0.00  0.00    +0.000 C 
ATOM     32  C   UNL     1      -0.834  10.600  18.005  0.00  0.00    +0.000 C 
ENDBRANCH  30  32
ENDBRANCH  24  30
ENDBRANCH  20  29
ENDBRANCH  19  21
ENDBRANCH   1  19
TORSDOF 8
ENDMDL
MODEL 2
REMARK VINA RESULT:      -7.8      1.087      1.535
REMARK  Name = 
REMARK  9 active torsions:
REMARK  status: ('A' for Active; 'I' for Inactive)
REMARK    1  A    between atoms: C_1  and  C_2
REMARK    2  A    between atoms: C_2  and  O_3
REMARK    3  A    between atoms: O_3  and  C_4
REMARK    4  A    between atoms: C_9  and  N_10
REMARK    5  A    between atoms: C_11  and  C_13
REMARK    6  A    between atoms: C_13  and  N_14
REMARK    7  A    between atoms: N_14  and  S_20
REMARK    8  A    between atoms: S_20  and  C_23
REMARK    9  A    between atoms: C_26  and  N_27
REMARK                            x       y       z     vdW  Elec       q    Type
REMARK                         _______ _______ _______ _____ _____    ______ ____
ROOT
ATOM      1  N   UNL     1       3.312   5.377  19.403  0.00  0.00    +0.000 N 
ATOM      2  C   UNL     1       2.398   4.285  19.411  0.00  0.00    +0.000 A 
ATOM      3  N   UNL     1       1.723   3.945  18.342  0.00  0.00    +0.000 NA
ATOM      4  C   UNL     1       0.950   2.831  18.630  0.00  0.00    +0.000 A 
ATOM      5  C   UNL     1       1.001   2.392  19.939  0.00  0.00    +0.000 A 
ATOM      6  S   UNL     1       2.073   3.381  20.832  0.00  0.00    +0.000 S 
ENDROOT
BRANCH   1   7
ATOM      7  S   UNL     1       4.902   4.818  19.088  0.00  0.00    +0.000 S 
ATOM      8  O   UNL     1       5.802   5.699  19.796  0.00  0.00    +0.000 OA
ATOM      9  O   UNL     1       4.942   3.394  19.394  0.00  0.00    +0.000 OA
BRANCH   7  10
ATOM     10  C   UNL     1       5.293   4.973  17.339  0.00  0.00    +0.000 A 
ATOM     11  C   UNL     1       6.413   5.707  16.937  0.00  0.00    +0.000 A 
ATOM     12  C   UNL     1       6.922   5.561  15.629  0.00  0.00    +0.000 A 
ATOM     13  C   UNL     1       6.376   4.632  14.739  0.00  0.00    +0.000 A 
ATOM     14  C   UNL     1       5.208   3.960  15.118  0.00  0.00    +0.000 A 
ATOM     15  C   UNL     1       4.684   4.107  16.416  0.00  0.00    +0.000 A 
BRANCH  13  16
ATOM     16  N   UNL     1       6.860   4.523  13.430  0.00  0.00    +0.000 N 
ATOM     17  H   UNL     1       6.164   4.233  12.752  0.00  0.00    +0.000 HD
ATOM     18  H   UNL     1       7.374   5.339  13.111  0.00  0.00    +0.000 HD
ENDBRANCH  13  16
ENDBRANCH   7  10
ENDBRANCH   1   7
BRANCH   1  19
ATOM     19  C   UNL     1       2.917   6.619  18.703  0.00  0.00    +0.000 C 
BRANCH  19  21
ATOM     20  N   UNL     1       1.638   8.733  18.932  0.00  0.00    +0.000 N 
ATOM     21  C   UNL     1       2.090   7.583  19.582  0.00  0.00    +0.000 C 
ATOM     22  O   UNL     1       1.819   7.267  20.739  0.00  0.00    +0.000 OA
ATOM     23  H   UNL     1       1.881   8.807  17.960  0.00  0.00    +0.000 HD
BRANCH  20  29
ATOM     24  C   UNL     1      -0.322  10.250  18.707  0.00  0.00    +0.000 A 
ATOM     25  C   UNL     1      -1.175  11.234  19.244  0.00  0.00    +0.000 A 
ATOM     26  C   UNL     1      -0.944  11.768  20.510  0.00  0.00    +0.000 A 
ATOM     27  C   UNL     1       0.138  11.310  21.247  0.00  0.00    +0.000 A 
ATOM     28  C   UNL     1       0.992  10.328  20.715  0.00  0.00    +0.000 A 
ATOM     29  C   UNL     1       0.785   9.767  19.442  0.00  0.00    +0.000 A 
BRANCH  24  30
ATOM     30  O   UNL     1      -0.787   9.752  17.509  0.00  0.00    +0.000 OA
BRANCH  30  32
ATOM     31  C   UNL     1      -2.472   9.981  15.815  0.00  0.00    +0.000 C 
ATOM     32  C   UNL     1      -2.194   9.795  17.296  0.00  0.00    +0.000 C 
ENDBRANCH  30  32
ENDBRANCH  24  30
ENDBRANCH  20  29
ENDBRANCH  19  21
ENDBRANCH   1  19
TORSDOF 8
ENDMDL
MODEL 3
REMARK VINA RESULT:      -7.8      0.702      1.123
REMARK  Name = 
REMARK  9 active torsions:
REMARK  status: ('A' for Active; 'I' for Inactive)
REMARK    1  A    between atoms: C_1  and  C_2
REMARK    2  A    between atoms: C_2  and  O_3
REMARK    3  A    between atoms: O_3  and  C_4
REMARK    4  A    between atoms: C_9  and  N_10
REMARK    5  A    between atoms: C_11  and  C_13
REMARK    6  A    between atoms: C_13  and  N_14
REMARK    7  A    between atoms: N_14  and  S_20
REMARK    8  A    between atoms: S_20  and  C_23
REMARK    9  A    between atoms: C_26  and  N_27
REMARK                            x       y       z     vdW  Elec       q    Type
REMARK                         _______ _______ _______ _____ _____    ______ ____
ROOT
ATOM      1  N   UNL     1       3.353   4.931  18.898  0.00  0.00    +0.000 N 
ATOM      2  C   UNL     1       2.408   4.144  19.614  0.00  0.00    +0.000 A 
ATOM      3  N   UNL     1       1.377   3.597  19.021  0.00  0.00    +0.000 NA
ATOM      4  C   UNL     1       0.659   2.860  19.950  0.00  0.00    +0.000 A 
ATOM      5  C   UNL     1       1.123   2.922  21.250  0.00  0.00    +0.000 A 
ATOM      6  S   UNL     1       2.520   3.907  21.310  0.00  0.00    +0.000 S 
ENDROOT
BRANCH   1   7
ATOM      7  S   UNL     1       4.680   3.964  18.404  0.00  0.00    +0.000 S 
ATOM      8  O   UNL     1       5.673   4.054  19.449  0.00  0.00    +0.000 OA
ATOM      9  O   UNL     1       4.164   2.648  18.049  0.00  0.00    +0.000 OA
BRANCH   7  10
ATOM     10  C   UNL     1       5.432   4.633  16.914  0.00  0.00    +0.000 A 
ATOM     11  C   UNL     1       6.482   5.551  17.014  0.00  0.00    +0.000 A 
ATOM     12  C   UNL     1       7.294   5.821  15.893  0.00  0.00    +0.000 A 
ATOM     13  C   UNL     1       7.124   5.130  14.691  0.00  0.00    +0.000 A 
ATOM     14  C   UNL     1       6.022   4.273  14.571  0.00  0.00    +0.000 A 
ATOM     15  C   UNL     1       5.197   4.005  15.680  0.00  0.00    +0.000 A 
BRANCH  13  16
ATOM     16  N   UNL     1       7.907   5.433  13.571  0.00  0.00    +0.000 N 
ATOM     17  H   UNL     1       8.666   4.781  13.404  0.00  0.00    +0.000 HD
ATOM     18  H   UNL     1       7.369   5.601  12.726  0.00  0.00    +0.000 HD
ENDBRANCH  13  16
ENDBRANCH   7  10
ENDBRANCH   1   7
BRANCH   1  19
ATOM     19  C   UNL     1       2.849   5.891  17.891  0.00  0.00    +0.000 C 
BRANCH  19  21
ATOM     20  N   UNL     1       1.619   7.329  19.497  0.00  0.00    +0.000 N 
ATOM     21  C   UNL     1       2.565   7.295  18.470  0.00  0.00    +0.000 C 
ATOM     22  O   UNL     1       3.212   8.260  18.066  0.00  0.00    +0.000 OA
ATOM     23  H   UNL     1       1.236   6.440  19.764  0.00  0.00    +0.000 HD
BRANCH  20  29
ATOM     24  C   UNL     1       0.629   9.603  19.705  0.00  0.00    +0.000 A 
ATOM     25  C   UNL     1       0.185  10.676  20.503  0.00  0.00    +0.000 A 
ATOM     26  C   UNL     1       0.311  10.636  21.890  0.00  0.00    +0.000 A 
ATOM     27  C   UNL     1       0.874   9.515  22.483  0.00  0.00    +0.000 A 
ATOM     28  C   UNL     1       1.319   8.443  21.690  0.00  0.00    +0.000 A 
ATOM     29  C   UNL     1       1.204   8.451  20.288  0.00  0.00    +0.000 A 
BRANCH  24  30
ATOM     30  O   UNL     1       0.300   9.768  18.377  0.00  0.00    +0.000 OA
BRANCH  30  32
ATOM     31  C   UNL     1      -1.886   9.935  17.399  0.00  0.00    +0.000 C 
ATOM     32  C   UNL     1      -0.753  10.680  18.082  0.00  0.00    +0.000 C 
ENDBRANCH  30  32
ENDBRANCH  24  30
ENDBRANCH  20  29
ENDBRANCH  19  21
ENDBRANCH   1  19
TORSDOF 8
ENDMDL
MODEL 4
REMARK VINA RESULT:      -7.8      1.405      2.442
REMARK  Name = 
REMARK  9 active torsions:
REMARK  status: ('A' for Active; 'I' for Inactive)
REMARK    1  A    between atoms: C_1  and  C_2
REMARK    2  A    between atoms: C_2  and  O_3
REMARK    3  A    between atoms: O_3  and  C_4
REMARK    4  A    between atoms: C_9  and  N_10
REMARK    5  A    between atoms: C_11  and  C_13
REMARK    6  A    between atoms: C_13  and  N_14
REMARK    7  A    between atoms: N_14  and  S_20
REMARK    8  A    between atoms: S_20  and  C_23
REMARK    9  A    between atoms: C_26  and  N_27
REMARK                            x       y       z     vdW  Elec       q    Type
REMARK                         _______ _______ _______ _____ _____    ______ ____
ROOT
ATOM      1  N   UNL     1       3.219   4.789  18.843  0.00  0.00    +0.000 N 
ATOM      2  C   UNL     1       2.348   4.047  19.690  0.00  0.00    +0.000 A 
ATOM      3  N   UNL     1       1.282   3.447  19.225  0.00  0.00    +0.000 NA
ATOM      4  C   UNL     1       0.654   2.773  20.262  0.00  0.00    +0.000 A 
ATOM      5  C   UNL     1       1.222   2.936  21.510  0.00  0.00    +0.000 A 
ATOM      6  S   UNL     1       2.603   3.938  21.384  0.00  0.00    +0.000 S 
ENDROOT
BRANCH   1   7
ATOM      7  S   UNL     1       4.517   3.802  18.313  0.00  0.00    +0.000 S 
ATOM      8  O   UNL     1       5.489   3.782  19.381  0.00  0.00    +0.000 OA
ATOM      9  O   UNL     1       3.957   2.536  17.860  0.00  0.00    +0.000 OA
BRANCH   7  10
ATOM     10  C   UNL     1       5.329   4.537  16.886  0.00  0.00    +0.000 A 
ATOM     11  C   UNL     1       6.396   5.422  17.069  0.00  0.00    +0.000 A 
ATOM     12  C   UNL     1       7.248   5.735  15.990  0.00  0.00    +0.000 A 
ATOM     13  C   UNL     1       7.099   5.117  14.746  0.00  0.00    +0.000 A 
ATOM     14  C   UNL     1       5.983   4.295  14.545  0.00  0.00    +0.000 A 
ATOM     15  C   UNL     1       5.119   3.985  15.612  0.00  0.00    +0.000 A 
BRANCH  13  16
ATOM     16  N   UNL     1       7.923   5.465  13.668  0.00  0.00    +0.000 N 
ATOM     17  H   UNL     1       7.482   5.368  12.760  0.00  0.00    +0.000 HD
ATOM     18  H   UNL     1       8.373   6.369  13.769  0.00  0.00    +0.000 HD
ENDBRANCH  13  16
ENDBRANCH   7  10
ENDBRANCH   1   7
BRANCH   1  19
ATOM     19  C   UNL     1       2.618   5.667  17.814  0.00  0.00    +0.000 C 
BRANCH  19  21
ATOM     20  N   UNL     1       1.678   7.900  18.349  0.00  0.00    +0.000 N 
ATOM     21  C   UNL     1       2.839   7.172  18.085  0.00  0.00    +0.000 C 
ATOM     22  O   UNL     1       3.984   7.618  18.127  0.00  0.00    +0.000 OA
ATOM     23  H   UNL     1       0.824   7.371  18.352  0.00  0.00    +0.000 HD
BRANCH  20  29
ATOM     24  C   UNL     1       0.981   9.676  19.947  0.00  0.00    +0.000 A 
ATOM     25  C   UNL     1       0.913  11.035  20.313  0.00  0.00    +0.000 A 
ATOM     26  C   UNL     1       1.401  12.029  19.467  0.00  0.00    +0.000 A 
ATOM     27  C   UNL     1       1.968  11.663  18.255  0.00  0.00    +0.000 A 
ATOM     28  C   UNL     1       2.038  10.308  17.887  0.00  0.00    +0.000 A 
ATOM     29  C   UNL     1       1.557   9.281  18.718  0.00  0.00    +0.000 A 
BRANCH  24  30
ATOM     30  O   UNL     1       0.572   8.840  20.964  0.00  0.00    +0.000 OA
BRANCH  30  32
ATOM     31  C   UNL     1      -0.073   9.431  23.199  0.00  0.00    +0.000 C 
ATOM     32  C   UNL     1       1.080   9.112  22.266  0.00  0.00    +0.000 C 
ENDBRANCH  30  32
ENDBRANCH  24  30
ENDBRANCH  20  29
ENDBRANCH  19  21
ENDBRANCH   1  19
TORSDOF 8
ENDMDL
MODEL 5
REMARK VINA RESULT:      -7.7      1.090      1.267
REMARK  Name = 
REMARK  9 active torsions:
REMARK  status: ('A' for Active; 'I' for Inactive)
REMARK    1  A    between atoms: C_1  and  C_2
REMARK    2  A    between atoms: C_2  and  O_3
REMARK    3  A    between atoms: O_3  and  C_4
REMARK    4  A    between atoms: C_9  and  N_10
REMARK    5  A    between atoms: C_11  and  C_13
REMARK    6  A    between atoms: C_13  and  N_14
REMARK    7  A    between atoms: N_14  and  S_20
REMARK    8  A    between atoms: S_20  and  C_23
REMARK    9  A    between atoms: C_26  and  N_27
REMARK                            x       y       z     vdW  Elec       q    Type
REMARK                         _______ _______ _______ _____ _____    ______ ____
ROOT
ATOM      1  N   UNL     1       3.710   5.342  19.177  0.00  0.00    +0.000 N 
ATOM      2  C   UNL     1       2.670   4.375  19.278  0.00  0.00    +0.000 A 
ATOM      3  N   UNL     1       2.064   3.902  18.219  0.00  0.00    +0.000 NA
ATOM      4  C   UNL     1       1.134   2.954  18.615  0.00  0.00    +0.000 A 
ATOM      5  C   UNL     1       1.003   2.779  19.979  0.00  0.00    +0.000 A 
ATOM      6  S   UNL     1       2.100   3.808  20.794  0.00  0.00    +0.000 S 
ENDROOT
BRANCH   1   7
ATOM      7  S   UNL     1       5.241   4.569  19.161  0.00  0.00    +0.000 S 
ATOM      8  O   UNL     1       6.156   5.443  19.858  0.00  0.00    +0.000 OA
ATOM      9  O   UNL     1       5.060   3.213  19.661  0.00  0.00    +0.000 OA
BRANCH   7  10
ATOM     10  C   UNL     1       5.853   4.412  17.477  0.00  0.00    +0.000 A 
ATOM     11  C   UNL     1       4.964   4.136  16.435  0.00  0.00    +0.000 A 
ATOM     12  C   UNL     1       5.357   4.343  15.096  0.00  0.00    +0.000 A 
ATOM     13  C   UNL     1       6.600   4.898  14.783  0.00  0.00    +0.000 A 
ATOM     14  C   UNL     1       7.516   5.098  15.824  0.00  0.00    +0.000 A 
ATOM     15  C   UNL     1       7.139   4.883  17.163  0.00  0.00    +0.000 A 
BRANCH  13  16
ATOM     16  N   UNL     1       6.999   5.062  13.451  0.00  0.00    +0.000 N 
ATOM     17  H   UNL     1       6.281   4.837  12.771  0.00  0.00    +0.000 HD
ATOM     18  H   UNL     1       7.427   5.962  13.257  0.00  0.00    +0.000 HD
ENDBRANCH  13  16
ENDBRANCH   7  10
ENDBRANCH   1   7
BRANCH   1  19
ATOM     19  C   UNL     1       3.543   6.456  18.217  0.00  0.00    +0.000 C 
BRANCH  19  21
ATOM     20  N   UNL     1       2.247   7.710  19.921  0.00  0.00    +0.000 N 
ATOM     21  C   UNL     1       2.368   7.395  18.566  0.00  0.00    +0.000 C 
ATOM     22  O   UNL     1       1.672   7.858  17.663  0.00  0.00    +0.000 OA
ATOM     23  H   UNL     1       2.944   7.310  20.524  0.00  0.00    +0.000 HD
BRANCH  20  29
ATOM     24  C   UNL     1       1.168   9.946  20.103  0.00  0.00    +0.000 A 
ATOM     25  C   UNL     1       0.224  10.804  20.700  0.00  0.00    +0.000 A 
ATOM     26  C   UNL     1      -0.574  10.365  21.755  0.00  0.00    +0.000 A 
ATOM     27  C   UNL     1      -0.436   9.061  22.208  0.00  0.00    +0.000 A 
ATOM     28  C   UNL     1       0.505   8.202  21.614  0.00  0.00    +0.000 A 
ATOM     29  C   UNL     1       1.325   8.613  20.547  0.00  0.00    +0.000 A 
BRANCH  24  30
ATOM     30  O   UNL     1       1.763  10.513  18.997  0.00  0.00    +0.000 OA
BRANCH  30  32
ATOM     31  C   UNL     1       2.542  12.639  18.200  0.00  0.00    +0.000 C 
ATOM     32  C   UNL     1       1.339  11.824  18.637  0.00  0.00    +0.000 C 
ENDBRANCH  30  32
ENDBRANCH  24  30
ENDBRANCH  20  29
ENDBRANCH  19  21
ENDBRANCH   1  19
TORSDOF 8
ENDMDL
MODEL 6
REMARK VINA RESULT:      -7.7      1.639      2.516
REMARK  Name = 
REMARK  9 active torsions:
REMARK  status: ('A' for Active; 'I' for Inactive)
REMARK    1  A    between atoms: C_1  and  C_2
REMARK    2  A    between atoms: C_2  and  O_3
REMARK    3  A    between atoms: O_3  and  C_4
REMARK    4  A    between atoms: C_9  and  N_10
REMARK    5  A    between atoms: C_11  and  C_13
REMARK    6  A    between atoms: C_13  and  N_14
REMARK    7  A    between atoms: N_14  and  S_20
REMARK    8  A    between atoms: S_20  and  C_23
REMARK    9  A    between atoms: C_26  and  N_27
REMARK                            x       y       z     vdW  Elec       q    Type
REMARK                         _______ _______ _______ _____ _____    ______ ____
ROOT
ATOM      1  N   UNL     1       3.602   5.756  19.167  0.00  0.00    +0.000 N 
ATOM      2  C   UNL     1       2.584   4.793  19.417  0.00  0.00    +0.000 A 
ATOM      3  N   UNL     1       1.820   4.335  18.459  0.00  0.00    +0.000 NA
ATOM      4  C   UNL     1       0.955   3.386  18.984  0.00  0.00    +0.000 A 
ATOM      5  C   UNL     1       1.035   3.197  20.350  0.00  0.00    +0.000 A 
ATOM      6  S   UNL     1       2.250   4.213  20.997  0.00  0.00    +0.000 S 
ENDROOT
BRANCH   1   7
ATOM      7  S   UNL     1       5.108   4.977  18.909  0.00  0.00    +0.000 S 
ATOM      8  O   UNL     1       6.104   5.751  19.612  0.00  0.00    +0.000 OA
ATOM      9  O   UNL     1       4.947   3.572  19.258  0.00  0.00    +0.000 OA
BRANCH   7  10
ATOM     10  C   UNL     1       5.552   5.020  17.166  0.00  0.00    +0.000 A 
ATOM     11  C   UNL     1       6.845   5.390  16.785  0.00  0.00    +0.000 A 
ATOM     12  C   UNL     1       7.307   5.107  15.482  0.00  0.00    +0.000 A 
ATOM     13  C   UNL     1       6.523   4.388  14.576  0.00  0.00    +0.000 A 
ATOM     14  C   UNL     1       5.202   4.092  14.935  0.00  0.00    +0.000 A 
ATOM     15  C   UNL     1       4.726   4.380  16.228  0.00  0.00    +0.000 A 
BRANCH  13  16
ATOM     16  N   UNL     1       6.972   4.148  13.272  0.00  0.00    +0.000 N 
ATOM     17  H   UNL     1       6.930   4.957  12.662  0.00  0.00    +0.000 HD
ATOM     18  H   UNL     1       7.879   3.694  13.225  0.00  0.00    +0.000 HD
ENDBRANCH  13  16
ENDBRANCH   7  10
ENDBRANCH   1   7
BRANCH   1  19
ATOM     19  C   UNL     1       3.296   6.881  18.255  0.00  0.00    +0.000 C 
BRANCH  19  21
ATOM     20  N   UNL     1       1.728   8.772  17.909  0.00  0.00    +0.000 N 
ATOM     21  C   UNL     1       2.272   7.881  18.835  0.00  0.00    +0.000 C 
ATOM     22  O   UNL     1       1.946   7.797  20.018  0.00  0.00    +0.000 OA
ATOM     23  H   UNL     1       2.044   8.661  16.961  0.00  0.00    +0.000 HD
BRANCH  20  29
ATOM     24  C   UNL     1       1.000  11.066  18.544  0.00  0.00    +0.000 A 
ATOM     25  C   UNL     1      -0.017  12.029  18.694  0.00  0.00    +0.000 A 
ATOM     26  C   UNL     1      -1.348  11.711  18.433  0.00  0.00    +0.000 A 
ATOM     27  C   UNL     1      -1.664  10.427  18.011  0.00  0.00    +0.000 A 
ATOM     28  C   UNL     1      -0.651   9.463  17.860  0.00  0.00    +0.000 A 
ATOM     29  C   UNL     1       0.702   9.753  18.113  0.00  0.00    +0.000 A 
BRANCH  24  30
ATOM     30  O   UNL     1       2.258  11.603  18.717  0.00  0.00    +0.000 OA
BRANCH  30  32
ATOM     31  C   UNL     1       3.199  13.772  18.307  0.00  0.00    +0.000 C 
ATOM     32  C   UNL     1       2.328  12.931  19.223  0.00  0.00    +0.000 C 
ENDBRANCH  30  32
ENDBRANCH  24  30
ENDBRANCH  20  29
ENDBRANCH  19  21
ENDBRANCH   1  19
TORSDOF 8
ENDMDL
MODEL 7
REMARK VINA RESULT:      -7.7      1.303      2.095
REMARK  Name = 
REMARK  9 active torsions:
REMARK  status: ('A' for Active; 'I' for Inactive)
REMARK    1  A    between atoms: C_1  and  C_2
REMARK    2  A    between atoms: C_2  and  O_3
REMARK    3  A    between atoms: O_3  and  C_4
REMARK    4  A    between atoms: C_9  and  N_10
REMARK    5  A    between atoms: C_11  and  C_13
REMARK    6  A    between atoms: C_13  and  N_14
REMARK    7  A    between atoms: N_14  and  S_20
REMARK    8  A    between atoms: S_20  and  C_23
REMARK    9  A    between atoms: C_26  and  N_27
REMARK                            x       y       z     vdW  Elec       q    Type
REMARK                         _______ _______ _______ _____ _____    ______ ____
ROOT
ATOM      1  N   UNL     1       3.531   5.034  19.077  0.00  0.00    +0.000 N 
ATOM      2  C   UNL     1       2.634   4.080  19.637  0.00  0.00    +0.000 A 
ATOM      3  N   UNL     1       1.984   3.224  18.889  0.00  0.00    +0.000 NA
ATOM      4  C   UNL     1       1.224   2.398  19.702  0.00  0.00    +0.000 A 
ATOM      5  C   UNL     1       1.258   2.693  21.051  0.00  0.00    +0.000 A 
ATOM      6  S   UNL     1       2.298   4.025  21.319  0.00  0.00    +0.000 S 
ENDROOT
BRANCH   1   7
ATOM      7  S   UNL     1       5.135   4.429  19.104  0.00  0.00    +0.000 S 
ATOM      8  O   UNL     1       5.937   5.405  19.806  0.00  0.00    +0.000 OA
ATOM      9  O   UNL     1       5.089   3.068  19.622  0.00  0.00    +0.000 OA
BRANCH   7  10
ATOM     10  C   UNL     1       5.797   4.316  17.436  0.00  0.00    +0.000 A 
ATOM     11  C   UNL     1       4.935   4.101  16.357  0.00  0.00    +0.000 A 
ATOM     12  C   UNL     1       5.377   4.345  15.039  0.00  0.00    +0.000 A 
ATOM     13  C   UNL     1       6.644   4.877  14.786  0.00  0.00    +0.000 A 
ATOM     14  C   UNL     1       7.530   5.014  15.863  0.00  0.00    +0.000 A 
ATOM     15  C   UNL     1       7.105   4.761  17.180  0.00  0.00    +0.000 A 
BRANCH  13  16
ATOM     16  N   UNL     1       7.090   5.077  13.475  0.00  0.00    +0.000 N 
ATOM     17  H   UNL     1       8.012   5.495  13.408  0.00  0.00    +0.000 HD
ATOM     18  H   UNL     1       7.010   4.256  12.882  0.00  0.00    +0.000 HD
ENDBRANCH  13  16
ENDBRANCH   7  10
ENDBRANCH   1   7
BRANCH   1  19
ATOM     19  C   UNL     1       3.129   5.732  17.836  0.00  0.00    +0.000 C 
BRANCH  19  21
ATOM     20  N   UNL     1       1.955   7.815  18.499  0.00  0.00    +0.000 N 
ATOM     21  C   UNL     1       3.127   7.271  17.970  0.00  0.00    +0.000 C 
ATOM     22  O   UNL     1       4.141   7.906  17.686  0.00  0.00    +0.000 OA
ATOM     23  H   UNL     1       1.244   7.152  18.754  0.00  0.00    +0.000 HD
BRANCH  20  29
ATOM     24  C   UNL     1       1.123   9.556  20.072  0.00  0.00    +0.000 A 
ATOM     25  C   UNL     1       0.900  10.910  20.391  0.00  0.00    +0.000 A 
ATOM     26  C   UNL     1       1.206  11.919  19.481  0.00  0.00    +0.000 A 
ATOM     27  C   UNL     1       1.748  11.576  18.251  0.00  0.00    +0.000 A 
ATOM     28  C   UNL     1       1.972  10.226  17.928  0.00  0.00    +0.000 A 
ATOM     29  C   UNL     1       1.676   9.183  18.825  0.00  0.00    +0.000 A 
BRANCH  24  30
ATOM     30  O   UNL     1       0.885   8.720  21.141  0.00  0.00    +0.000 OA
BRANCH  30  32
ATOM     31  C   UNL     1      -0.130   9.414  23.203  0.00  0.00    +0.000 C 
ATOM     32  C   UNL     1      -0.365   8.866  21.807  0.00  0.00    +0.000 C 
ENDBRANCH  30  32
ENDBRANCH  24  30
ENDBRANCH  20  29
ENDBRANCH  19  21
ENDBRANCH   1  19
TORSDOF 8
ENDMDL
MODEL 8
REMARK VINA RESULT:      -7.6      1.190      1.635
REMARK  Name = 
REMARK  9 active torsions:
REMARK  status: ('A' for Active; 'I' for Inactive)
REMARK    1  A    between atoms: C_1  and  C_2
REMARK    2  A    between atoms: C_2  and  O_3
REMARK    3  A    between atoms: O_3  and  C_4
REMARK    4  A    between atoms: C_9  and  N_10
REMARK    5  A    between atoms: C_11  and  C_13
REMARK    6  A    between atoms: C_13  and  N_14
REMARK    7  A    between atoms: N_14  and  S_20
REMARK    8  A    between atoms: S_20  and  C_23
REMARK    9  A    between atoms: C_26  and  N_27
REMARK                            x       y       z     vdW  Elec       q    Type
REMARK                         _______ _______ _______ _____ _____    ______ ____
ROOT
ATOM      1  N   UNL     1       3.726   5.648  19.302  0.00  0.00    +0.000 N 
ATOM      2  C   UNL     1       2.682   4.719  19.577  0.00  0.00    +0.000 A 
ATOM      3  N   UNL     1       1.878   4.290  18.637  0.00  0.00    +0.000 NA
ATOM      4  C   UNL     1       0.995   3.370  19.182  0.00  0.00    +0.000 A 
ATOM      5  C   UNL     1       1.103   3.174  20.546  0.00  0.00    +0.000 A 
ATOM      6  S   UNL     1       2.369   4.145  21.164  0.00  0.00    +0.000 S 
ENDROOT
BRANCH   1   7
ATOM      7  S   UNL     1       5.196   4.818  19.003  0.00  0.00    +0.000 S 
ATOM      8  O   UNL     1       6.234   5.546  19.695  0.00  0.00    +0.000 OA
ATOM      9  O   UNL     1       4.992   3.415  19.338  0.00  0.00    +0.000 OA
BRANCH   7  10
ATOM     10  C   UNL     1       5.606   4.868  17.253  0.00  0.00    +0.000 A 
ATOM     11  C   UNL     1       6.911   5.170  16.851  0.00  0.00    +0.000 A 
ATOM     12  C   UNL     1       7.328   4.886  15.533  0.00  0.00    +0.000 A 
ATOM     13  C   UNL     1       6.487   4.229  14.632  0.00  0.00    +0.000 A 
ATOM     14  C   UNL     1       5.158   4.002  15.013  0.00  0.00    +0.000 A 
ATOM     15  C   UNL     1       4.726   4.293  16.321  0.00  0.00    +0.000 A 
BRANCH  13  16
ATOM     16  N   UNL     1       6.894   3.988  13.315  0.00  0.00    +0.000 N 
ATOM     17  H   UNL     1       7.854   3.671  13.227  0.00  0.00    +0.000 HD
ATOM     18  H   UNL     1       6.258   3.397  12.788  0.00  0.00    +0.000 HD
ENDBRANCH  13  16
ENDBRANCH   7  10
ENDBRANCH   1   7
BRANCH   1  19
ATOM     19  C   UNL     1       3.435   6.785  18.401  0.00  0.00    +0.000 C 
BRANCH  19  21
ATOM     20  N   UNL     1       2.207   8.071  20.131  0.00  0.00    +0.000 N 
ATOM     21  C   UNL     1       2.189   7.596  18.818  0.00  0.00    +0.000 C 
ATOM     22  O   UNL     1       1.314   7.835  17.987  0.00  0.00    +0.000 OA
ATOM     23  H   UNL     1       3.032   7.853  20.661  0.00  0.00    +0.000 HD
BRANCH  20  29
ATOM     24  C   UNL     1       0.916  10.194  20.279  0.00  0.00    +0.000 A 
ATOM     25  C   UNL     1      -0.059  10.991  20.911  0.00  0.00    +0.000 A 
ATOM     26  C   UNL     1      -0.712  10.549  22.059  0.00  0.00    +0.000 A 
ATOM     27  C   UNL     1      -0.397   9.299  22.574  0.00  0.00    +0.000 A 
ATOM     28  C   UNL     1       0.576   8.501  21.947  0.00  0.00    +0.000 A 
ATOM     29  C   UNL     1       1.251   8.917  20.785  0.00  0.00    +0.000 A 
BRANCH  24  30
ATOM     30  O   UNL     1       1.349  10.741  19.091  0.00  0.00    +0.000 OA
BRANCH  30  32
ATOM     31  C   UNL     1       2.296  12.935  18.863  0.00  0.00    +0.000 C 
ATOM     32  C   UNL     1       1.025  12.106  18.853  0.00  0.00    +0.000 C 
ENDBRANCH  30  32
ENDBRANCH  24  30
ENDBRANCH  20  29
ENDBRANCH  19  21
ENDBRANCH   1  19
TORSDOF 8
ENDMDL
MODEL 9
REMARK VINA RESULT:      -7.5      1.143      2.432
REMARK  Name = 
REMARK  9 active torsions:
REMARK  status: ('A' for Active; 'I' for Inactive)
REMARK    1  A    between atoms: C_1  and  C_2
REMARK    2  A    between atoms: C_2  and  O_3
REMARK    3  A    between atoms: O_3  and  C_4
REMARK    4  A    between atoms: C_9  and  N_10
REMARK    5  A    between atoms: C_11  and  C_13
REMARK    6  A    between atoms: C_13  and  N_14
REMARK    7  A    between atoms: N_14  and  S_20
REMARK    8  A    between atoms: S_20  and  C_23
REMARK    9  A    between atoms: C_26  and  N_27
REMARK                            x       y       z     vdW  Elec       q    Type
REMARK                         _______ _______ _______ _____ _____    ______ ____
ROOT
ATOM      1  N   UNL     1       3.776   5.411  19.440  0.00  0.00    +0.000 N 
ATOM      2  C   UNL     1       2.767   4.406  19.461  0.00  0.00    +0.000 A 
ATOM      3  N   UNL     1       2.034   4.143  18.408  0.00  0.00    +0.000 NA
ATOM      4  C   UNL     1       1.172   3.099  18.706  0.00  0.00    +0.000 A 
ATOM      5  C   UNL     1       1.220   2.638  20.007  0.00  0.00    +0.000 A 
ATOM      6  S   UNL     1       2.402   3.513  20.881  0.00  0.00    +0.000 S 
ENDROOT
BRANCH   1   7
ATOM      7  S   UNL     1       5.299   4.716  19.072  0.00  0.00    +0.000 S 
ATOM      8  O   UNL     1       6.296   5.515  19.745  0.00  0.00    +0.000 OA
ATOM      9  O   UNL     1       5.226   3.294  19.380  0.00  0.00    +0.000 OA
BRANCH   7  10
ATOM     10  C   UNL     1       5.641   4.836  17.310  0.00  0.00    +0.000 A 
ATOM     11  C   UNL     1       6.902   5.249  16.871  0.00  0.00    +0.000 A 
ATOM     12  C   UNL     1       7.292   5.027  15.533  0.00  0.00    +0.000 A 
ATOM     13  C   UNL     1       6.471   4.327  14.645  0.00  0.00    +0.000 A 
ATOM     14  C   UNL     1       5.179   3.988  15.066  0.00  0.00    +0.000 A 
ATOM     15  C   UNL     1       4.774   4.215  16.395  0.00  0.00    +0.000 A 
BRANCH  13  16
ATOM     16  N   UNL     1       6.848   4.148  13.309  0.00  0.00    +0.000 N 
ATOM     17  H   UNL     1       7.835   4.301  13.130  0.00  0.00    +0.000 HD
ATOM     18  H   UNL     1       6.529   3.272  12.905  0.00  0.00    +0.000 HD
ENDBRANCH  13  16
ENDBRANCH   7  10
ENDBRANCH   1   7
BRANCH   1  19
ATOM     19  C   UNL     1       3.475   6.693  18.767  0.00  0.00    +0.000 C 
BRANCH  19  21
ATOM     20  N   UNL     1       1.916   8.623  18.723  0.00  0.00    +0.000 N 
ATOM     21  C   UNL     1       2.230   7.409  19.336  0.00  0.00    +0.000 C 
ATOM     22  O   UNL     1       1.564   6.861  20.213  0.00  0.00    +0.000 OA
ATOM     23  H   UNL     1       2.518   8.897  17.967  0.00  0.00    +0.000 HD
BRANCH  20  29
ATOM     24  C   UNL     1       0.533  10.038  20.234  0.00  0.00    +0.000 A 
ATOM     25  C   UNL     1      -0.555  10.910  20.438  0.00  0.00    +0.000 A 
ATOM     26  C   UNL     1      -1.418  11.233  19.393  0.00  0.00    +0.000 A 
ATOM     27  C   UNL     1      -1.187  10.692  18.136  0.00  0.00    +0.000 A 
ATOM     28  C   UNL     1      -0.103   9.821  17.929  0.00  0.00    +0.000 A 
ATOM     29  C   UNL     1       0.787   9.476  18.962  0.00  0.00    +0.000 A 
BRANCH  24  30
ATOM     30  O   UNL     1       1.344   9.945  21.345  0.00  0.00    +0.000 OA
BRANCH  30  32
ATOM     31  C   UNL     1       0.080   9.581  23.352  0.00  0.00    +0.000 C 
ATOM     32  C   UNL     1       0.999   8.962  22.315  0.00  0.00    +0.000 C 
ENDBRANCH  30  32
ENDBRANCH  24  30
ENDBRANCH  20  29
ENDBRANCH  19  21
ENDBRANCH   1  19
TORSDOF 8
ENDMDL
