MODEL 1
REMARK VINA RESULT:      -6.8      0.000      0.000
REMARK  Name = 
REMARK  8 active torsions:
REMARK  status: ('A' for Active; 'I' for Inactive)
REMARK    1  A    between atoms: C_1  and  O_2
REMARK    2  A    between atoms: O_2  and  C_3
REMARK    3  A    between atoms: C_8  and  C_9
REMARK    4  A    between atoms: C_9  and  C_10
REMARK    5  A    between atoms: C_12  and  C_13
REMARK    6  A    between atoms: C_12  and  C_14
REMARK    7  A    between atoms: C_18  and  C_19
REMARK    8  A    between atoms: C_22  and  O_23
REMARK                            x       y       z     vdW  Elec       q    Type
REMARK                         _______ _______ _______ _____ _____    ______ ____
ROOT
ATOM      1  C   UNL     1      -3.249  11.223  17.030  0.00  0.00    +0.000 A 
ATOM      2  C   UNL     1      -4.648  11.165  16.901  0.00  0.00    +0.000 A 
ATOM      3  C   UNL     1      -5.465  11.571  17.951  0.00  0.00    +0.000 A 
ATOM      4  C   UNL     1      -4.891  11.928  19.162  0.00  0.00    +0.000 A 
ATOM      5  C   UNL     1      -3.508  12.002  19.305  0.00  0.00    +0.000 A 
ATOM      6  C   UNL     1      -2.665  11.621  18.247  0.00  0.00    +0.000 A 
ATOM      7  C   UNL     1      -5.776  12.160  20.321  0.00  0.00    +0.000 C 
ATOM      8  O   UNL     1      -5.316  12.351  21.440  0.00  0.00    +0.000 OA
ATOM      9  C   UNL     1      -7.255  12.089  20.056  0.00  0.00    +0.000 C 
ATOM     10  C   UNL     1      -7.518  12.507  18.611  0.00  0.00    +0.000 C 
ATOM     11  O   UNL     1      -6.813  11.617  17.717  0.00  0.00    +0.000 OA
ENDROOT
BRANCH  10  12
ATOM     12  C   UNL     1      -7.274  13.981  18.264  0.00  0.00    +0.000 A 
ATOM     13  C   UNL     1      -7.132  14.978  19.247  0.00  0.00    +0.000 A 
ATOM     14  C   UNL     1      -6.906  16.312  18.900  0.00  0.00    +0.000 A 
ATOM     15  C   UNL     1      -6.834  16.669  17.562  0.00  0.00    +0.000 A 
ATOM     16  C   UNL     1      -6.988  15.712  16.568  0.00  0.00    +0.000 A 
ATOM     17  C   UNL     1      -7.201  14.372  16.915  0.00  0.00    +0.000 A 
BRANCH  15  18
ATOM     18  O   UNL     1      -6.613  17.966  17.200  0.00  0.00    +0.000 OA
ATOM     19  H   UNL     1      -5.661  18.101  17.078  0.00  0.00    +0.000 HD
ENDBRANCH  15  18
ENDBRANCH  10  12
BRANCH   1  21
ATOM     20  C   UNL     1      -3.067  10.319  14.864  0.00  0.00    +0.000 C 
ATOM     21  O   UNL     1      -2.407  10.884  16.000  0.00  0.00    +0.000 OA
ENDBRANCH   1  21
BRANCH   6  22
ATOM     22  C   UNL     1      -1.182  11.550  18.533  0.00  0.00    +0.000 C 
BRANCH  22  23
ATOM     23  C   UNL     1      -0.725  10.302  19.231  0.00  0.00    +0.000 C 
ATOM     24  O   UNL     1       0.645  10.461  19.659  0.00  0.00    +0.000 OA
ATOM     25  C   UNL     1      -0.296  10.202  20.703  0.00  0.00    +0.000 C 
ATOM     26  C   UNL     1      -0.505  11.347  21.645  0.00  0.00    +0.000 C 
ATOM     27  C   UNL     1      -0.017   8.880  21.357  0.00  0.00    +0.000 C 
ENDBRANCH  22  23
ENDBRANCH   6  22
TORSDOF 5
ENDMDL
MODEL 2
REMARK VINA RESULT:      -6.6      8.187     13.023
REMARK  Name = 
REMARK  8 active torsions:
REMARK  status: ('A' for Active; 'I' for Inactive)
REMARK    1  A    between atoms: C_1  and  O_2
REMARK    2  A    between atoms: O_2  and  C_3
REMARK    3  A    between atoms: C_8  and  C_9
REMARK    4  A    between atoms: C_9  and  C_10
REMARK    5  A    between atoms: C_12  and  C_13
REMARK    6  A    between atoms: C_12  and  C_14
REMARK    7  A    between atoms: C_18  and  C_19
REMARK    8  A    between atoms: C_22  and  O_23
REMARK                            x       y       z     vdW  Elec       q    Type
REMARK                         _______ _______ _______ _____ _____    ______ ____
ROOT
ATOM      1  C   UNL     1       2.901   7.256  17.706  0.00  0.00    +0.000 A 
ATOM      2  C   UNL     1       4.170   7.637  17.234  0.00  0.00    +0.000 A 
ATOM      3  C   UNL     1       5.252   6.773  17.359  0.00  0.00    +0.000 A 
ATOM      4  C   UNL     1       5.095   5.580  18.050  0.00  0.00    +0.000 A 
ATOM      5  C   UNL     1       3.845   5.181  18.515  0.00  0.00    +0.000 A 
ATOM      6  C   UNL     1       2.733   6.029  18.375  0.00  0.00    +0.000 A 
ATOM      7  C   UNL     1       6.295   4.773  18.346  0.00  0.00    +0.000 C 
ATOM      8  O   UNL     1       6.230   3.781  19.061  0.00  0.00    +0.000 OA
ATOM      9  C   UNL     1       7.593   5.272  17.772  0.00  0.00    +0.000 C 
ATOM     10  C   UNL     1       7.302   6.030  16.479  0.00  0.00    +0.000 C 
ATOM     11  O   UNL     1       6.426   7.145  16.762  0.00  0.00    +0.000 OA
ENDROOT
BRANCH  10  12
ATOM     12  C   UNL     1       6.807   5.200  15.289  0.00  0.00    +0.000 A 
ATOM     13  C   UNL     1       5.680   4.360  15.366  0.00  0.00    +0.000 A 
ATOM     14  C   UNL     1       5.250   3.618  14.264  0.00  0.00    +0.000 A 
ATOM     15  C   UNL     1       5.953   3.696  13.071  0.00  0.00    +0.000 A 
ATOM     16  C   UNL     1       7.080   4.500  12.966  0.00  0.00    +0.000 A 
ATOM     17  C   UNL     1       7.504   5.255  14.068  0.00  0.00    +0.000 A 
BRANCH  15  18
ATOM     18  O   UNL     1       5.550   2.981  11.980  0.00  0.00    +0.000 OA
ATOM     19  H   UNL     1       6.089   2.178  11.913  0.00  0.00    +0.000 HD
ENDBRANCH  15  18
ENDBRANCH  10  12
BRANCH   1  21
ATOM     20  C   UNL     1       2.009   9.425  17.909  0.00  0.00    +0.000 C 
ATOM     21  O   UNL     1       1.796   8.056  17.555  0.00  0.00    +0.000 OA
ENDBRANCH   1  21
BRANCH   6  22
ATOM     22  C   UNL     1       1.452   5.614  19.064  0.00  0.00    +0.000 C 
BRANCH  22  23
ATOM     23  C   UNL     1       1.634   4.772  20.293  0.00  0.00    +0.000 C 
ATOM     24  O   UNL     1       0.389   4.115  20.618  0.00  0.00    +0.000 OA
ATOM     25  C   UNL     1       1.493   3.244  20.365  0.00  0.00    +0.000 C 
ATOM     26  C   UNL     1       1.361   2.424  19.119  0.00  0.00    +0.000 C 
ATOM     27  C   UNL     1       1.858   2.473  21.600  0.00  0.00    +0.000 C 
ENDBRANCH  22  23
ENDBRANCH   6  22
TORSDOF 5
ENDMDL
MODEL 3
REMARK VINA RESULT:      -6.6      2.287      4.814
REMARK  Name = 
REMARK  8 active torsions:
REMARK  status: ('A' for Active; 'I' for Inactive)
REMARK    1  A    between atoms: C_1  and  O_2
REMARK    2  A    between atoms: O_2  and  C_3
REMARK    3  A    between atoms: C_8  and  C_9
REMARK    4  A    between atoms: C_9  and  C_10
REMARK    5  A    between atoms: C_12  and  C_13
REMARK    6  A    between atoms: C_12  and  C_14
REMARK    7  A    between atoms: C_18  and  C_19
REMARK    8  A    between atoms: C_22  and  O_23
REMARK                            x       y       z     vdW  Elec       q    Type
REMARK                         _______ _______ _______ _____ _____    ______ ____
ROOT
ATOM      1  C   UNL     1      -2.617  12.995  20.751  0.00  0.00    +0.000 A 
ATOM      2  C   UNL     1      -3.933  13.457  20.573  0.00  0.00    +0.000 A 
ATOM      3  C   UNL     1      -4.716  12.959  19.536  0.00  0.00    +0.000 A 
ATOM      4  C   UNL     1      -4.153  12.085  18.617  0.00  0.00    +0.000 A 
ATOM      5  C   UNL     1      -2.856  11.608  18.784  0.00  0.00    +0.000 A 
ATOM      6  C   UNL     1      -2.058  12.080  19.840  0.00  0.00    +0.000 A 
ATOM      7  C   UNL     1      -4.933  11.727  17.417  0.00  0.00    +0.000 C 
ATOM      8  O   UNL     1      -4.437  11.065  16.514  0.00  0.00    +0.000 OA
ATOM      9  C   UNL     1      -6.335  12.268  17.345  0.00  0.00    +0.000 C 
ATOM     10  C   UNL     1      -6.874  12.433  18.765  0.00  0.00    +0.000 C 
ATOM     11  O   UNL     1      -6.027  13.348  19.496  0.00  0.00    +0.000 OA
ENDROOT
BRANCH  10  12
ATOM     12  C   UNL     1      -7.143  11.146  19.555  0.00  0.00    +0.000 A 
ATOM     13  C   UNL     1      -6.917   9.865  19.018  0.00  0.00    +0.000 A 
ATOM     14  C   UNL     1      -7.168   8.711  19.762  0.00  0.00    +0.000 A 
ATOM     15  C   UNL     1      -7.664   8.823  21.052  0.00  0.00    +0.000 A 
ATOM     16  C   UNL     1      -7.915  10.072  21.606  0.00  0.00    +0.000 A 
ATOM     17  C   UNL     1      -7.651  11.231  20.864  0.00  0.00    +0.000 A 
BRANCH  15  18
ATOM     18  O   UNL     1      -7.915   7.709  21.800  0.00  0.00    +0.000 OA
ATOM     19  H   UNL     1      -8.321   7.977  22.638  0.00  0.00    +0.000 HD
ENDBRANCH  15  18
ENDBRANCH  10  12
BRANCH   1  21
ATOM     20  C   UNL     1      -2.104  14.753  22.229  0.00  0.00    +0.000 C 
ATOM     21  O   UNL     1      -1.829  13.419  21.792  0.00  0.00    +0.000 OA
ENDBRANCH   1  21
BRANCH   6  22
ATOM     22  C   UNL     1      -0.605  11.659  19.853  0.00  0.00    +0.000 C 
BRANCH  22  23
ATOM     23  C   UNL     1      -0.364  10.208  20.153  0.00  0.00    +0.000 C 
ATOM     24  O   UNL     1       0.906  10.058  20.825  0.00  0.00    +0.000 OA
ATOM     25  C   UNL     1      -0.231   9.591  21.554  0.00  0.00    +0.000 C 
ATOM     26  C   UNL     1      -0.550  10.389  22.780  0.00  0.00    +0.000 C 
ATOM     27  C   UNL     1      -0.159   8.106  21.760  0.00  0.00    +0.000 C 
ENDBRANCH  22  23
ENDBRANCH   6  22
TORSDOF 5
ENDMDL
MODEL 4
REMARK VINA RESULT:      -6.5      0.701      1.343
REMARK  Name = 
REMARK  8 active torsions:
REMARK  status: ('A' for Active; 'I' for Inactive)
REMARK    1  A    between atoms: C_1  and  O_2
REMARK    2  A    between atoms: O_2  and  C_3
REMARK    3  A    between atoms: C_8  and  C_9
REMARK    4  A    between atoms: C_9  and  C_10
REMARK    5  A    between atoms: C_12  and  C_13
REMARK    6  A    between atoms: C_12  and  C_14
REMARK    7  A    between atoms: C_18  and  C_19
REMARK    8  A    between atoms: C_22  and  O_23
REMARK                            x       y       z     vdW  Elec       q    Type
REMARK                         _______ _______ _______ _____ _____    ______ ____
ROOT
ATOM      1  C   UNL     1      -3.235  11.224  16.868  0.00  0.00    +0.000 A 
ATOM      2  C   UNL     1      -4.636  11.113  16.826  0.00  0.00    +0.000 A 
ATOM      3  C   UNL     1      -5.405  11.548  17.900  0.00  0.00    +0.000 A 
ATOM      4  C   UNL     1      -4.775  11.992  19.054  0.00  0.00    +0.000 A 
ATOM      5  C   UNL     1      -3.390  12.119  19.109  0.00  0.00    +0.000 A 
ATOM      6  C   UNL     1      -2.596  11.709  18.025  0.00  0.00    +0.000 A 
ATOM      7  C   UNL     1      -5.598  12.258  20.249  0.00  0.00    +0.000 C 
ATOM      8  O   UNL     1      -5.082  12.526  21.327  0.00  0.00    +0.000 OA
ATOM      9  C   UNL     1      -7.087  12.123  20.078  0.00  0.00    +0.000 C 
ATOM     10  C   UNL     1      -7.449  12.451  18.631  0.00  0.00    +0.000 C 
ATOM     11  O   UNL     1      -6.765  11.537  17.745  0.00  0.00    +0.000 OA
ENDROOT
BRANCH  10  12
ATOM     12  C   UNL     1      -7.280  13.910  18.192  0.00  0.00    +0.000 A 
ATOM     13  C   UNL     1      -7.197  14.290  16.839  0.00  0.00    +0.000 A 
ATOM     14  C   UNL     1      -7.047  15.628  16.468  0.00  0.00    +0.000 A 
ATOM     15  C   UNL     1      -6.962  16.604  17.449  0.00  0.00    +0.000 A 
ATOM     16  C   UNL     1      -7.021  16.261  18.794  0.00  0.00    +0.000 A 
ATOM     17  C   UNL     1      -7.186  14.921  19.166  0.00  0.00    +0.000 A 
BRANCH  15  18
ATOM     18  O   UNL     1      -6.816  17.919  17.111  0.00  0.00    +0.000 OA
ATOM     19  H   UNL     1      -5.928  18.054  16.748  0.00  0.00    +0.000 HD
ENDBRANCH  15  18
ENDBRANCH  10  12
BRANCH   1  21
ATOM     20  C   UNL     1      -3.139  10.177  14.762  0.00  0.00    +0.000 C 
ATOM     21  O   UNL     1      -2.442  10.857  15.809  0.00  0.00    +0.000 OA
ENDBRANCH   1  21
BRANCH   6  22
ATOM     22  C   UNL     1      -1.097  11.704  18.224  0.00  0.00    +0.000 C 
BRANCH  22  23
ATOM     23  C   UNL     1      -0.630  11.138  19.533  0.00  0.00    +0.000 C 
ATOM     24  O   UNL     1      -0.963   9.734  19.599  0.00  0.00    +0.000 OA
ATOM     25  C   UNL     1       0.429  10.039  19.710  0.00  0.00    +0.000 C 
ATOM     26  C   UNL     1       1.257   9.575  18.552  0.00  0.00    +0.000 C 
ATOM     27  C   UNL     1       0.952   9.655  21.063  0.00  0.00    +0.000 C 
ENDBRANCH  22  23
ENDBRANCH   6  22
TORSDOF 5
ENDMDL
MODEL 5
REMARK VINA RESULT:      -6.5      1.265      1.691
REMARK  Name = 
REMARK  8 active torsions:
REMARK  status: ('A' for Active; 'I' for Inactive)
REMARK    1  A    between atoms: C_1  and  O_2
REMARK    2  A    between atoms: O_2  and  C_3
REMARK    3  A    between atoms: C_8  and  C_9
REMARK    4  A    between atoms: C_9  and  C_10
REMARK    5  A    between atoms: C_12  and  C_13
REMARK    6  A    between atoms: C_12  and  C_14
REMARK    7  A    between atoms: C_18  and  C_19
REMARK    8  A    between atoms: C_22  and  O_23
REMARK                            x       y       z     vdW  Elec       q    Type
REMARK                         _______ _______ _______ _____ _____    ______ ____
ROOT
ATOM      1  C   UNL     1      -2.836  11.627  18.308  0.00  0.00    +0.000 A 
ATOM      2  C   UNL     1      -4.127  11.279  17.872  0.00  0.00    +0.000 A 
ATOM      3  C   UNL     1      -5.240  11.628  18.630  0.00  0.00    +0.000 A 
ATOM      4  C   UNL     1      -5.060  12.225  19.869  0.00  0.00    +0.000 A 
ATOM      5  C   UNL     1      -3.791  12.587  20.312  0.00  0.00    +0.000 A 
ATOM      6  C   UNL     1      -2.655  12.266  19.549  0.00  0.00    +0.000 A 
ATOM      7  C   UNL     1      -6.236  12.404  20.742  0.00  0.00    +0.000 C 
ATOM      8  O   UNL     1      -6.114  12.806  21.893  0.00  0.00    +0.000 OA
ATOM      9  C   UNL     1      -7.566  12.012  20.160  0.00  0.00    +0.000 C 
ATOM     10  C   UNL     1      -7.519  12.206  18.646  0.00  0.00    +0.000 C 
ATOM     11  O   UNL     1      -6.472  11.380  18.088  0.00  0.00    +0.000 OA
ENDROOT
BRANCH  10  12
ATOM     12  C   UNL     1      -7.441  13.651  18.137  0.00  0.00    +0.000 A 
ATOM     13  C   UNL     1      -7.034  13.974  16.830  0.00  0.00    +0.000 A 
ATOM     14  C   UNL     1      -6.976  15.299  16.393  0.00  0.00    +0.000 A 
ATOM     15  C   UNL     1      -7.311  16.322  17.267  0.00  0.00    +0.000 A 
ATOM     16  C   UNL     1      -7.699  16.039  18.570  0.00  0.00    +0.000 A 
ATOM     17  C   UNL     1      -7.770  14.709  19.004  0.00  0.00    +0.000 A 
BRANCH  15  18
ATOM     18  O   UNL     1      -7.264  17.625  16.862  0.00  0.00    +0.000 OA
ATOM     19  H   UNL     1      -7.973  17.782  16.221  0.00  0.00    +0.000 HD
ENDBRANCH  15  18
ENDBRANCH  10  12
BRANCH   1  21
ATOM     20  C   UNL     1      -1.498   9.955  17.331  0.00  0.00    +0.000 C 
ATOM     21  O   UNL     1      -1.715  11.349  17.565  0.00  0.00    +0.000 OA
ENDBRANCH   1  21
BRANCH   6  22
ATOM     22  C   UNL     1      -1.303  12.523  20.174  0.00  0.00    +0.000 C 
BRANCH  22  23
ATOM     23  C   UNL     1      -0.720  11.366  20.932  0.00  0.00    +0.000 C 
ATOM     24  O   UNL     1       0.225  11.854  21.910  0.00  0.00    +0.000 OA
ATOM     25  C   UNL     1      -0.875  11.110  22.439  0.00  0.00    +0.000 C 
ATOM     26  C   UNL     1      -1.828  11.918  23.263  0.00  0.00    +0.000 C 
ATOM     27  C   UNL     1      -0.398   9.838  23.078  0.00  0.00    +0.000 C 
ENDBRANCH  22  23
ENDBRANCH   6  22
TORSDOF 5
ENDMDL
MODEL 6
REMARK VINA RESULT:      -6.4      2.800      7.292
REMARK  Name = 
REMARK  8 active torsions:
REMARK  status: ('A' for Active; 'I' for Inactive)
REMARK    1  A    between atoms: C_1  and  O_2
REMARK    2  A    between atoms: O_2  and  C_3
REMARK    3  A    between atoms: C_8  and  C_9
REMARK    4  A    between atoms: C_9  and  C_10
REMARK    5  A    between atoms: C_12  and  C_13
REMARK    6  A    between atoms: C_12  and  C_14
REMARK    7  A    between atoms: C_18  and  C_19
REMARK    8  A    between atoms: C_22  and  O_23
REMARK                            x       y       z     vdW  Elec       q    Type
REMARK                         _______ _______ _______ _____ _____    ______ ____
ROOT
ATOM      1  C   UNL     1      -3.189  11.371  17.088  0.00  0.00    +0.000 A 
ATOM      2  C   UNL     1      -1.866  11.848  17.113  0.00  0.00    +0.000 A 
ATOM      3  C   UNL     1      -1.290  12.251  18.313  0.00  0.00    +0.000 A 
ATOM      4  C   UNL     1      -2.064  12.282  19.464  0.00  0.00    +0.000 A 
ATOM      5  C   UNL     1      -3.371  11.803  19.461  0.00  0.00    +0.000 A 
ATOM      6  C   UNL     1      -3.963  11.367  18.264  0.00  0.00    +0.000 A 
ATOM      7  C   UNL     1      -1.497  12.900  20.678  0.00  0.00    +0.000 C 
ATOM      8  O   UNL     1      -2.180  13.069  21.681  0.00  0.00    +0.000 OA
ATOM      9  C   UNL     1      -0.066  13.357  20.590  0.00  0.00    +0.000 C 
ATOM     10  C   UNL     1       0.673  12.472  19.588  0.00  0.00    +0.000 C 
ATOM     11  O   UNL     1       0.039  12.578  18.293  0.00  0.00    +0.000 OA
ENDROOT
BRANCH  10  12
ATOM     12  C   UNL     1       0.903  11.012  19.996  0.00  0.00    +0.000 A 
ATOM     13  C   UNL     1       0.802  10.571  21.329  0.00  0.00    +0.000 A 
ATOM     14  C   UNL     1       1.013   9.234  21.670  0.00  0.00    +0.000 A 
ATOM     15  C   UNL     1       1.345   8.320  20.681  0.00  0.00    +0.000 A 
ATOM     16  C   UNL     1       1.471   8.725  19.359  0.00  0.00    +0.000 A 
ATOM     17  C   UNL     1       1.246  10.064  19.014  0.00  0.00    +0.000 A 
BRANCH  15  18
ATOM     18  O   UNL     1       1.555   7.007  20.990  0.00  0.00    +0.000 OA
ATOM     19  H   UNL     1       1.465   6.476  20.185  0.00  0.00    +0.000 HD
ENDBRANCH  15  18
ENDBRANCH  10  12
BRANCH   1  21
ATOM     20  C   UNL     1      -2.991   9.963  15.213  0.00  0.00    +0.000 C 
ATOM     21  O   UNL     1      -3.778  10.913  15.936  0.00  0.00    +0.000 OA
ENDBRANCH   1  21
BRANCH   6  22
ATOM     22  C   UNL     1      -5.438  11.035  18.299  0.00  0.00    +0.000 C 
BRANCH  22  23
ATOM     23  C   UNL     1      -6.192  11.606  19.465  0.00  0.00    +0.000 C 
ATOM     24  O   UNL     1      -7.607  11.601  19.176  0.00  0.00    +0.000 OA
ATOM     25  C   UNL     1      -7.215  10.853  20.329  0.00  0.00    +0.000 C 
ATOM     26  C   UNL     1      -7.394   9.373  20.195  0.00  0.00    +0.000 C 
ATOM     27  C   UNL     1      -7.793  11.456  21.576  0.00  0.00    +0.000 C 
ENDBRANCH  22  23
ENDBRANCH   6  22
TORSDOF 5
ENDMDL
MODEL 7
REMARK VINA RESULT:      -6.4      1.338      1.851
REMARK  Name = 
REMARK  8 active torsions:
REMARK  status: ('A' for Active; 'I' for Inactive)
REMARK    1  A    between atoms: C_1  and  O_2
REMARK    2  A    between atoms: O_2  and  C_3
REMARK    3  A    between atoms: C_8  and  C_9
REMARK    4  A    between atoms: C_9  and  C_10
REMARK    5  A    between atoms: C_12  and  C_13
REMARK    6  A    between atoms: C_12  and  C_14
REMARK    7  A    between atoms: C_18  and  C_19
REMARK    8  A    between atoms: C_22  and  O_23
REMARK                            x       y       z     vdW  Elec       q    Type
REMARK                         _______ _______ _______ _____ _____    ______ ____
ROOT
ATOM      1  C   UNL     1      -3.225  11.218  16.949  0.00  0.00    +0.000 A 
ATOM      2  C   UNL     1      -4.626  11.123  16.867  0.00  0.00    +0.000 A 
ATOM      3  C   UNL     1      -5.418  11.529  17.937  0.00  0.00    +0.000 A 
ATOM      4  C   UNL     1      -4.814  11.925  19.121  0.00  0.00    +0.000 A 
ATOM      5  C   UNL     1      -3.429  12.035  19.216  0.00  0.00    +0.000 A 
ATOM      6  C   UNL     1      -2.612  11.654  18.138  0.00  0.00    +0.000 A 
ATOM      7  C   UNL     1      -5.665  12.158  20.303  0.00  0.00    +0.000 C 
ATOM      8  O   UNL     1      -5.174  12.382  21.403  0.00  0.00    +0.000 OA
ATOM      9  C   UNL     1      -7.150  12.045  20.090  0.00  0.00    +0.000 C 
ATOM     10  C   UNL     1      -7.472  12.428  18.647  0.00  0.00    +0.000 C 
ATOM     11  O   UNL     1      -6.773  11.538  17.746  0.00  0.00    +0.000 OA
ENDROOT
BRANCH  10  12
ATOM     12  C   UNL     1      -7.276  13.900  18.264  0.00  0.00    +0.000 A 
ATOM     13  C   UNL     1      -7.153  14.923  19.222  0.00  0.00    +0.000 A 
ATOM     14  C   UNL     1      -6.971  16.255  18.843  0.00  0.00    +0.000 A 
ATOM     15  C   UNL     1      -6.926  16.583  17.496  0.00  0.00    +0.000 A 
ATOM     16  C   UNL     1      -7.063  15.600  16.525  0.00  0.00    +0.000 A 
ATOM     17  C   UNL     1      -7.231  14.262  16.905  0.00  0.00    +0.000 A 
BRANCH  15  18
ATOM     18  O   UNL     1      -6.748  17.878  17.102  0.00  0.00    +0.000 OA
ATOM     19  H   UNL     1      -5.811  18.020  16.901  0.00  0.00    +0.000 HD
ENDBRANCH  15  18
ENDBRANCH  10  12
BRANCH   1  21
ATOM     20  C   UNL     1      -3.089  10.261  14.803  0.00  0.00    +0.000 C 
ATOM     21  O   UNL     1      -2.409  10.879  15.898  0.00  0.00    +0.000 OA
ENDBRANCH   1  21
BRANCH   6  22
ATOM     22  C   UNL     1      -1.118  11.626  18.375  0.00  0.00    +0.000 C 
BRANCH  22  23
ATOM     23  C   UNL     1      -0.479  12.970  18.570  0.00  0.00    +0.000 C 
ATOM     24  O   UNL     1       0.184  13.009  19.853  0.00  0.00    +0.000 OA
ATOM     25  C   UNL     1       1.027  13.235  18.721  0.00  0.00    +0.000 C 
ATOM     26  C   UNL     1       2.028  12.151  18.469  0.00  0.00    +0.000 C 
ATOM     27  C   UNL     1       1.586  14.628  18.743  0.00  0.00    +0.000 C 
ENDBRANCH  22  23
ENDBRANCH   6  22
TORSDOF 5
ENDMDL
MODEL 8
REMARK VINA RESULT:      -6.3      1.038      1.497
REMARK  Name = 
REMARK  8 active torsions:
REMARK  status: ('A' for Active; 'I' for Inactive)
REMARK    1  A    between atoms: C_1  and  O_2
REMARK    2  A    between atoms: O_2  and  C_3
REMARK    3  A    between atoms: C_8  and  C_9
REMARK    4  A    between atoms: C_9  and  C_10
REMARK    5  A    between atoms: C_12  and  C_13
REMARK    6  A    between atoms: C_12  and  C_14
REMARK    7  A    between atoms: C_18  and  C_19
REMARK    8  A    between atoms: C_22  and  O_23
REMARK                            x       y       z     vdW  Elec       q    Type
REMARK                         _______ _______ _______ _____ _____    ______ ____
ROOT
ATOM      1  C   UNL     1      -3.311  11.231  16.911  0.00  0.00    +0.000 A 
ATOM      2  C   UNL     1      -4.714  11.192  16.820  0.00  0.00    +0.000 A 
ATOM      3  C   UNL     1      -5.497  11.590  17.899  0.00  0.00    +0.000 A 
ATOM      4  C   UNL     1      -4.886  11.921  19.099  0.00  0.00    +0.000 A 
ATOM      5  C   UNL     1      -3.499  11.975  19.205  0.00  0.00    +0.000 A 
ATOM      6  C   UNL     1      -2.690  11.602  18.118  0.00  0.00    +0.000 A 
ATOM      7  C   UNL     1      -5.735  12.144  20.285  0.00  0.00    +0.000 C 
ATOM      8  O   UNL     1      -5.243  12.311  21.394  0.00  0.00    +0.000 OA
ATOM      9  C   UNL     1      -7.222  12.095  20.060  0.00  0.00    +0.000 C 
ATOM     10  C   UNL     1      -7.520  12.540  18.630  0.00  0.00    +0.000 C 
ATOM     11  O   UNL     1      -6.850  11.657  17.702  0.00  0.00    +0.000 OA
ENDROOT
BRANCH  10  12
ATOM     12  C   UNL     1      -7.267  14.016  18.300  0.00  0.00    +0.000 A 
ATOM     13  C   UNL     1      -7.089  14.996  19.294  0.00  0.00    +0.000 A 
ATOM     14  C   UNL     1      -6.856  16.333  18.963  0.00  0.00    +0.000 A 
ATOM     15  C   UNL     1      -6.813  16.709  17.629  0.00  0.00    +0.000 A 
ATOM     16  C   UNL     1      -7.003  15.770  16.623  0.00  0.00    +0.000 A 
ATOM     17  C   UNL     1      -7.223  14.427  16.955  0.00  0.00    +0.000 A 
BRANCH  15  18
ATOM     18  O   UNL     1      -6.585  18.010  17.281  0.00  0.00    +0.000 OA
ATOM     19  H   UNL     1      -6.042  18.429  17.965  0.00  0.00    +0.000 HD
ENDBRANCH  15  18
ENDBRANCH  10  12
BRANCH   1  21
ATOM     20  C   UNL     1      -3.184  10.260  14.771  0.00  0.00    +0.000 C 
ATOM     21  O   UNL     1      -2.502  10.898  15.853  0.00  0.00    +0.000 OA
ENDBRANCH   1  21
BRANCH   6  22
ATOM     22  C   UNL     1      -1.200  11.509  18.362  0.00  0.00    +0.000 C 
BRANCH  22  23
ATOM     23  C   UNL     1      -0.743  11.989  19.709  0.00  0.00    +0.000 C 
ATOM     24  O   UNL     1       0.679  12.239  19.676  0.00  0.00    +0.000 OA
ATOM     25  C   UNL     1      -0.133  13.366  20.012  0.00  0.00    +0.000 C 
ATOM     26  C   UNL     1      -0.138  14.453  18.984  0.00  0.00    +0.000 C 
ATOM     27  C   UNL     1       0.138  13.818  21.418  0.00  0.00    +0.000 C 
ENDBRANCH  22  23
ENDBRANCH   6  22
TORSDOF 5
ENDMDL
MODEL 9
REMARK VINA RESULT:      -6.1      1.105      1.776
REMARK  Name = 
REMARK  8 active torsions:
REMARK  status: ('A' for Active; 'I' for Inactive)
REMARK    1  A    between atoms: C_1  and  O_2
REMARK    2  A    between atoms: O_2  and  C_3
REMARK    3  A    between atoms: C_8  and  C_9
REMARK    4  A    between atoms: C_9  and  C_10
REMARK    5  A    between atoms: C_12  and  C_13
REMARK    6  A    between atoms: C_12  and  C_14
REMARK    7  A    between atoms: C_18  and  C_19
REMARK    8  A    between atoms: C_22  and  O_23
REMARK                            x       y       z     vdW  Elec       q    Type
REMARK                         _______ _______ _______ _____ _____    ______ ____
ROOT
ATOM      1  C   UNL     1      -3.154  11.090  17.094  0.00  0.00    +0.000 A 
ATOM      2  C   UNL     1      -4.552  10.935  17.048  0.00  0.00    +0.000 A 
ATOM      3  C   UNL     1      -5.345  11.434  18.076  0.00  0.00    +0.000 A 
ATOM      4  C   UNL     1      -4.742  11.990  19.195  0.00  0.00    +0.000 A 
ATOM      5  C   UNL     1      -3.362  12.162  19.253  0.00  0.00    +0.000 A 
ATOM      6  C   UNL     1      -2.544  11.687  18.214  0.00  0.00    +0.000 A 
ATOM      7  C   UNL     1      -5.588  12.329  20.356  0.00  0.00    +0.000 C 
ATOM      8  O   UNL     1      -5.092  12.699  21.413  0.00  0.00    +0.000 OA
ATOM      9  C   UNL     1      -7.069  12.136  20.182  0.00  0.00    +0.000 C 
ATOM     10  C   UNL     1      -7.423  12.334  18.710  0.00  0.00    +0.000 C 
ATOM     11  O   UNL     1      -6.702  11.370  17.909  0.00  0.00    +0.000 OA
ENDROOT
BRANCH  10  12
ATOM     12  C   UNL     1      -7.290  13.756  18.153  0.00  0.00    +0.000 A 
ATOM     13  C   UNL     1      -7.196  14.026  16.775  0.00  0.00    +0.000 A 
ATOM     14  C   UNL     1      -7.079  15.332  16.296  0.00  0.00    +0.000 A 
ATOM     15  C   UNL     1      -7.040  16.388  17.194  0.00  0.00    +0.000 A 
ATOM     16  C   UNL     1      -7.111  16.156  18.561  0.00  0.00    +0.000 A 
ATOM     17  C   UNL     1      -7.242  14.846  19.041  0.00  0.00    +0.000 A 
BRANCH  15  18
ATOM     18  O   UNL     1      -6.927  17.675  16.750  0.00  0.00    +0.000 OA
ATOM     19  H   UNL     1      -7.394  17.758  15.905  0.00  0.00    +0.000 HD
ENDBRANCH  15  18
ENDBRANCH  10  12
BRANCH   1  21
ATOM     20  C   UNL     1      -3.038  10.228  14.908  0.00  0.00    +0.000 C 
ATOM     21  O   UNL     1      -2.339  10.660  16.077  0.00  0.00    +0.000 OA
ENDBRANCH   1  21
BRANCH   6  22
ATOM     22  C   UNL     1      -1.048  11.743  18.427  0.00  0.00    +0.000 C 
BRANCH  22  23
ATOM     23  C   UNL     1      -0.616  12.062  19.829  0.00  0.00    +0.000 C 
ATOM     24  O   UNL     1       0.797  12.367  19.842  0.00  0.00    +0.000 OA
ATOM     25  C   UNL     1      -0.060  13.411  20.312  0.00  0.00    +0.000 C 
ATOM     26  C   UNL     1      -0.101  14.620  19.431  0.00  0.00    +0.000 C 
ATOM     27  C   UNL     1       0.188  13.689  21.766  0.00  0.00    +0.000 C 
ENDBRANCH  22  23
ENDBRANCH   6  22
TORSDOF 5
ENDMDL
