MODEL 1
REMARK VINA RESULT:      -6.4      0.000      0.000
REMARK  Name = 
REMARK  8 active torsions:
REMARK  status: ('A' for Active; 'I' for Inactive)
REMARK    1  A    between atoms: C_1  and  C_2
REMARK    2  A    between atoms: C_5  and  N_6
REMARK    3  A    between atoms: C_7  and  C_9
REMARK    4  A    between atoms: C_9  and  C_10
REMARK    5  A    between atoms: C_10  and  S_11
REMARK    6  A    between atoms: S_11  and  C_12
REMARK    7  A    between atoms: C_12  and  C_13
REMARK    8  A    between atoms: C_16  and  C_17
REMARK                            x       y       z     vdW  Elec       q    Type
REMARK                         _______ _______ _______ _____ _____    ______ ____
ROOT
ATOM      1  N   UNL     1       5.722   4.097  18.174  0.00  0.00    +0.000 N 
ATOM      2  C   UNL     1       4.676   3.762  19.019  0.00  0.00    +0.000 C 
ATOM      3  O   UNL     1       4.164   4.473  19.881  0.00  0.00    +0.000 OA
ATOM      4  H   UNL     1       6.026   3.381  17.533  0.00  0.00    +0.000 HD
ENDROOT
BRANCH   1   9
ATOM      5  C   UNL     1       8.565   9.098  17.936  0.00  0.00    +0.000 C 
ATOM      6  C   UNL     1       7.821   7.799  17.999  0.00  0.00    +0.000 A 
ATOM      7  C   UNL     1       8.195   6.810  18.903  0.00  0.00    +0.000 A 
ATOM      8  C   UNL     1       7.503   5.602  18.954  0.00  0.00    +0.000 A 
ATOM      9  C   UNL     1       6.413   5.335  18.112  0.00  0.00    +0.000 A 
ATOM     10  C   UNL     1       6.017   6.334  17.195  0.00  0.00    +0.000 A 
ATOM     11  C   UNL     1       4.871   6.219  16.224  0.00  0.00    +0.000 C 
ATOM     12  C   UNL     1       6.735   7.553  17.153  0.00  0.00    +0.000 A 
ENDBRANCH   1   9
BRANCH   2  13
ATOM     13  C   UNL     1       4.137   2.366  18.799  0.00  0.00    +0.000 C 
BRANCH  13  14
ATOM     14  C   UNL     1       3.137   2.407  17.650  0.00  0.00    +0.000 C 
BRANCH  14  15
ATOM     15  S   UNL     1       1.547   3.055  18.251  0.00  0.00    +0.000 S 
BRANCH  15  16
ATOM     16  C   UNL     1       1.441   2.110  19.814  0.00  0.00    +0.000 C 
BRANCH  16  17
ATOM     17  C   UNL     1       1.379   3.000  21.049  0.00  0.00    +0.000 C 
ATOM     18  N   UNL     1       1.282   4.345  20.855  0.00  0.00    +0.000 N 
ATOM     19  O   UNL     1       1.412   2.542  22.189  0.00  0.00    +0.000 OA
ATOM     20  H   UNL     1       1.240   4.729  19.918  0.00  0.00    +0.000 HD
ATOM     21  H   UNL     1       1.231   4.959  21.655  0.00  0.00    +0.000 HD
ENDBRANCH  16  17
ENDBRANCH  15  16
ENDBRANCH  14  15
ENDBRANCH  13  14
ENDBRANCH   2  13
TORSDOF 6
ENDMDL
MODEL 2
REMARK VINA RESULT:      -6.1      2.231      3.572
REMARK  Name = 
REMARK  8 active torsions:
REMARK  status: ('A' for Active; 'I' for Inactive)
REMARK    1  A    between atoms: C_1  and  C_2
REMARK    2  A    between atoms: C_5  and  N_6
REMARK    3  A    between atoms: C_7  and  C_9
REMARK    4  A    between atoms: C_9  and  C_10
REMARK    5  A    between atoms: C_10  and  S_11
REMARK    6  A    between atoms: S_11  and  C_12
REMARK    7  A    between atoms: C_12  and  C_13
REMARK    8  A    between atoms: C_16  and  C_17
REMARK                            x       y       z     vdW  Elec       q    Type
REMARK                         _______ _______ _______ _____ _____    ______ ____
ROOT
ATOM      1  N   UNL     1       4.470   5.192  18.812  0.00  0.00    +0.000 N 
ATOM      2  C   UNL     1       3.217   5.747  19.013  0.00  0.00    +0.000 C 
ATOM      3  O   UNL     1       2.491   6.260  18.166  0.00  0.00    +0.000 OA
ATOM      4  H   UNL     1       4.935   4.826  19.629  0.00  0.00    +0.000 HD
ENDROOT
BRANCH   1   9
ATOM      5  C   UNL     1       7.285   4.746  13.809  0.00  0.00    +0.000 C 
ATOM      6  C   UNL     1       6.556   4.859  15.113  0.00  0.00    +0.000 A 
ATOM      7  C   UNL     1       5.246   4.408  15.235  0.00  0.00    +0.000 A 
ATOM      8  C   UNL     1       4.571   4.520  16.449  0.00  0.00    +0.000 A 
ATOM      9  C   UNL     1       5.174   5.081  17.585  0.00  0.00    +0.000 A 
ATOM     10  C   UNL     1       6.507   5.535  17.477  0.00  0.00    +0.000 A 
ATOM     11  C   UNL     1       7.308   6.156  18.592  0.00  0.00    +0.000 C 
ATOM     12  C   UNL     1       7.176   5.419  16.235  0.00  0.00    +0.000 A 
ENDBRANCH   1   9
BRANCH   2  13
ATOM     13  C   UNL     1       2.739   5.671  20.446  0.00  0.00    +0.000 C 
BRANCH  13  14
ATOM     14  C   UNL     1       1.558   4.710  20.512  0.00  0.00    +0.000 C 
BRANCH  14  15
ATOM     15  S   UNL     1       2.098   3.130  21.233  0.00  0.00    +0.000 S 
BRANCH  15  16
ATOM     16  C   UNL     1       2.330   2.188  19.682  0.00  0.00    +0.000 C 
BRANCH  16  17
ATOM     17  C   UNL     1       3.796   1.977  19.323  0.00  0.00    +0.000 C 
ATOM     18  N   UNL     1       4.074   1.291  18.179  0.00  0.00    +0.000 N 
ATOM     19  O   UNL     1       4.710   2.403  20.025  0.00  0.00    +0.000 OA
ATOM     20  H   UNL     1       3.325   0.949  17.588  0.00  0.00    +0.000 HD
ATOM     21  H   UNL     1       5.036   1.143  17.911  0.00  0.00    +0.000 HD
ENDBRANCH  16  17
ENDBRANCH  15  16
ENDBRANCH  14  15
ENDBRANCH  13  14
ENDBRANCH   2  13
TORSDOF 6
ENDMDL
MODEL 3
REMARK VINA RESULT:      -6.1      4.244      5.932
REMARK  Name = 
REMARK  8 active torsions:
REMARK  status: ('A' for Active; 'I' for Inactive)
REMARK    1  A    between atoms: C_1  and  C_2
REMARK    2  A    between atoms: C_5  and  N_6
REMARK    3  A    between atoms: C_7  and  C_9
REMARK    4  A    between atoms: C_9  and  C_10
REMARK    5  A    between atoms: C_10  and  S_11
REMARK    6  A    between atoms: S_11  and  C_12
REMARK    7  A    between atoms: C_12  and  C_13
REMARK    8  A    between atoms: C_16  and  C_17
REMARK                            x       y       z     vdW  Elec       q    Type
REMARK                         _______ _______ _______ _____ _____    ______ ____
ROOT
ATOM      1  N   UNL     1       2.971   6.343  19.834  0.00  0.00    +0.000 N 
ATOM      2  C   UNL     1       2.616   5.026  19.593  0.00  0.00    +0.000 C 
ATOM      3  O   UNL     1       1.481   4.583  19.434  0.00  0.00    +0.000 OA
ATOM      4  H   UNL     1       3.955   6.527  19.954  0.00  0.00    +0.000 HD
ENDROOT
BRANCH   1   9
ATOM      5  C   UNL     1      -0.540  10.885  20.273  0.00  0.00    +0.000 C 
ATOM      6  C   UNL     1       0.371   9.702  20.155  0.00  0.00    +0.000 A 
ATOM      7  C   UNL     1       0.509   8.805  21.209  0.00  0.00    +0.000 A 
ATOM      8  C   UNL     1       1.362   7.708  21.095  0.00  0.00    +0.000 A 
ATOM      9  C   UNL     1       2.104   7.463  19.931  0.00  0.00    +0.000 A 
ATOM     10  C   UNL     1       1.967   8.361  18.849  0.00  0.00    +0.000 A 
ATOM     11  C   UNL     1       2.681   8.248  17.528  0.00  0.00    +0.000 C 
ATOM     12  C   UNL     1       1.100   9.472  18.984  0.00  0.00    +0.000 A 
ENDBRANCH   1   9
BRANCH   2  13
ATOM     13  C   UNL     1       3.795   4.082  19.513  0.00  0.00    +0.000 C 
BRANCH  13  14
ATOM     14  C   UNL     1       3.680   3.271  18.227  0.00  0.00    +0.000 C 
BRANCH  14  15
ATOM     15  S   UNL     1       4.623   4.090  16.905  0.00  0.00    +0.000 S 
BRANCH  15  16
ATOM     16  C   UNL     1       6.027   4.697  17.908  0.00  0.00    +0.000 C 
BRANCH  16  17
ATOM     17  C   UNL     1       7.373   4.545  17.208  0.00  0.00    +0.000 C 
ATOM     18  N   UNL     1       7.444   4.894  15.893  0.00  0.00    +0.000 N 
ATOM     19  O   UNL     1       8.370   4.127  17.792  0.00  0.00    +0.000 OA
ATOM     20  H   UNL     1       6.629   5.252  15.410  0.00  0.00    +0.000 HD
ATOM     21  H   UNL     1       8.325   4.812  15.406  0.00  0.00    +0.000 HD
ENDBRANCH  16  17
ENDBRANCH  15  16
ENDBRANCH  14  15
ENDBRANCH  13  14
ENDBRANCH   2  13
TORSDOF 6
ENDMDL
MODEL 4
REMARK VINA RESULT:      -6.0      3.051      6.546
REMARK  Name = 
REMARK  8 active torsions:
REMARK  status: ('A' for Active; 'I' for Inactive)
REMARK    1  A    between atoms: C_1  and  C_2
REMARK    2  A    between atoms: C_5  and  N_6
REMARK    3  A    between atoms: C_7  and  C_9
REMARK    4  A    between atoms: C_9  and  C_10
REMARK    5  A    between atoms: C_10  and  S_11
REMARK    6  A    between atoms: S_11  and  C_12
REMARK    7  A    between atoms: C_12  and  C_13
REMARK    8  A    between atoms: C_16  and  C_17
REMARK                            x       y       z     vdW  Elec       q    Type
REMARK                         _______ _______ _______ _____ _____    ______ ____
ROOT
ATOM      1  N   UNL     1       5.265   3.889  18.379  0.00  0.00    +0.000 N 
ATOM      2  C   UNL     1       6.387   4.661  18.632  0.00  0.00    +0.000 C 
ATOM      3  O   UNL     1       6.679   5.220  19.686  0.00  0.00    +0.000 OA
ATOM      4  H   UNL     1       5.177   3.516  17.447  0.00  0.00    +0.000 HD
ENDROOT
BRANCH   1   9
ATOM      5  C   UNL     1       1.070   2.559  22.093  0.00  0.00    +0.000 C 
ATOM      6  C   UNL     1       2.159   2.904  21.123  0.00  0.00    +0.000 A 
ATOM      7  C   UNL     1       3.338   2.169  21.090  0.00  0.00    +0.000 A 
ATOM      8  C   UNL     1       4.350   2.497  20.188  0.00  0.00    +0.000 A 
ATOM      9  C   UNL     1       4.223   3.565  19.288  0.00  0.00    +0.000 A 
ATOM     10  C   UNL     1       3.026   4.315  19.305  0.00  0.00    +0.000 A 
ATOM     11  C   UNL     1       2.719   5.486  18.408  0.00  0.00    +0.000 C 
ATOM     12  C   UNL     1       2.012   3.971  20.230  0.00  0.00    +0.000 A 
ENDBRANCH   1   9
BRANCH   2  13
ATOM     13  C   UNL     1       7.324   4.779  17.450  0.00  0.00    +0.000 C 
BRANCH  13  14
ATOM     14  C   UNL     1       7.036   6.093  16.734  0.00  0.00    +0.000 C 
BRANCH  14  15
ATOM     15  S   UNL     1       5.567   5.903  15.679  0.00  0.00    +0.000 S 
BRANCH  15  16
ATOM     16  C   UNL     1       5.945   4.256  14.979  0.00  0.00    +0.000 C 
BRANCH  16  17
ATOM     17  C   UNL     1       6.664   4.326  13.637  0.00  0.00    +0.000 C 
ATOM     18  N   UNL     1       6.375   3.366  12.714  0.00  0.00    +0.000 N 
ATOM     19  O   UNL     1       7.477   5.209  13.375  0.00  0.00    +0.000 OA
ATOM     20  H   UNL     1       5.695   2.643  12.918  0.00  0.00    +0.000 HD
ATOM     21  H   UNL     1       6.829   3.392  11.813  0.00  0.00    +0.000 HD
ENDBRANCH  16  17
ENDBRANCH  15  16
ENDBRANCH  14  15
ENDBRANCH  13  14
ENDBRANCH   2  13
TORSDOF 6
ENDMDL
MODEL 5
REMARK VINA RESULT:      -6.0      3.781      4.741
REMARK  Name = 
REMARK  8 active torsions:
REMARK  status: ('A' for Active; 'I' for Inactive)
REMARK    1  A    between atoms: C_1  and  C_2
REMARK    2  A    between atoms: C_5  and  N_6
REMARK    3  A    between atoms: C_7  and  C_9
REMARK    4  A    between atoms: C_9  and  C_10
REMARK    5  A    between atoms: C_10  and  S_11
REMARK    6  A    between atoms: S_11  and  C_12
REMARK    7  A    between atoms: C_12  and  C_13
REMARK    8  A    between atoms: C_16  and  C_17
REMARK                            x       y       z     vdW  Elec       q    Type
REMARK                         _______ _______ _______ _____ _____    ______ ____
ROOT
ATOM      1  N   UNL     1       3.093   6.194  18.838  0.00  0.00    +0.000 N 
ATOM      2  C   UNL     1       2.689   5.163  18.004  0.00  0.00    +0.000 C 
ATOM      3  O   UNL     1       1.536   4.868  17.699  0.00  0.00    +0.000 OA
ATOM      4  H   UNL     1       4.085   6.284  18.990  0.00  0.00    +0.000 HD
ENDROOT
BRANCH   1   9
ATOM      5  C   UNL     1      -0.251  10.004  21.569  0.00  0.00    +0.000 C 
ATOM      6  C   UNL     1       0.616   9.012  20.855  0.00  0.00    +0.000 A 
ATOM      7  C   UNL     1       0.936   7.795  21.445  0.00  0.00    +0.000 A 
ATOM      8  C   UNL     1       1.747   6.878  20.778  0.00  0.00    +0.000 A 
ATOM      9  C   UNL     1       2.265   7.137  19.501  0.00  0.00    +0.000 A 
ATOM     10  C   UNL     1       1.941   8.367  18.886  0.00  0.00    +0.000 A 
ATOM     11  C   UNL     1       2.404   8.806  17.521  0.00  0.00    +0.000 C 
ATOM     12  C   UNL     1       1.121   9.288  19.579  0.00  0.00    +0.000 A 
ENDBRANCH   1   9
BRANCH   2  13
ATOM     13  C   UNL     1       3.834   4.361  17.428  0.00  0.00    +0.000 C 
BRANCH  13  14
ATOM     14  C   UNL     1       4.538   3.634  18.567  0.00  0.00    +0.000 C 
BRANCH  14  15
ATOM     15  S   UNL     1       3.450   2.334  19.225  0.00  0.00    +0.000 S 
BRANCH  15  16
ATOM     16  C   UNL     1       3.027   3.116  20.824  0.00  0.00    +0.000 C 
BRANCH  16  17
ATOM     17  C   UNL     1       1.564   2.939  21.209  0.00  0.00    +0.000 C 
ATOM     18  N   UNL     1       0.621   3.347  20.315  0.00  0.00    +0.000 N 
ATOM     19  O   UNL     1       1.224   2.446  22.283  0.00  0.00    +0.000 OA
ATOM     20  H   UNL     1       0.894   3.741  19.422  0.00  0.00    +0.000 HD
ATOM     21  H   UNL     1      -0.357   3.235  20.539  0.00  0.00    +0.000 HD
ENDBRANCH  16  17
ENDBRANCH  15  16
ENDBRANCH  14  15
ENDBRANCH  13  14
ENDBRANCH   2  13
TORSDOF 6
ENDMDL
MODEL 6
REMARK VINA RESULT:      -6.0      1.032      1.032
REMARK  Name = 
REMARK  8 active torsions:
REMARK  status: ('A' for Active; 'I' for Inactive)
REMARK    1  A    between atoms: C_1  and  C_2
REMARK    2  A    between atoms: C_5  and  N_6
REMARK    3  A    between atoms: C_7  and  C_9
REMARK    4  A    between atoms: C_9  and  C_10
REMARK    5  A    between atoms: C_10  and  S_11
REMARK    6  A    between atoms: S_11  and  C_12
REMARK    7  A    between atoms: C_12  and  C_13
REMARK    8  A    between atoms: C_16  and  C_17
REMARK                            x       y       z     vdW  Elec       q    Type
REMARK                         _______ _______ _______ _____ _____    ______ ____
ROOT
ATOM      1  N   UNL     1       5.688   4.221  17.559  0.00  0.00    +0.000 N 
ATOM      2  C   UNL     1       4.682   3.729  18.375  0.00  0.00    +0.000 C 
ATOM      3  O   UNL     1       4.246   4.241  19.403  0.00  0.00    +0.000 OA
ATOM      4  H   UNL     1       5.930   3.659  16.757  0.00  0.00    +0.000 HD
ENDROOT
BRANCH   1   9
ATOM      5  C   UNL     1       8.674   9.095  18.247  0.00  0.00    +0.000 C 
ATOM      6  C   UNL     1       7.893   7.830  18.069  0.00  0.00    +0.000 A 
ATOM      7  C   UNL     1       8.187   6.702  18.828  0.00  0.00    +0.000 A 
ATOM      8  C   UNL     1       7.460   5.525  18.655  0.00  0.00    +0.000 A 
ATOM      9  C   UNL     1       6.415   5.429  17.725  0.00  0.00    +0.000 A 
ATOM     10  C   UNL     1       6.100   6.569  16.954  0.00  0.00    +0.000 A 
ATOM     11  C   UNL     1       5.009   6.645  15.917  0.00  0.00    +0.000 C 
ATOM     12  C   UNL     1       6.851   7.754  17.139  0.00  0.00    +0.000 A 
ENDBRANCH   1   9
BRANCH   2  13
ATOM     13  C   UNL     1       4.086   2.426  17.890  0.00  0.00    +0.000 C 
BRANCH  13  14
ATOM     14  C   UNL     1       2.586   2.620  17.701  0.00  0.00    +0.000 C 
BRANCH  14  15
ATOM     15  S   UNL     1       1.692   1.816  19.066  0.00  0.00    +0.000 S 
BRANCH  15  16
ATOM     16  C   UNL     1       0.815   3.284  19.718  0.00  0.00    +0.000 C 
BRANCH  16  17
ATOM     17  C   UNL     1       1.500   3.902  20.931  0.00  0.00    +0.000 C 
ATOM     18  N   UNL     1       1.950   3.057  21.901  0.00  0.00    +0.000 N 
ATOM     19  O   UNL     1       1.653   5.115  21.049  0.00  0.00    +0.000 OA
ATOM     20  H   UNL     1       1.839   2.055  21.803  0.00  0.00    +0.000 HD
ATOM     21  H   UNL     1       2.415   3.438  22.712  0.00  0.00    +0.000 HD
ENDBRANCH  16  17
ENDBRANCH  15  16
ENDBRANCH  14  15
ENDBRANCH  13  14
ENDBRANCH   2  13
TORSDOF 6
ENDMDL
MODEL 7
REMARK VINA RESULT:      -6.0      2.337      3.561
REMARK  Name = 
REMARK  8 active torsions:
REMARK  status: ('A' for Active; 'I' for Inactive)
REMARK    1  A    between atoms: C_1  and  C_2
REMARK    2  A    between atoms: C_5  and  N_6
REMARK    3  A    between atoms: C_7  and  C_9
REMARK    4  A    between atoms: C_9  and  C_10
REMARK    5  A    between atoms: C_10  and  S_11
REMARK    6  A    between atoms: S_11  and  C_12
REMARK    7  A    between atoms: C_12  and  C_13
REMARK    8  A    between atoms: C_16  and  C_17
REMARK                            x       y       z     vdW  Elec       q    Type
REMARK                         _______ _______ _______ _____ _____    ______ ____
ROOT
ATOM      1  N   UNL     1       4.213   5.166  19.076  0.00  0.00    +0.000 N 
ATOM      2  C   UNL     1       3.025   5.859  19.248  0.00  0.00    +0.000 C 
ATOM      3  O   UNL     1       2.435   6.536  18.410  0.00  0.00    +0.000 OA
ATOM      4  H   UNL     1       4.564   4.672  19.881  0.00  0.00    +0.000 HD
ENDROOT
BRANCH   1   9
ATOM      5  C   UNL     1       7.332   4.813  14.249  0.00  0.00    +0.000 C 
ATOM      6  C   UNL     1       6.523   4.902  15.507  0.00  0.00    +0.000 A 
ATOM      7  C   UNL     1       5.153   4.665  15.487  0.00  0.00    +0.000 A 
ATOM      8  C   UNL     1       4.404   4.753  16.660  0.00  0.00    +0.000 A 
ATOM      9  C   UNL     1       4.991   5.077  17.892  0.00  0.00    +0.000 A 
ATOM     10  C   UNL     1       6.383   5.311  17.928  0.00  0.00    +0.000 A 
ATOM     11  C   UNL     1       7.176   5.662  19.160  0.00  0.00    +0.000 C 
ATOM     12  C   UNL     1       7.127   5.222  16.727  0.00  0.00    +0.000 A 
ENDBRANCH   1   9
BRANCH   2  13
ATOM     13  C   UNL     1       2.432   5.717  20.632  0.00  0.00    +0.000 C 
BRANCH  13  14
ATOM     14  C   UNL     1       2.329   4.233  20.965  0.00  0.00    +0.000 C 
BRANCH  14  15
ATOM     15  S   UNL     1       0.958   3.492  20.028  0.00  0.00    +0.000 S 
BRANCH  15  16
ATOM     16  C   UNL     1       1.767   1.919  19.559  0.00  0.00    +0.000 C 
BRANCH  16  17
ATOM     17  C   UNL     1       2.563   2.018  18.263  0.00  0.00    +0.000 C 
ATOM     18  N   UNL     1       3.819   1.491  18.251  0.00  0.00    +0.000 N 
ATOM     19  O   UNL     1       2.106   2.548  17.253  0.00  0.00    +0.000 OA
ATOM     20  H   UNL     1       4.197   1.041  19.076  0.00  0.00    +0.000 HD
ATOM     21  H   UNL     1       4.367   1.535  17.403  0.00  0.00    +0.000 HD
ENDBRANCH  16  17
ENDBRANCH  15  16
ENDBRANCH  14  15
ENDBRANCH  13  14
ENDBRANCH   2  13
TORSDOF 6
ENDMDL
MODEL 8
REMARK VINA RESULT:      -6.0      3.016      3.614
REMARK  Name = 
REMARK  8 active torsions:
REMARK  status: ('A' for Active; 'I' for Inactive)
REMARK    1  A    between atoms: C_1  and  C_2
REMARK    2  A    between atoms: C_5  and  N_6
REMARK    3  A    between atoms: C_7  and  C_9
REMARK    4  A    between atoms: C_9  and  C_10
REMARK    5  A    between atoms: C_10  and  S_11
REMARK    6  A    between atoms: S_11  and  C_12
REMARK    7  A    between atoms: C_12  and  C_13
REMARK    8  A    between atoms: C_16  and  C_17
REMARK                            x       y       z     vdW  Elec       q    Type
REMARK                         _______ _______ _______ _____ _____    ______ ____
ROOT
ATOM      1  N   UNL     1       3.203   5.130  18.538  0.00  0.00    +0.000 N 
ATOM      2  C   UNL     1       1.873   4.742  18.537  0.00  0.00    +0.000 C 
ATOM      3  O   UNL     1       1.232   4.300  17.586  0.00  0.00    +0.000 OA
ATOM      4  H   UNL     1       3.565   5.485  19.409  0.00  0.00    +0.000 HD
ENDROOT
BRANCH   1   9
ATOM      5  C   UNL     1       6.877   4.899  14.111  0.00  0.00    +0.000 C 
ATOM      6  C   UNL     1       5.925   4.961  15.265  0.00  0.00    +0.000 A 
ATOM      7  C   UNL     1       5.522   3.801  15.917  0.00  0.00    +0.000 A 
ATOM      8  C   UNL     1       4.631   3.865  16.987  0.00  0.00    +0.000 A 
ATOM      9  C   UNL     1       4.113   5.083  17.449  0.00  0.00    +0.000 A 
ATOM     10  C   UNL     1       4.521   6.271  16.803  0.00  0.00    +0.000 A 
ATOM     11  C   UNL     1       4.070   7.661  17.169  0.00  0.00    +0.000 C 
ATOM     12  C   UNL     1       5.421   6.187  15.714  0.00  0.00    +0.000 A 
ENDBRANCH   1   9
BRANCH   2  13
ATOM     13  C   UNL     1       1.194   4.887  19.880  0.00  0.00    +0.000 C 
BRANCH  13  14
ATOM     14  C   UNL     1       2.218   4.606  20.974  0.00  0.00    +0.000 C 
BRANCH  14  15
ATOM     15  S   UNL     1       2.158   2.845  21.426  0.00  0.00    +0.000 S 
BRANCH  15  16
ATOM     16  C   UNL     1       3.565   2.256  20.415  0.00  0.00    +0.000 C 
BRANCH  16  17
ATOM     17  C   UNL     1       3.129   1.501  19.164  0.00  0.00    +0.000 C 
ATOM     18  N   UNL     1       1.799   1.478  18.871  0.00  0.00    +0.000 N 
ATOM     19  O   UNL     1       3.934   0.928  18.432  0.00  0.00    +0.000 OA
ATOM     20  H   UNL     1       1.133   1.960  19.462  0.00  0.00    +0.000 HD
ATOM     21  H   UNL     1       1.483   0.993  18.044  0.00  0.00    +0.000 HD
ENDBRANCH  16  17
ENDBRANCH  15  16
ENDBRANCH  14  15
ENDBRANCH  13  14
ENDBRANCH   2  13
TORSDOF 6
ENDMDL
MODEL 9
REMARK VINA RESULT:      -5.9      3.466      6.843
REMARK  Name = 
REMARK  8 active torsions:
REMARK  status: ('A' for Active; 'I' for Inactive)
REMARK    1  A    between atoms: C_1  and  C_2
REMARK    2  A    between atoms: C_5  and  N_6
REMARK    3  A    between atoms: C_7  and  C_9
REMARK    4  A    between atoms: C_9  and  C_10
REMARK    5  A    between atoms: C_10  and  S_11
REMARK    6  A    between atoms: S_11  and  C_12
REMARK    7  A    between atoms: C_12  and  C_13
REMARK    8  A    between atoms: C_16  and  C_17
REMARK                            x       y       z     vdW  Elec       q    Type
REMARK                         _______ _______ _______ _____ _____    ______ ____
ROOT
ATOM      1  N   UNL     1       4.513   5.217  18.049  0.00  0.00    +0.000 N 
ATOM      2  C   UNL     1       5.866   5.487  18.171  0.00  0.00    +0.000 C 
ATOM      3  O   UNL     1       6.593   5.212  19.122  0.00  0.00    +0.000 OA
ATOM      4  H   UNL     1       4.068   5.529  17.200  0.00  0.00    +0.000 HD
ENDROOT
BRANCH   1   9
ATOM      5  C   UNL     1       1.122   2.555  21.867  0.00  0.00    +0.000 C 
ATOM      6  C   UNL     1       2.008   3.245  20.875  0.00  0.00    +0.000 A 
ATOM      7  C   UNL     1       2.332   4.588  21.026  0.00  0.00    +0.000 A 
ATOM      8  C   UNL     1       3.153   5.226  20.098  0.00  0.00    +0.000 A 
ATOM      9  C   UNL     1       3.682   4.551  18.988  0.00  0.00    +0.000 A 
ATOM     10  C   UNL     1       3.369   3.183  18.827  0.00  0.00    +0.000 A 
ATOM     11  C   UNL     1       3.853   2.306  17.702  0.00  0.00    +0.000 C 
ATOM     12  C   UNL     1       2.530   2.553  19.776  0.00  0.00    +0.000 A 
ENDBRANCH   1   9
BRANCH   2  13
ATOM     13  C   UNL     1       6.460   6.183  16.966  0.00  0.00    +0.000 C 
BRANCH  13  14
ATOM     14  C   UNL     1       5.739   5.689  15.718  0.00  0.00    +0.000 C 
BRANCH  14  15
ATOM     15  S   UNL     1       6.540   4.172  15.113  0.00  0.00    +0.000 S 
BRANCH  15  16
ATOM     16  C   UNL     1       5.546   3.925  13.597  0.00  0.00    +0.000 C 
BRANCH  16  17
ATOM     17  C   UNL     1       6.380   3.490  12.397  0.00  0.00    +0.000 C 
ATOM     18  N   UNL     1       6.181   2.233  11.911  0.00  0.00    +0.000 N 
ATOM     19  O   UNL     1       7.206   4.233  11.871  0.00  0.00    +0.000 OA
ATOM     20  H   UNL     1       5.491   1.622  12.332  0.00  0.00    +0.000 HD
ATOM     21  H   UNL     1       6.713   1.921  11.112  0.00  0.00    +0.000 HD
ENDBRANCH  16  17
ENDBRANCH  15  16
ENDBRANCH  14  15
ENDBRANCH  13  14
ENDBRANCH   2  13
TORSDOF 6
ENDMDL
