MODEL 1
REMARK VINA RESULT:      -8.2      0.000      0.000
REMARK  Name = 
REMARK  8 active torsions:
REMARK  status: ('A' for Active; 'I' for Inactive)
REMARK    1  A    between atoms: N_1  and  C_2
REMARK    2  A    between atoms: C_5  and  N_6
REMARK    3  A    between atoms: C_9  and  C_10
REMARK    4  A    between atoms: C_14  and  N_15
REMARK    5  A    between atoms: N_15  and  C_16
REMARK    6  A    between atoms: C_16  and  C_17
REMARK    7  A    between atoms: C_20  and  O_21
REMARK    8  A    between atoms: O_21  and  C_22
REMARK                            x       y       z     vdW  Elec       q    Type
REMARK                         _______ _______ _______ _____ _____    ______ ____
ROOT
ATOM      1  C   UNL     1       0.749  10.432  19.919  0.00  0.00    +0.000 A 
ATOM      2  C   UNL     1       0.884  10.427  18.531  0.00  0.00    +0.000 A 
ATOM      3  C   UNL     1       1.396   9.309  17.896  0.00  0.00    +0.000 A 
ATOM      4  C   UNL     1       1.822   8.241  18.667  0.00  0.00    +0.000 A 
ATOM      5  C   UNL     1       1.698   8.297  20.049  0.00  0.00    +0.000 A 
ATOM      6  N   UNL     1       1.160   9.370  20.676  0.00  0.00    +0.000 NA
ENDROOT
BRANCH   1  10
ATOM      7  N   UNL     1      -2.820  12.486  22.551  0.00  0.00    +0.000 N 
ATOM      8  C   UNL     1      -1.517  12.593  22.057  0.00  0.00    +0.000 A 
ATOM      9  C   UNL     1      -1.016  11.541  21.291  0.00  0.00    +0.000 A 
ATOM     10  C   UNL     1       0.248  11.615  20.665  0.00  0.00    +0.000 A 
ATOM     11  C   UNL     1       0.943  12.825  20.825  0.00  0.00    +0.000 A 
ATOM     12 CL   UNL     1       2.422  13.226  20.026  0.00  0.00    +0.000 Cl
ATOM     13  C   UNL     1       0.392  13.810  21.636  0.00  0.00    +0.000 A 
ATOM     14  N   UNL     1      -0.809  13.716  22.250  0.00  0.00    +0.000 NA
ATOM     15  H   UNL     1      -2.961  11.619  23.055  0.00  0.00    +0.000 HD
BRANCH   7  19
ATOM     16  C   UNL     1      -6.133  12.630  23.900  0.00  0.00    +0.000 C 
ATOM     17  C   UNL     1      -5.746  12.961  22.453  0.00  0.00    +0.000 C 
ATOM     18  C   UNL     1      -4.681  14.059  22.368  0.00  0.00    +0.000 C 
ATOM     19  C   UNL     1      -3.420  13.677  23.162  0.00  0.00    +0.000 C 
ATOM     20  C   UNL     1      -3.789  13.374  24.626  0.00  0.00    +0.000 C 
ATOM     21  C   UNL     1      -4.895  12.322  24.753  0.00  0.00    +0.000 C 
BRANCH  16  22
ATOM     22  N   UNL     1      -6.902  13.727  24.494  0.00  0.00    +0.000 NA
ATOM     23  H   UNL     1      -6.517  14.616  24.174  0.00  0.00    +0.000 HD
ATOM     24  H   UNL     1      -6.800  13.731  25.507  0.00  0.00    +0.000 HD
ENDBRANCH  16  22
ENDBRANCH   7  19
ENDBRANCH   1  10
BRANCH   5  25
ATOM     25  N   UNL     1       2.145   7.173  20.754  0.00  0.00    +0.000 N 
ATOM     26  H   UNL     1       2.157   7.367  21.751  0.00  0.00    +0.000 HD
BRANCH  25  27
ATOM     27  C   UNL     1       1.551   5.890  20.446  0.00  0.00    +0.000 C 
BRANCH  27  28
ATOM     28  C   UNL     1       2.464   5.194  19.456  0.00  0.00    +0.000 A 
ATOM     29  C   UNL     1       3.858   5.288  19.559  0.00  0.00    +0.000 A 
ATOM     30  C   UNL     1       4.681   4.670  18.612  0.00  0.00    +0.000 A 
ATOM     31  C   UNL     1       4.131   3.945  17.553  0.00  0.00    +0.000 A 
ATOM     32  C   UNL     1       2.744   3.884  17.413  0.00  0.00    +0.000 A 
ATOM     33  C   UNL     1       1.920   4.504  18.359  0.00  0.00    +0.000 A 
BRANCH  31  34
ATOM     34  O   UNL     1       5.036   3.377  16.702  0.00  0.00    +0.000 OA
BRANCH  34  35
ATOM     35  C   UNL     1       5.809   4.289  15.939  0.00  0.00    +0.000 C 
ATOM     36  F   UNL     1       7.105   4.200  16.328  0.00  0.00    +0.000 F 
ATOM     37  F   UNL     1       5.763   3.874  14.647  0.00  0.00    +0.000 F 
ENDBRANCH  34  35
ENDBRANCH  31  34
ENDBRANCH  27  28
ENDBRANCH  25  27
ENDBRANCH   5  25
TORSDOF 8
ENDMDL
MODEL 2
REMARK VINA RESULT:      -8.1      0.525      1.073
REMARK  Name = 
REMARK  8 active torsions:
REMARK  status: ('A' for Active; 'I' for Inactive)
REMARK    1  A    between atoms: N_1  and  C_2
REMARK    2  A    between atoms: C_5  and  N_6
REMARK    3  A    between atoms: C_9  and  C_10
REMARK    4  A    between atoms: C_14  and  N_15
REMARK    5  A    between atoms: N_15  and  C_16
REMARK    6  A    between atoms: C_16  and  C_17
REMARK    7  A    between atoms: C_20  and  O_21
REMARK    8  A    between atoms: O_21  and  C_22
REMARK                            x       y       z     vdW  Elec       q    Type
REMARK                         _______ _______ _______ _____ _____    ______ ____
ROOT
ATOM      1  C   UNL     1       0.765  10.440  19.998  0.00  0.00    +0.000 A 
ATOM      2  C   UNL     1       0.886  10.456  18.608  0.00  0.00    +0.000 A 
ATOM      3  C   UNL     1       1.381   9.344  17.950  0.00  0.00    +0.000 A 
ATOM      4  C   UNL     1       1.805   8.259  18.699  0.00  0.00    +0.000 A 
ATOM      5  C   UNL     1       1.695   8.293  20.084  0.00  0.00    +0.000 A 
ATOM      6  N   UNL     1       1.174   9.361  20.733  0.00  0.00    +0.000 NA
ENDROOT
BRANCH   1  10
ATOM      7  N   UNL     1      -2.695  12.434  22.814  0.00  0.00    +0.000 N 
ATOM      8  C   UNL     1      -1.423  12.563  22.251  0.00  0.00    +0.000 A 
ATOM      9  C   UNL     1      -0.944  11.518  21.461  0.00  0.00    +0.000 A 
ATOM     10  C   UNL     1       0.283  11.614  20.768  0.00  0.00    +0.000 A 
ATOM     11  C   UNL     1       0.963  12.837  20.890  0.00  0.00    +0.000 A 
ATOM     12 CL   UNL     1       2.390  13.263  20.011  0.00  0.00    +0.000 Cl
ATOM     13  C   UNL     1       0.438  13.814  21.727  0.00  0.00    +0.000 A 
ATOM     14  N   UNL     1      -0.726  13.700  22.404  0.00  0.00    +0.000 NA
ATOM     15  H   UNL     1      -2.793  11.565  23.327  0.00  0.00    +0.000 HD
BRANCH   7  19
ATOM     16  C   UNL     1      -6.122  12.711  23.812  0.00  0.00    +0.000 C 
ATOM     17  C   UNL     1      -5.556  13.122  22.447  0.00  0.00    +0.000 C 
ATOM     18  C   UNL     1      -4.421  14.144  22.566  0.00  0.00    +0.000 C 
ATOM     19  C   UNL     1      -3.284  13.614  23.455  0.00  0.00    +0.000 C 
ATOM     20  C   UNL     1      -3.832  13.228  24.841  0.00  0.00    +0.000 C 
ATOM     21  C   UNL     1      -5.008  12.251  24.763  0.00  0.00    +0.000 C 
BRANCH  16  22
ATOM     22  N   UNL     1      -6.882  13.812  24.410  0.00  0.00    +0.000 NA
ATOM     23  H   UNL     1      -7.720  13.980  23.853  0.00  0.00    +0.000 HD
ATOM     24  H   UNL     1      -6.349  14.678  24.374  0.00  0.00    +0.000 HD
ENDBRANCH  16  22
ENDBRANCH   7  19
ENDBRANCH   1  10
BRANCH   5  25
ATOM     25  N   UNL     1       2.139   7.154  20.765  0.00  0.00    +0.000 N 
ATOM     26  H   UNL     1       2.078   7.300  21.769  0.00  0.00    +0.000 HD
BRANCH  25  27
ATOM     27  C   UNL     1       1.617   5.867  20.361  0.00  0.00    +0.000 C 
BRANCH  27  28
ATOM     28  C   UNL     1       2.566   5.299  19.324  0.00  0.00    +0.000 A 
ATOM     29  C   UNL     1       2.090   4.617  18.196  0.00  0.00    +0.000 A 
ATOM     30  C   UNL     1       2.983   4.068  17.271  0.00  0.00    +0.000 A 
ATOM     31  C   UNL     1       4.362   4.192  17.451  0.00  0.00    +0.000 A 
ATOM     32  C   UNL     1       4.848   4.827  18.593  0.00  0.00    +0.000 A 
ATOM     33  C   UNL     1       3.955   5.376  19.520  0.00  0.00    +0.000 A 
BRANCH  31  34
ATOM     34  O   UNL     1       5.132   3.625  16.474  0.00  0.00    +0.000 OA
BRANCH  34  35
ATOM     35  C   UNL     1       5.598   4.516  15.474  0.00  0.00    +0.000 C 
ATOM     36  F   UNL     1       5.124   4.113  14.270  0.00  0.00    +0.000 F 
ATOM     37  F   UNL     1       5.040   5.730  15.723  0.00  0.00    +0.000 F 
ENDBRANCH  34  35
ENDBRANCH  31  34
ENDBRANCH  27  28
ENDBRANCH  25  27
ENDBRANCH   5  25
TORSDOF 8
ENDMDL
MODEL 3
REMARK VINA RESULT:      -8.1      4.428      9.990
REMARK  Name = 
REMARK  8 active torsions:
REMARK  status: ('A' for Active; 'I' for Inactive)
REMARK    1  A    between atoms: N_1  and  C_2
REMARK    2  A    between atoms: C_5  and  N_6
REMARK    3  A    between atoms: C_9  and  C_10
REMARK    4  A    between atoms: C_14  and  N_15
REMARK    5  A    between atoms: N_15  and  C_16
REMARK    6  A    between atoms: C_16  and  C_17
REMARK    7  A    between atoms: C_20  and  O_21
REMARK    8  A    between atoms: O_21  and  C_22
REMARK                            x       y       z     vdW  Elec       q    Type
REMARK                         _______ _______ _______ _____ _____    ______ ____
ROOT
ATOM      1  C   UNL     1       0.674   9.341  20.901  0.00  0.00    +0.000 A 
ATOM      2  C   UNL     1       0.758   9.008  22.253  0.00  0.00    +0.000 A 
ATOM      3  C   UNL     1       0.011   9.713  23.181  0.00  0.00    +0.000 A 
ATOM      4  C   UNL     1      -0.759  10.779  22.746  0.00  0.00    +0.000 A 
ATOM      5  C   UNL     1      -0.793  11.097  21.394  0.00  0.00    +0.000 A 
ATOM      6  N   UNL     1      -0.097  10.387  20.474  0.00  0.00    +0.000 NA
ENDROOT
BRANCH   1  10
ATOM      7  N   UNL     1       2.902   5.265  19.382  0.00  0.00    +0.000 N 
ATOM      8  C   UNL     1       2.516   6.573  19.078  0.00  0.00    +0.000 A 
ATOM      9  C   UNL     1       1.813   7.293  20.045  0.00  0.00    +0.000 A 
ATOM     10  C   UNL     1       1.481   8.653  19.861  0.00  0.00    +0.000 A 
ATOM     11  C   UNL     1       1.940   9.242  18.671  0.00  0.00    +0.000 A 
ATOM     12 CL   UNL     1       1.811  10.924  18.291  0.00  0.00    +0.000 Cl
ATOM     13  C   UNL     1       2.600   8.447  17.742  0.00  0.00    +0.000 A 
ATOM     14  N   UNL     1       2.890   7.139  17.920  0.00  0.00    +0.000 NA
ATOM     15  H   UNL     1       2.119   4.706  19.700  0.00  0.00    +0.000 HD
BRANCH   7  19
ATOM     16  C   UNL     1       3.159   1.716  18.990  0.00  0.00    +0.000 C 
ATOM     17  C   UNL     1       3.974   2.564  19.974  0.00  0.00    +0.000 C 
ATOM     18  C   UNL     1       4.758   3.680  19.276  0.00  0.00    +0.000 C 
ATOM     19  C   UNL     1       3.826   4.592  18.462  0.00  0.00    +0.000 C 
ATOM     20  C   UNL     1       3.024   3.758  17.446  0.00  0.00    +0.000 C 
ATOM     21  C   UNL     1       2.272   2.594  18.097  0.00  0.00    +0.000 C 
BRANCH  16  22
ATOM     22  N   UNL     1       4.042   0.882  18.170  0.00  0.00    +0.000 NA
ATOM     23  H   UNL     1       3.488   0.161  17.709  0.00  0.00    +0.000 HD
ATOM     24  H   UNL     1       4.710   0.383  18.755  0.00  0.00    +0.000 HD
ENDBRANCH  16  22
ENDBRANCH   7  19
ENDBRANCH   1  10
BRANCH   5  25
ATOM     25  N   UNL     1      -1.601  12.183  21.037  0.00  0.00    +0.000 N 
ATOM     26  H   UNL     1      -2.578  11.964  21.210  0.00  0.00    +0.000 HD
BRANCH  25  27
ATOM     27  C   UNL     1      -1.234  13.497  21.517  0.00  0.00    +0.000 C 
BRANCH  27  28
ATOM     28  C   UNL     1       0.030  13.909  20.789  0.00  0.00    +0.000 A 
ATOM     29  C   UNL     1       0.026  14.170  19.412  0.00  0.00    +0.000 A 
ATOM     30  C   UNL     1       1.211  14.511  18.753  0.00  0.00    +0.000 A 
ATOM     31  C   UNL     1       2.415  14.605  19.453  0.00  0.00    +0.000 A 
ATOM     32  C   UNL     1       2.440  14.303  20.815  0.00  0.00    +0.000 A 
ATOM     33  C   UNL     1       1.255  13.959  21.475  0.00  0.00    +0.000 A 
BRANCH  31  34
ATOM     34  O   UNL     1       3.501  14.960  18.703  0.00  0.00    +0.000 OA
BRANCH  34  35
ATOM     35  C   UNL     1       3.316  16.085  17.861  0.00  0.00    +0.000 C 
ATOM     36  F   UNL     1       4.321  16.969  18.081  0.00  0.00    +0.000 F 
ATOM     37  F   UNL     1       3.451  15.657  16.579  0.00  0.00    +0.000 F 
ENDBRANCH  34  35
ENDBRANCH  31  34
ENDBRANCH  27  28
ENDBRANCH  25  27
ENDBRANCH   5  25
TORSDOF 8
ENDMDL
MODEL 4
REMARK VINA RESULT:      -8.1      4.175      9.881
REMARK  Name = 
REMARK  8 active torsions:
REMARK  status: ('A' for Active; 'I' for Inactive)
REMARK    1  A    between atoms: N_1  and  C_2
REMARK    2  A    between atoms: C_5  and  N_6
REMARK    3  A    between atoms: C_9  and  C_10
REMARK    4  A    between atoms: C_14  and  N_15
REMARK    5  A    between atoms: N_15  and  C_16
REMARK    6  A    between atoms: C_16  and  C_17
REMARK    7  A    between atoms: C_20  and  O_21
REMARK    8  A    between atoms: O_21  and  C_22
REMARK                            x       y       z     vdW  Elec       q    Type
REMARK                         _______ _______ _______ _____ _____    ______ ____
ROOT
ATOM      1  C   UNL     1       0.611   9.291  21.005  0.00  0.00    +0.000 A 
ATOM      2  C   UNL     1       0.693   8.925  22.348  0.00  0.00    +0.000 A 
ATOM      3  C   UNL     1      -0.047   9.614  23.293  0.00  0.00    +0.000 A 
ATOM      4  C   UNL     1      -0.808  10.696  22.885  0.00  0.00    +0.000 A 
ATOM      5  C   UNL     1      -0.840  11.048  21.541  0.00  0.00    +0.000 A 
ATOM      6  N   UNL     1      -0.151  10.354  20.604  0.00  0.00    +0.000 NA
ENDROOT
BRANCH   1  10
ATOM      7  N   UNL     1       2.920   5.275  19.448  0.00  0.00    +0.000 N 
ATOM      8  C   UNL     1       2.488   6.569  19.148  0.00  0.00    +0.000 A 
ATOM      9  C   UNL     1       1.789   7.273  20.129  0.00  0.00    +0.000 A 
ATOM     10  C   UNL     1       1.412   8.623  19.948  0.00  0.00    +0.000 A 
ATOM     11  C   UNL     1       1.823   9.218  18.744  0.00  0.00    +0.000 A 
ATOM     12 CL   UNL     1       1.635  10.893  18.359  0.00  0.00    +0.000 Cl
ATOM     13  C   UNL     1       2.482   8.438  17.802  0.00  0.00    +0.000 A 
ATOM     14  N   UNL     1       2.816   7.140  17.979  0.00  0.00    +0.000 NA
ATOM     15  H   UNL     1       2.162   4.695  19.788  0.00  0.00    +0.000 HD
BRANCH   7  19
ATOM     16  C   UNL     1       3.144   1.738  18.938  0.00  0.00    +0.000 C 
ATOM     17  C   UNL     1       3.964   2.546  19.951  0.00  0.00    +0.000 C 
ATOM     18  C   UNL     1       4.761   3.677  19.293  0.00  0.00    +0.000 C 
ATOM     19  C   UNL     1       3.839   4.624  18.508  0.00  0.00    +0.000 C 
ATOM     20  C   UNL     1       3.032   3.833  17.463  0.00  0.00    +0.000 C 
ATOM     21  C   UNL     1       2.267   2.655  18.073  0.00  0.00    +0.000 C 
BRANCH  16  22
ATOM     22  N   UNL     1       4.021   0.924  18.092  0.00  0.00    +0.000 NA
ATOM     23  H   UNL     1       4.973   0.970  18.457  0.00  0.00    +0.000 HD
ATOM     24  H   UNL     1       4.069   1.306  17.150  0.00  0.00    +0.000 HD
ENDBRANCH  16  22
ENDBRANCH   7  19
ENDBRANCH   1  10
BRANCH   5  25
ATOM     25  N   UNL     1      -1.639  12.149  21.211  0.00  0.00    +0.000 N 
ATOM     26  H   UNL     1      -2.620  11.924  21.350  0.00  0.00    +0.000 HD
BRANCH  25  27
ATOM     27  C   UNL     1      -1.284  13.441  21.756  0.00  0.00    +0.000 C 
BRANCH  27  28
ATOM     28  C   UNL     1      -0.157  13.996  20.908  0.00  0.00    +0.000 A 
ATOM     29  C   UNL     1       1.111  14.241  21.452  0.00  0.00    +0.000 A 
ATOM     30  C   UNL     1       2.127  14.790  20.662  0.00  0.00    +0.000 A 
ATOM     31  C   UNL     1       1.899  15.097  19.319  0.00  0.00    +0.000 A 
ATOM     32  C   UNL     1       0.627  14.901  18.779  0.00  0.00    +0.000 A 
ATOM     33  C   UNL     1      -0.389  14.354  19.569  0.00  0.00    +0.000 A 
BRANCH  31  34
ATOM     34  O   UNL     1       2.971  15.615  18.648  0.00  0.00    +0.000 OA
BRANCH  34  35
ATOM     35  C   UNL     1       4.030  14.705  18.401  0.00  0.00    +0.000 C 
ATOM     36  F   UNL     1       3.507  13.508  18.041  0.00  0.00    +0.000 F 
ATOM     37  F   UNL     1       4.717  15.169  17.324  0.00  0.00    +0.000 F 
ENDBRANCH  34  35
ENDBRANCH  31  34
ENDBRANCH  27  28
ENDBRANCH  25  27
ENDBRANCH   5  25
TORSDOF 8
ENDMDL
MODEL 5
REMARK VINA RESULT:      -8.1      5.432     10.922
REMARK  Name = 
REMARK  8 active torsions:
REMARK  status: ('A' for Active; 'I' for Inactive)
REMARK    1  A    between atoms: N_1  and  C_2
REMARK    2  A    between atoms: C_5  and  N_6
REMARK    3  A    between atoms: C_9  and  C_10
REMARK    4  A    between atoms: C_14  and  N_15
REMARK    5  A    between atoms: N_15  and  C_16
REMARK    6  A    between atoms: C_16  and  C_17
REMARK    7  A    between atoms: C_20  and  O_21
REMARK    8  A    between atoms: O_21  and  C_22
REMARK                            x       y       z     vdW  Elec       q    Type
REMARK                         _______ _______ _______ _____ _____    ______ ____
ROOT
ATOM      1  C   UNL     1       0.443  10.156  18.865  0.00  0.00    +0.000 A 
ATOM      2  C   UNL     1      -0.669  10.154  18.023  0.00  0.00    +0.000 A 
ATOM      3  C   UNL     1      -1.335  11.339  17.762  0.00  0.00    +0.000 A 
ATOM      4  C   UNL     1      -0.913  12.494  18.399  0.00  0.00    +0.000 A 
ATOM      5  C   UNL     1       0.181  12.449  19.253  0.00  0.00    +0.000 A 
ATOM      6  N   UNL     1       0.864  11.302  19.482  0.00  0.00    +0.000 NA
ENDROOT
BRANCH   1  10
ATOM      7  N   UNL     1       3.706   6.744  17.603  0.00  0.00    +0.000 N 
ATOM      8  C   UNL     1       2.879   7.263  18.602  0.00  0.00    +0.000 A 
ATOM      9  C   UNL     1       2.115   8.391  18.304  0.00  0.00    +0.000 A 
ATOM     10  C   UNL     1       1.174   8.913  19.219  0.00  0.00    +0.000 A 
ATOM     11  C   UNL     1       1.026   8.201  20.421  0.00  0.00    +0.000 A 
ATOM     12 CL   UNL     1      -0.170   8.535  21.624  0.00  0.00    +0.000 Cl
ATOM     13  C   UNL     1       1.852   7.110  20.658  0.00  0.00    +0.000 A 
ATOM     14  N   UNL     1       2.766   6.635  19.783  0.00  0.00    +0.000 NA
ATOM     15  H   UNL     1       4.313   7.455  17.211  0.00  0.00    +0.000 HD
BRANCH   7  19
ATOM     16  C   UNL     1       6.942   5.793  16.402  0.00  0.00    +0.000 C 
ATOM     17  C   UNL     1       5.617   5.575  15.660  0.00  0.00    +0.000 C 
ATOM     18  C   UNL     1       4.609   4.769  16.486  0.00  0.00    +0.000 C 
ATOM     19  C   UNL     1       4.334   5.440  17.841  0.00  0.00    +0.000 C 
ATOM     20  C   UNL     1       5.652   5.636  18.612  0.00  0.00    +0.000 C 
ATOM     21  C   UNL     1       6.709   6.387  17.798  0.00  0.00    +0.000 C 
BRANCH  16  22
ATOM     22  N   UNL     1       7.694   4.539  16.499  0.00  0.00    +0.000 NA
ATOM     23  H   UNL     1       8.035   4.281  15.573  0.00  0.00    +0.000 HD
ATOM     24  H   UNL     1       7.084   3.776  16.790  0.00  0.00    +0.000 HD
ENDBRANCH  16  22
ENDBRANCH   7  19
ENDBRANCH   1  10
BRANCH   5  25
ATOM     25  N   UNL     1       0.547  13.662  19.850  0.00  0.00    +0.000 N 
ATOM     26  H   UNL     1      -0.026  14.418  19.487  0.00  0.00    +0.000 HD
BRANCH  25  27
ATOM     27  C   UNL     1       0.675  13.706  21.290  0.00  0.00    +0.000 C 
BRANCH  27  28
ATOM     28  C   UNL     1      -0.660  13.292  21.876  0.00  0.00    +0.000 A 
ATOM     29  C   UNL     1      -0.801  12.101  22.601  0.00  0.00    +0.000 A 
ATOM     30  C   UNL     1      -2.050  11.720  23.101  0.00  0.00    +0.000 A 
ATOM     31  C   UNL     1      -3.176  12.518  22.893  0.00  0.00    +0.000 A 
ATOM     32  C   UNL     1      -3.058  13.682  22.133  0.00  0.00    +0.000 A 
ATOM     33  C   UNL     1      -1.809  14.064  21.631  0.00  0.00    +0.000 A 
BRANCH  31  34
ATOM     34  O   UNL     1      -4.336  12.046  23.440  0.00  0.00    +0.000 OA
BRANCH  34  35
ATOM     35  C   UNL     1      -4.791  12.739  24.590  0.00  0.00    +0.000 C 
ATOM     36  F   UNL     1      -3.737  13.357  25.178  0.00  0.00    +0.000 F 
ATOM     37  F   UNL     1      -5.627  13.722  24.164  0.00  0.00    +0.000 F 
ENDBRANCH  34  35
ENDBRANCH  31  34
ENDBRANCH  27  28
ENDBRANCH  25  27
ENDBRANCH   5  25
TORSDOF 8
ENDMDL
MODEL 6
REMARK VINA RESULT:      -8.0      5.483     10.984
REMARK  Name = 
REMARK  8 active torsions:
REMARK  status: ('A' for Active; 'I' for Inactive)
REMARK    1  A    between atoms: N_1  and  C_2
REMARK    2  A    between atoms: C_5  and  N_6
REMARK    3  A    between atoms: C_9  and  C_10
REMARK    4  A    between atoms: C_14  and  N_15
REMARK    5  A    between atoms: N_15  and  C_16
REMARK    6  A    between atoms: C_16  and  C_17
REMARK    7  A    between atoms: C_20  and  O_21
REMARK    8  A    between atoms: O_21  and  C_22
REMARK                            x       y       z     vdW  Elec       q    Type
REMARK                         _______ _______ _______ _____ _____    ______ ____
ROOT
ATOM      1  C   UNL     1       0.469  10.157  18.923  0.00  0.00    +0.000 A 
ATOM      2  C   UNL     1      -0.629  10.177  18.063  0.00  0.00    +0.000 A 
ATOM      3  C   UNL     1      -1.285  11.370  17.816  0.00  0.00    +0.000 A 
ATOM      4  C   UNL     1      -0.870  12.510  18.484  0.00  0.00    +0.000 A 
ATOM      5  C   UNL     1       0.209  12.443  19.355  0.00  0.00    +0.000 A 
ATOM      6  N   UNL     1       0.884  11.288  19.571  0.00  0.00    +0.000 NA
ENDROOT
BRANCH   1  10
ATOM      7  N   UNL     1       3.722   6.746  17.635  0.00  0.00    +0.000 N 
ATOM      8  C   UNL     1       2.890   7.253  18.635  0.00  0.00    +0.000 A 
ATOM      9  C   UNL     1       2.135   8.391  18.349  0.00  0.00    +0.000 A 
ATOM     10  C   UNL     1       1.189   8.904  19.264  0.00  0.00    +0.000 A 
ATOM     11  C   UNL     1       1.027   8.174  20.453  0.00  0.00    +0.000 A 
ATOM     12 CL   UNL     1      -0.178   8.496  21.650  0.00  0.00    +0.000 Cl
ATOM     13  C   UNL     1       1.844   7.073  20.679  0.00  0.00    +0.000 A 
ATOM     14  N   UNL     1       2.763   6.607  19.804  0.00  0.00    +0.000 NA
ATOM     15  H   UNL     1       4.337   7.459  17.259  0.00  0.00    +0.000 HD
BRANCH   7  19
ATOM     16  C   UNL     1       6.929   5.766  16.378  0.00  0.00    +0.000 C 
ATOM     17  C   UNL     1       5.590   5.565  15.656  0.00  0.00    +0.000 C 
ATOM     18  C   UNL     1       4.587   4.766  16.494  0.00  0.00    +0.000 C 
ATOM     19  C   UNL     1       4.340   5.434  17.857  0.00  0.00    +0.000 C 
ATOM     20  C   UNL     1       5.672   5.613  18.607  0.00  0.00    +0.000 C 
ATOM     21  C   UNL     1       6.724   6.357  17.780  0.00  0.00    +0.000 C 
BRANCH  16  22
ATOM     22  N   UNL     1       7.668   4.504  16.458  0.00  0.00    +0.000 NA
ATOM     23  H   UNL     1       8.637   4.666  16.182  0.00  0.00    +0.000 HD
ATOM     24  H   UNL     1       7.302   3.829  15.788  0.00  0.00    +0.000 HD
ENDBRANCH  16  22
ENDBRANCH   7  19
ENDBRANCH   1  10
BRANCH   5  25
ATOM     25  N   UNL     1       0.570  13.641  19.984  0.00  0.00    +0.000 N 
ATOM     26  H   UNL     1       0.044  14.415  19.589  0.00  0.00    +0.000 HD
BRANCH  25  27
ATOM     27  C   UNL     1       0.603  13.674  21.429  0.00  0.00    +0.000 C 
BRANCH  27  28
ATOM     28  C   UNL     1      -0.770  13.263  21.924  0.00  0.00    +0.000 A 
ATOM     29  C   UNL     1      -1.898  14.061  21.689  0.00  0.00    +0.000 A 
ATOM     30  C   UNL     1      -3.148  13.682  22.187  0.00  0.00    +0.000 A 
ATOM     31  C   UNL     1      -3.298  12.503  22.920  0.00  0.00    +0.000 A 
ATOM     32  C   UNL     1      -2.174  11.726  23.200  0.00  0.00    +0.000 A 
ATOM     33  C   UNL     1      -0.922  12.104  22.704  0.00  0.00    +0.000 A 
BRANCH  31  34
ATOM     34  O   UNL     1      -4.570  12.235  23.341  0.00  0.00    +0.000 OA
BRANCH  34  35
ATOM     35  C   UNL     1      -5.541  13.210  23.001  0.00  0.00    +0.000 C 
ATOM     36  F   UNL     1      -6.537  12.613  22.301  0.00  0.00    +0.000 F 
ATOM     37  F   UNL     1      -6.093  13.651  24.161  0.00  0.00    +0.000 F 
ENDBRANCH  34  35
ENDBRANCH  31  34
ENDBRANCH  27  28
ENDBRANCH  25  27
ENDBRANCH   5  25
TORSDOF 8
ENDMDL
MODEL 7
REMARK VINA RESULT:      -8.0      2.796      4.819
REMARK  Name = 
REMARK  8 active torsions:
REMARK  status: ('A' for Active; 'I' for Inactive)
REMARK    1  A    between atoms: N_1  and  C_2
REMARK    2  A    between atoms: C_5  and  N_6
REMARK    3  A    between atoms: C_9  and  C_10
REMARK    4  A    between atoms: C_14  and  N_15
REMARK    5  A    between atoms: N_15  and  C_16
REMARK    6  A    between atoms: C_16  and  C_17
REMARK    7  A    between atoms: C_20  and  O_21
REMARK    8  A    between atoms: O_21  and  C_22
REMARK                            x       y       z     vdW  Elec       q    Type
REMARK                         _______ _______ _______ _____ _____    ______ ____
ROOT
ATOM      1  C   UNL     1       2.462   6.403  19.762  0.00  0.00    +0.000 A 
ATOM      2  C   UNL     1       1.637   5.663  20.608  0.00  0.00    +0.000 A 
ATOM      3  C   UNL     1       2.024   4.396  21.007  0.00  0.00    +0.000 A 
ATOM      4  C   UNL     1       3.201   3.868  20.503  0.00  0.00    +0.000 A 
ATOM      5  C   UNL     1       3.981   4.627  19.639  0.00  0.00    +0.000 A 
ATOM      6  N   UNL     1       3.630   5.883  19.275  0.00  0.00    +0.000 NA
ENDROOT
BRANCH   1  10
ATOM      7  N   UNL     1      -0.113  10.508  20.399  0.00  0.00    +0.000 N 
ATOM      8  C   UNL     1       0.853   9.835  19.647  0.00  0.00    +0.000 A 
ATOM      9  C   UNL     1       1.199   8.539  20.029  0.00  0.00    +0.000 A 
ATOM     10  C   UNL     1       2.084   7.750  19.262  0.00  0.00    +0.000 A 
ATOM     11  C   UNL     1       2.554   8.334  18.074  0.00  0.00    +0.000 A 
ATOM     12 CL   UNL     1       3.507   7.517  16.884  0.00  0.00    +0.000 Cl
ATOM     13  C   UNL     1       2.193   9.643  17.783  0.00  0.00    +0.000 A 
ATOM     14  N   UNL     1       1.364  10.396  18.540  0.00  0.00    +0.000 NA
ATOM     15  H   UNL     1       0.113  10.509  21.387  0.00  0.00    +0.000 HD
BRANCH   7  19
ATOM     16  C   UNL     1      -0.982  13.347  22.400  0.00  0.00    +0.000 C 
ATOM     17  C   UNL     1      -1.936  12.214  21.999  0.00  0.00    +0.000 C 
ATOM     18  C   UNL     1      -2.022  12.030  20.480  0.00  0.00    +0.000 C 
ATOM     19  C   UNL     1      -0.634  11.773  19.870  0.00  0.00    +0.000 C 
ATOM     20  C   UNL     1       0.326  12.919  20.237  0.00  0.00    +0.000 C 
ATOM     21  C   UNL     1       0.395  13.175  21.745  0.00  0.00    +0.000 C 
BRANCH  16  22
ATOM     22  N   UNL     1      -1.554  14.651  22.054  0.00  0.00    +0.000 NA
ATOM     23  H   UNL     1      -2.317  14.517  21.390  0.00  0.00    +0.000 HD
ATOM     24  H   UNL     1      -0.867  15.228  21.570  0.00  0.00    +0.000 HD
ENDBRANCH  16  22
ENDBRANCH   7  19
ENDBRANCH   1  10
BRANCH   5  25
ATOM     25  N   UNL     1       5.158   4.024  19.180  0.00  0.00    +0.000 N 
ATOM     26  H   UNL     1       4.937   3.251  18.560  0.00  0.00    +0.000 HD
BRANCH  25  27
ATOM     27  C   UNL     1       6.204   4.874  18.655  0.00  0.00    +0.000 C 
BRANCH  27  28
ATOM     28  C   UNL     1       6.270   4.640  17.159  0.00  0.00    +0.000 A 
ATOM     29  C   UNL     1       7.291   5.198  16.379  0.00  0.00    +0.000 A 
ATOM     30  C   UNL     1       7.312   5.002  14.994  0.00  0.00    +0.000 A 
ATOM     31  C   UNL     1       6.321   4.244  14.366  0.00  0.00    +0.000 A 
ATOM     32  C   UNL     1       5.274   3.724  15.126  0.00  0.00    +0.000 A 
ATOM     33  C   UNL     1       5.251   3.921  16.511  0.00  0.00    +0.000 A 
BRANCH  31  34
ATOM     34  O   UNL     1       6.457   4.113  13.013  0.00  0.00    +0.000 OA
BRANCH  34  35
ATOM     35  C   UNL     1       5.704   3.065  12.425  0.00  0.00    +0.000 C 
ATOM     36  F   UNL     1       4.739   3.603  11.640  0.00  0.00    +0.000 F 
ATOM     37  F   UNL     1       6.539   2.382  11.600  0.00  0.00    +0.000 F 
ENDBRANCH  34  35
ENDBRANCH  31  34
ENDBRANCH  27  28
ENDBRANCH  25  27
ENDBRANCH   5  25
TORSDOF 8
ENDMDL
MODEL 8
REMARK VINA RESULT:      -8.0      5.853     11.366
REMARK  Name = 
REMARK  8 active torsions:
REMARK  status: ('A' for Active; 'I' for Inactive)
REMARK    1  A    between atoms: N_1  and  C_2
REMARK    2  A    between atoms: C_5  and  N_6
REMARK    3  A    between atoms: C_9  and  C_10
REMARK    4  A    between atoms: C_14  and  N_15
REMARK    5  A    between atoms: N_15  and  C_16
REMARK    6  A    between atoms: C_16  and  C_17
REMARK    7  A    between atoms: C_20  and  O_21
REMARK    8  A    between atoms: O_21  and  C_22
REMARK                            x       y       z     vdW  Elec       q    Type
REMARK                         _______ _______ _______ _____ _____    ______ ____
ROOT
ATOM      1  C   UNL     1       0.620   9.366  20.943  0.00  0.00    +0.000 A 
ATOM      2  C   UNL     1       0.250   8.751  22.140  0.00  0.00    +0.000 A 
ATOM      3  C   UNL     1      -0.470   9.463  23.082  0.00  0.00    +0.000 A 
ATOM      4  C   UNL     1      -0.754  10.796  22.838  0.00  0.00    +0.000 A 
ATOM      5  C   UNL     1      -0.343  11.380  21.646  0.00  0.00    +0.000 A 
ATOM      6  N   UNL     1       0.327  10.680  20.700  0.00  0.00    +0.000 NA
ENDROOT
BRANCH   1  10
ATOM      7  N   UNL     1       2.898   5.297  19.480  0.00  0.00    +0.000 N 
ATOM      8  C   UNL     1       2.491   6.594  19.157  0.00  0.00    +0.000 A 
ATOM      9  C   UNL     1       1.784   7.320  20.115  0.00  0.00    +0.000 A 
ATOM     10  C   UNL     1       1.430   8.672  19.910  0.00  0.00    +0.000 A 
ATOM     11  C   UNL     1       1.873   9.247  18.707  0.00  0.00    +0.000 A 
ATOM     12 CL   UNL     1       1.717  10.919  18.298  0.00  0.00    +0.000 Cl
ATOM     13  C   UNL     1       2.539   8.446  17.788  0.00  0.00    +0.000 A 
ATOM     14  N   UNL     1       2.849   7.145  17.987  0.00  0.00    +0.000 NA
ATOM     15  H   UNL     1       2.126   4.732  19.813  0.00  0.00    +0.000 HD
BRANCH   7  19
ATOM     16  C   UNL     1       3.069   1.753  19.006  0.00  0.00    +0.000 C 
ATOM     17  C   UNL     1       3.882   2.554  20.030  0.00  0.00    +0.000 C 
ATOM     18  C   UNL     1       4.713   3.665  19.379  0.00  0.00    +0.000 C 
ATOM     19  C   UNL     1       3.826   4.622  18.566  0.00  0.00    +0.000 C 
ATOM     20  C   UNL     1       3.027   3.835  17.511  0.00  0.00    +0.000 C 
ATOM     21  C   UNL     1       2.228   2.677  18.114  0.00  0.00    +0.000 C 
BRANCH  16  22
ATOM     22  N   UNL     1       3.949   0.915  18.187  0.00  0.00    +0.000 NA
ATOM     23  H   UNL     1       4.502   0.314  18.798  0.00  0.00    +0.000 HD
ATOM     24  H   UNL     1       4.623   1.488  17.682  0.00  0.00    +0.000 HD
ENDBRANCH  16  22
ENDBRANCH   7  19
ENDBRANCH   1  10
BRANCH   5  25
ATOM     25  N   UNL     1      -0.677  12.729  21.473  0.00  0.00    +0.000 N 
ATOM     26  H   UNL     1       0.166  13.291  21.399  0.00  0.00    +0.000 HD
BRANCH  25  27
ATOM     27  C   UNL     1      -1.660  13.068  20.469  0.00  0.00    +0.000 C 
BRANCH  27  28
ATOM     28  C   UNL     1      -2.984  13.268  21.179  0.00  0.00    +0.000 A 
ATOM     29  C   UNL     1      -4.173  12.732  20.669  0.00  0.00    +0.000 A 
ATOM     30  C   UNL     1      -5.390  12.961  21.320  0.00  0.00    +0.000 A 
ATOM     31  C   UNL     1      -5.441  13.721  22.490  0.00  0.00    +0.000 A 
ATOM     32  C   UNL     1      -4.271  14.299  22.981  0.00  0.00    +0.000 A 
ATOM     33  C   UNL     1      -3.054  14.072  22.330  0.00  0.00    +0.000 A 
BRANCH  31  34
ATOM     34  O   UNL     1      -6.684  13.863  23.040  0.00  0.00    +0.000 OA
BRANCH  34  35
ATOM     35  C   UNL     1      -6.980  12.979  24.108  0.00  0.00    +0.000 C 
ATOM     36  F   UNL     1      -7.917  13.550  24.905  0.00  0.00    +0.000 F 
ATOM     37  F   UNL     1      -7.554  11.872  23.568  0.00  0.00    +0.000 F 
ENDBRANCH  34  35
ENDBRANCH  31  34
ENDBRANCH  27  28
ENDBRANCH  25  27
ENDBRANCH   5  25
TORSDOF 8
ENDMDL
MODEL 9
REMARK VINA RESULT:      -8.0      2.818      4.593
REMARK  Name = 
REMARK  8 active torsions:
REMARK  status: ('A' for Active; 'I' for Inactive)
REMARK    1  A    between atoms: N_1  and  C_2
REMARK    2  A    between atoms: C_5  and  N_6
REMARK    3  A    between atoms: C_9  and  C_10
REMARK    4  A    between atoms: C_14  and  N_15
REMARK    5  A    between atoms: N_15  and  C_16
REMARK    6  A    between atoms: C_16  and  C_17
REMARK    7  A    between atoms: C_20  and  O_21
REMARK    8  A    between atoms: O_21  and  C_22
REMARK                            x       y       z     vdW  Elec       q    Type
REMARK                         _______ _______ _______ _____ _____    ______ ____
ROOT
ATOM      1  C   UNL     1       1.988   6.584  19.436  0.00  0.00    +0.000 A 
ATOM      2  C   UNL     1       1.791   6.140  20.743  0.00  0.00    +0.000 A 
ATOM      3  C   UNL     1       1.857   4.786  21.025  0.00  0.00    +0.000 A 
ATOM      4  C   UNL     1       2.057   3.897  19.982  0.00  0.00    +0.000 A 
ATOM      5  C   UNL     1       2.221   4.378  18.689  0.00  0.00    +0.000 A 
ATOM      6  N   UNL     1       2.198   5.703  18.411  0.00  0.00    +0.000 NA
ENDROOT
BRANCH   1  10
ATOM      7  N   UNL     1       0.011  10.975  20.267  0.00  0.00    +0.000 N 
ATOM      8  C   UNL     1       0.949  10.229  19.551  0.00  0.00    +0.000 A 
ATOM      9  C   UNL     1       1.042   8.863  19.814  0.00  0.00    +0.000 A 
ATOM     10  C   UNL     1       1.887   8.017  19.059  0.00  0.00    +0.000 A 
ATOM     11  C   UNL     1       2.586   8.629  18.007  0.00  0.00    +0.000 A 
ATOM     12 CL   UNL     1       3.546   7.788  16.840  0.00  0.00    +0.000 Cl
ATOM     13  C   UNL     1       2.469  10.003  17.835  0.00  0.00    +0.000 A 
ATOM     14  N   UNL     1       1.675  10.805  18.580  0.00  0.00    +0.000 NA
ATOM     15  H   UNL     1       0.107  10.841  21.267  0.00  0.00    +0.000 HD
BRANCH   7  19
ATOM     16  C   UNL     1      -3.117  12.681  20.622  0.00  0.00    +0.000 C 
ATOM     17  C   UNL     1      -2.686  11.855  19.403  0.00  0.00    +0.000 C 
ATOM     18  C   UNL     1      -1.371  12.351  18.795  0.00  0.00    +0.000 C 
ATOM     19  C   UNL     1      -0.240  12.355  19.837  0.00  0.00    +0.000 C 
ATOM     20  C   UNL     1      -0.645  13.208  21.053  0.00  0.00    +0.000 C 
ATOM     21  C   UNL     1      -1.987  12.782  21.656  0.00  0.00    +0.000 C 
BRANCH  16  22
ATOM     22  N   UNL     1      -3.556  14.018  20.213  0.00  0.00    +0.000 NA
ATOM     23  H   UNL     1      -2.758  14.652  20.233  0.00  0.00    +0.000 HD
ATOM     24  H   UNL     1      -4.225  14.397  20.880  0.00  0.00    +0.000 HD
ENDBRANCH  16  22
ENDBRANCH   7  19
ENDBRANCH   1  10
BRANCH   5  25
ATOM     25  N   UNL     1       2.426   3.415  17.695  0.00  0.00    +0.000 N 
ATOM     26  H   UNL     1       2.150   3.782  16.789  0.00  0.00    +0.000 HD
BRANCH  25  27
ATOM     27  C   UNL     1       3.703   2.737  17.651  0.00  0.00    +0.000 C 
BRANCH  27  28
ATOM     28  C   UNL     1       4.766   3.787  17.395  0.00  0.00    +0.000 A 
ATOM     29  C   UNL     1       4.978   4.312  16.114  0.00  0.00    +0.000 A 
ATOM     30  C   UNL     1       5.989   5.252  15.892  0.00  0.00    +0.000 A 
ATOM     31  C   UNL     1       6.800   5.688  16.941  0.00  0.00    +0.000 A 
ATOM     32  C   UNL     1       6.630   5.138  18.212  0.00  0.00    +0.000 A 
ATOM     33  C   UNL     1       5.620   4.196  18.434  0.00  0.00    +0.000 A 
BRANCH  31  34
ATOM     34  O   UNL     1       7.744   6.617  16.603  0.00  0.00    +0.000 OA
BRANCH  34  35
ATOM     35  C   UNL     1       7.722   7.811  17.367  0.00  0.00    +0.000 C 
ATOM     36  F   UNL     1       6.438   8.101  17.694  0.00  0.00    +0.000 F 
ATOM     37  F   UNL     1       8.371   7.556  18.533  0.00  0.00    +0.000 F 
ENDBRANCH  34  35
ENDBRANCH  31  34
ENDBRANCH  27  28
ENDBRANCH  25  27
ENDBRANCH   5  25
TORSDOF 8
ENDMDL
