MODEL 1
REMARK VINA RESULT:      -7.1      0.000      0.000
REMARK  Name = 
REMARK  8 active torsions:
REMARK  status: ('A' for Active; 'I' for Inactive)
REMARK    1  A    between atoms: C_1  and  C_2
REMARK    2  A    between atoms: C_2  and  C_3
REMARK    3  A    between atoms: C_2  and  C_4
REMARK    4  A    between atoms: C_2  and  O_5
REMARK    5  A    between atoms: O_5  and  C_6
REMARK    6  A    between atoms: N_14  and  C_15
REMARK    7  A    between atoms: C_17  and  C_18
REMARK    8  A    between atoms: C_26  and  C_27
REMARK                            x       y       z     vdW  Elec       q    Type
REMARK                         _______ _______ _______ _____ _____    ______ ____
ROOT
ATOM      1  C   UNL     1      -0.291  14.146  21.608  0.00  0.00    +0.000 C 
ATOM      2  O   UNL     1       0.539  14.562  22.409  0.00  0.00    +0.000 OA
ATOM      3  N   UNL     1      -0.039  13.063  20.799  0.00  0.00    +0.000 N 
ATOM      4  C   UNL     1       1.239  12.386  20.933  0.00  0.00    +0.000 C 
ATOM      5  C   UNL     1       1.016  10.876  20.973  0.00  0.00    +0.000 C 
ATOM      6  N   UNL     1       0.367  10.435  19.728  0.00  0.00    +0.000 N 
ATOM      7  C   UNL     1       0.844   9.406  18.927  0.00  0.00    +0.000 C 
ATOM      8  O   UNL     1       0.295   9.066  17.883  0.00  0.00    +0.000 OA
ATOM      9  N   UNL     1       1.987   8.769  19.374  0.00  0.00    +0.000 N 
ATOM     10  C   UNL     1      -0.964  11.108  19.501  0.00  0.00    +0.000 C 
ATOM     11  C   UNL     1      -0.846  12.663  19.639  0.00  0.00    +0.000 C 
ATOM     12  H   UNL     1       2.634   9.290  19.942  0.00  0.00    +0.000 HD
ENDROOT
BRANCH   9  13
ATOM     13  C   UNL     1       2.556   7.583  18.835  0.00  0.00    +0.000 A 
ATOM     14  C   UNL     1       3.412   7.603  17.731  0.00  0.00    +0.000 A 
ATOM     15  C   UNL     1       4.024   6.432  17.258  0.00  0.00    +0.000 A 
ATOM     16  C   UNL     1       3.738   5.214  17.888  0.00  0.00    +0.000 A 
ATOM     17  C   UNL     1       2.837   5.168  18.955  0.00  0.00    +0.000 A 
ATOM     18  C   UNL     1       2.245   6.346  19.420  0.00  0.00    +0.000 A 
ATOM     19 CL   UNL     1       1.123   6.235  20.734  0.00  0.00    +0.000 Cl
BRANCH  15  20
ATOM     20  C   UNL     1       4.982   6.499  16.093  0.00  0.00    +0.000 C 
ATOM     21  F   UNL     1       6.240   6.896  16.432  0.00  0.00    +0.000 F 
ATOM     22  F   UNL     1       5.126   5.297  15.469  0.00  0.00    +0.000 F 
ATOM     23  F   UNL     1       4.566   7.372  15.134  0.00  0.00    +0.000 F 
ENDBRANCH  15  20
ENDBRANCH   9  13
BRANCH  10  24
ATOM     24  C   UNL     1      -1.769  10.722  18.264  0.00  0.00    +0.000 A 
ATOM     25  C   UNL     1      -1.676  11.509  17.101  0.00  0.00    +0.000 A 
ATOM     26  C   UNL     1      -2.468  11.234  15.983  0.00  0.00    +0.000 A 
ATOM     27  C   UNL     1      -3.358  10.163  16.003  0.00  0.00    +0.000 A 
ATOM     28  C   UNL     1      -3.444   9.356  17.134  0.00  0.00    +0.000 A 
ATOM     29  C   UNL     1      -2.658   9.633  18.257  0.00  0.00    +0.000 A 
ENDBRANCH  10  24
BRANCH   1  30
ATOM     30  O   UNL     1      -1.542  14.659  21.464  0.00  0.00    +0.000 OA
BRANCH  30  32
ATOM     31  C   UNL     1      -2.347  15.435  23.650  0.00  0.00    +0.000 C 
ATOM     32  C   UNL     1      -2.510  14.411  22.520  0.00  0.00    +0.000 C 
ATOM     33  C   UNL     1      -2.436  12.959  23.021  0.00  0.00    +0.000 C 
ATOM     34  C   UNL     1      -3.897  14.614  21.890  0.00  0.00    +0.000 C 
ENDBRANCH  30  32
ENDBRANCH   1  30
TORSDOF 5
ENDMDL
MODEL 2
REMARK VINA RESULT:      -6.9      3.376      5.816
REMARK  Name = 
REMARK  8 active torsions:
REMARK  status: ('A' for Active; 'I' for Inactive)
REMARK    1  A    between atoms: C_1  and  C_2
REMARK    2  A    between atoms: C_2  and  C_3
REMARK    3  A    between atoms: C_2  and  C_4
REMARK    4  A    between atoms: C_2  and  O_5
REMARK    5  A    between atoms: O_5  and  C_6
REMARK    6  A    between atoms: N_14  and  C_15
REMARK    7  A    between atoms: C_17  and  C_18
REMARK    8  A    between atoms: C_26  and  C_27
REMARK                            x       y       z     vdW  Elec       q    Type
REMARK                         _______ _______ _______ _____ _____    ______ ____
ROOT
ATOM      1  C   UNL     1       0.158   9.949  19.589  0.00  0.00    +0.000 C 
ATOM      2  O   UNL     1       0.135  11.023  18.998  0.00  0.00    +0.000 OA
ATOM      3  N   UNL     1       0.876   8.875  19.119  0.00  0.00    +0.000 N 
ATOM      4  C   UNL     1       1.650   9.046  17.901  0.00  0.00    +0.000 C 
ATOM      5  C   UNL     1       3.044   8.454  18.094  0.00  0.00    +0.000 C 
ATOM      6  N   UNL     1       2.939   7.018  18.398  0.00  0.00    +0.000 N 
ATOM      7  C   UNL     1       3.628   6.027  17.714  0.00  0.00    +0.000 C 
ATOM      8  O   UNL     1       3.511   4.833  17.975  0.00  0.00    +0.000 OA
ATOM      9  N   UNL     1       4.470   6.458  16.706  0.00  0.00    +0.000 N 
ATOM     10  C   UNL     1       2.130   6.750  19.644  0.00  0.00    +0.000 C 
ATOM     11  C   UNL     1       0.753   7.493  19.598  0.00  0.00    +0.000 C 
ATOM     12  H   UNL     1       4.250   7.320  16.234  0.00  0.00    +0.000 HD
ENDROOT
BRANCH   9  13
ATOM     13  C   UNL     1       5.409   5.664  15.994  0.00  0.00    +0.000 A 
ATOM     14  C   UNL     1       5.085   5.023  14.795  0.00  0.00    +0.000 A 
ATOM     15  C   UNL     1       6.044   4.304  14.066  0.00  0.00    +0.000 A 
ATOM     16  C   UNL     1       7.346   4.199  14.575  0.00  0.00    +0.000 A 
ATOM     17  C   UNL     1       7.670   4.783  15.803  0.00  0.00    +0.000 A 
ATOM     18  C   UNL     1       6.704   5.505  16.510  0.00  0.00    +0.000 A 
ATOM     19 CL   UNL     1       7.151   6.195  18.033  0.00  0.00    +0.000 Cl
BRANCH  15  20
ATOM     20  C   UNL     1       5.671   3.666  12.751  0.00  0.00    +0.000 C 
ATOM     21  F   UNL     1       5.875   2.320  12.709  0.00  0.00    +0.000 F 
ATOM     22  F   UNL     1       4.359   3.854  12.436  0.00  0.00    +0.000 F 
ATOM     23  F   UNL     1       6.383   4.179  11.709  0.00  0.00    +0.000 F 
ENDBRANCH  15  20
ENDBRANCH   9  13
BRANCH  10  24
ATOM     24  C   UNL     1       1.965   5.305  20.103  0.00  0.00    +0.000 A 
ATOM     25  C   UNL     1       1.088   4.452  19.407  0.00  0.00    +0.000 A 
ATOM     26  C   UNL     1       0.846   3.150  19.857  0.00  0.00    +0.000 A 
ATOM     27  C   UNL     1       1.483   2.676  21.000  0.00  0.00    +0.000 A 
ATOM     28  C   UNL     1       2.375   3.496  21.687  0.00  0.00    +0.000 A 
ATOM     29  C   UNL     1       2.613   4.801  21.244  0.00  0.00    +0.000 A 
ENDBRANCH  10  24
BRANCH   1  30
ATOM     30  O   UNL     1      -0.466   9.714  20.775  0.00  0.00    +0.000 OA
BRANCH  30  32
ATOM     31  C   UNL     1       0.278  11.818  21.798  0.00  0.00    +0.000 C 
ATOM     32  C   UNL     1       0.101  10.305  21.976  0.00  0.00    +0.000 C 
ATOM     33  C   UNL     1       1.405   9.601  22.389  0.00  0.00    +0.000 C 
ATOM     34  C   UNL     1      -0.926  10.074  23.096  0.00  0.00    +0.000 C 
ENDBRANCH  30  32
ENDBRANCH   1  30
TORSDOF 5
ENDMDL
MODEL 3
REMARK VINA RESULT:      -6.8      2.044      2.486
REMARK  Name = 
REMARK  8 active torsions:
REMARK  status: ('A' for Active; 'I' for Inactive)
REMARK    1  A    between atoms: C_1  and  C_2
REMARK    2  A    between atoms: C_2  and  C_3
REMARK    3  A    between atoms: C_2  and  C_4
REMARK    4  A    between atoms: C_2  and  O_5
REMARK    5  A    between atoms: O_5  and  C_6
REMARK    6  A    between atoms: N_14  and  C_15
REMARK    7  A    between atoms: C_17  and  C_18
REMARK    8  A    between atoms: C_26  and  C_27
REMARK                            x       y       z     vdW  Elec       q    Type
REMARK                         _______ _______ _______ _____ _____    ______ ____
ROOT
ATOM      1  C   UNL     1       0.464  15.458  19.373  0.00  0.00    +0.000 C 
ATOM      2  O   UNL     1       1.444  16.069  19.782  0.00  0.00    +0.000 OA
ATOM      3  N   UNL     1       0.540  14.144  18.976  0.00  0.00    +0.000 N 
ATOM      4  C   UNL     1       1.822  13.467  19.081  0.00  0.00    +0.000 C 
ATOM      5  C   UNL     1       1.622  12.089  19.708  0.00  0.00    +0.000 C 
ATOM      6  N   UNL     1       0.721  11.284  18.867  0.00  0.00    +0.000 N 
ATOM      7  C   UNL     1       1.019  10.007  18.412  0.00  0.00    +0.000 C 
ATOM      8  O   UNL     1       0.259   9.361  17.697  0.00  0.00    +0.000 OA
ATOM      9  N   UNL     1       2.236   9.488  18.814  0.00  0.00    +0.000 N 
ATOM     10  C   UNL     1      -0.632  11.928  18.690  0.00  0.00    +0.000 C 
ATOM     11  C   UNL     1      -0.496  13.419  18.230  0.00  0.00    +0.000 C 
ATOM     12  H   UNL     1       2.988  10.128  19.012  0.00  0.00    +0.000 HD
ENDROOT
BRANCH   9  13
ATOM     13  C   UNL     1       2.683   8.150  18.636  0.00  0.00    +0.000 A 
ATOM     14  C   UNL     1       3.496   7.773  17.564  0.00  0.00    +0.000 A 
ATOM     15  C   UNL     1       3.988   6.465  17.443  0.00  0.00    +0.000 A 
ATOM     16  C   UNL     1       3.624   5.511  18.402  0.00  0.00    +0.000 A 
ATOM     17  C   UNL     1       2.763   5.856  19.447  0.00  0.00    +0.000 A 
ATOM     18  C   UNL     1       2.290   7.167  19.557  0.00  0.00    +0.000 A 
ATOM     19 CL   UNL     1       1.212   7.542  20.860  0.00  0.00    +0.000 Cl
BRANCH  15  20
ATOM     20  C   UNL     1       4.904   6.107  16.299  0.00  0.00    +0.000 C 
ATOM     21  F   UNL     1       4.801   6.938  15.225  0.00  0.00    +0.000 F 
ATOM     22  F   UNL     1       6.217   6.124  16.659  0.00  0.00    +0.000 F 
ATOM     23  F   UNL     1       4.664   4.855  15.819  0.00  0.00    +0.000 F 
ENDBRANCH  15  20
ENDBRANCH   9  13
BRANCH  10  24
ATOM     24  C   UNL     1      -1.683  11.189  17.868  0.00  0.00    +0.000 A 
ATOM     25  C   UNL     1      -1.879  11.535  16.518  0.00  0.00    +0.000 A 
ATOM     26  C   UNL     1      -2.895  10.939  15.764  0.00  0.00    +0.000 A 
ATOM     27  C   UNL     1      -3.724   9.982  16.343  0.00  0.00    +0.000 A 
ATOM     28  C   UNL     1      -3.528   9.606  17.669  0.00  0.00    +0.000 A 
ATOM     29  C   UNL     1      -2.518  10.206  18.427  0.00  0.00    +0.000 A 
ENDBRANCH  10  24
BRANCH   1  30
ATOM     30  O   UNL     1      -0.793  15.976  19.312  0.00  0.00    +0.000 OA
BRANCH  30  32
ATOM     31  C   UNL     1      -2.412  17.792  18.985  0.00  0.00    +0.000 C 
ATOM     32  C   UNL     1      -0.945  17.357  18.884  0.00  0.00    +0.000 C 
ATOM     33  C   UNL     1      -0.356  17.579  17.481  0.00  0.00    +0.000 C 
ATOM     34  C   UNL     1      -0.127  18.206  19.870  0.00  0.00    +0.000 C 
ENDBRANCH  30  32
ENDBRANCH   1  30
TORSDOF 5
ENDMDL
MODEL 4
REMARK VINA RESULT:      -6.8      1.796      2.205
REMARK  Name = 
REMARK  8 active torsions:
REMARK  status: ('A' for Active; 'I' for Inactive)
REMARK    1  A    between atoms: C_1  and  C_2
REMARK    2  A    between atoms: C_2  and  C_3
REMARK    3  A    between atoms: C_2  and  C_4
REMARK    4  A    between atoms: C_2  and  O_5
REMARK    5  A    between atoms: O_5  and  C_6
REMARK    6  A    between atoms: N_14  and  C_15
REMARK    7  A    between atoms: C_17  and  C_18
REMARK    8  A    between atoms: C_26  and  C_27
REMARK                            x       y       z     vdW  Elec       q    Type
REMARK                         _______ _______ _______ _____ _____    ______ ____
ROOT
ATOM      1  C   UNL     1       0.321  15.292  19.907  0.00  0.00    +0.000 C 
ATOM      2  O   UNL     1       1.274  15.876  20.411  0.00  0.00    +0.000 OA
ATOM      3  N   UNL     1       0.434  14.017  19.405  0.00  0.00    +0.000 N 
ATOM      4  C   UNL     1       1.718  13.347  19.511  0.00  0.00    +0.000 C 
ATOM      5  C   UNL     1       1.510  11.919  20.010  0.00  0.00    +0.000 C 
ATOM      6  N   UNL     1       0.659  11.179  19.063  0.00  0.00    +0.000 N 
ATOM      7  C   UNL     1       0.995   9.948  18.517  0.00  0.00    +0.000 C 
ATOM      8  O   UNL     1       0.277   9.357  17.716  0.00  0.00    +0.000 OA
ATOM      9  N   UNL     1       2.199   9.409  18.929  0.00  0.00    +0.000 N 
ATOM     10  C   UNL     1      -0.694  11.822  18.880  0.00  0.00    +0.000 C 
ATOM     11  C   UNL     1      -0.558  13.348  18.554  0.00  0.00    +0.000 C 
ATOM     12  H   UNL     1       2.933  10.038  19.214  0.00  0.00    +0.000 HD
ENDROOT
BRANCH   9  13
ATOM     13  C   UNL     1       2.672   8.096  18.659  0.00  0.00    +0.000 A 
ATOM     14  C   UNL     1       3.495   7.811  17.566  0.00  0.00    +0.000 A 
ATOM     15  C   UNL     1       4.013   6.524  17.356  0.00  0.00    +0.000 A 
ATOM     16  C   UNL     1       3.665   5.498  18.244  0.00  0.00    +0.000 A 
ATOM     17  C   UNL     1       2.795   5.753  19.308  0.00  0.00    +0.000 A 
ATOM     18  C   UNL     1       2.297   7.044  19.508  0.00  0.00    +0.000 A 
ATOM     19 CL   UNL     1       1.209   7.306  20.830  0.00  0.00    +0.000 Cl
BRANCH  15  20
ATOM     20  C   UNL     1       4.938   6.264  16.193  0.00  0.00    +0.000 C 
ATOM     21  F   UNL     1       4.845   5.005  15.681  0.00  0.00    +0.000 F 
ATOM     22  F   UNL     1       4.710   7.108  15.148  0.00  0.00    +0.000 F 
ATOM     23  F   UNL     1       6.247   6.430  16.529  0.00  0.00    +0.000 F 
ENDBRANCH  15  20
ENDBRANCH   9  13
BRANCH  10  24
ATOM     24  C   UNL     1      -1.696  11.145  17.952  0.00  0.00    +0.000 A 
ATOM     25  C   UNL     1      -1.845  11.610  16.632  0.00  0.00    +0.000 A 
ATOM     26  C   UNL     1      -2.819  11.070  15.786  0.00  0.00    +0.000 A 
ATOM     27  C   UNL     1      -3.651  10.051  16.240  0.00  0.00    +0.000 A 
ATOM     28  C   UNL     1      -3.501   9.558  17.533  0.00  0.00    +0.000 A 
ATOM     29  C   UNL     1      -2.533  10.102  18.384  0.00  0.00    +0.000 A 
ENDBRANCH  10  24
BRANCH   1  30
ATOM     30  O   UNL     1      -0.938  15.801  19.834  0.00  0.00    +0.000 OA
BRANCH  30  32
ATOM     31  C   UNL     1      -0.267  18.139  20.166  0.00  0.00    +0.000 C 
ATOM     32  C   UNL     1      -1.102  17.157  19.335  0.00  0.00    +0.000 C 
ATOM     33  C   UNL     1      -2.586  17.555  19.263  0.00  0.00    +0.000 C 
ATOM     34  C   UNL     1      -0.551  17.158  17.900  0.00  0.00    +0.000 C 
ENDBRANCH  30  32
ENDBRANCH   1  30
TORSDOF 5
ENDMDL
MODEL 5
REMARK VINA RESULT:      -6.8      0.348      1.123
REMARK  Name = 
REMARK  8 active torsions:
REMARK  status: ('A' for Active; 'I' for Inactive)
REMARK    1  A    between atoms: C_1  and  C_2
REMARK    2  A    between atoms: C_2  and  C_3
REMARK    3  A    between atoms: C_2  and  C_4
REMARK    4  A    between atoms: C_2  and  O_5
REMARK    5  A    between atoms: O_5  and  C_6
REMARK    6  A    between atoms: N_14  and  C_15
REMARK    7  A    between atoms: C_17  and  C_18
REMARK    8  A    between atoms: C_26  and  C_27
REMARK                            x       y       z     vdW  Elec       q    Type
REMARK                         _______ _______ _______ _____ _____    ______ ____
ROOT
ATOM      1  C   UNL     1      -0.253  14.550  21.327  0.00  0.00    +0.000 C 
ATOM      2  O   UNL     1       0.600  15.007  22.080  0.00  0.00    +0.000 OA
ATOM      3  N   UNL     1      -0.029  13.419  20.577  0.00  0.00    +0.000 N 
ATOM      4  C   UNL     1       1.249  12.742  20.717  0.00  0.00    +0.000 C 
ATOM      5  C   UNL     1       1.020  11.239  20.852  0.00  0.00    +0.000 C 
ATOM      6  N   UNL     1       0.335  10.729  19.654  0.00  0.00    +0.000 N 
ATOM      7  C   UNL     1       0.784   9.651  18.903  0.00  0.00    +0.000 C 
ATOM      8  O   UNL     1       0.205   9.254  17.897  0.00  0.00    +0.000 OA
ATOM      9  N   UNL     1       1.936   9.035  19.355  0.00  0.00    +0.000 N 
ATOM     10  C   UNL     1      -0.999  11.396  19.423  0.00  0.00    +0.000 C 
ATOM     11  C   UNL     1      -0.869  12.956  19.466  0.00  0.00    +0.000 C 
ATOM     12  H   UNL     1       2.601   9.585  19.875  0.00  0.00    +0.000 HD
ENDROOT
BRANCH   9  13
ATOM     13  C   UNL     1       2.485   7.815  18.873  0.00  0.00    +0.000 A 
ATOM     14  C   UNL     1       3.336   7.768  17.766  0.00  0.00    +0.000 A 
ATOM     15  C   UNL     1       3.928   6.567  17.348  0.00  0.00    +0.000 A 
ATOM     16  C   UNL     1       3.626   5.385  18.038  0.00  0.00    +0.000 A 
ATOM     17  C   UNL     1       2.729   5.405  19.109  0.00  0.00    +0.000 A 
ATOM     18  C   UNL     1       2.157   6.613  19.518  0.00  0.00    +0.000 A 
ATOM     19 CL   UNL     1       1.040   6.583  20.840  0.00  0.00    +0.000 Cl
BRANCH  15  20
ATOM     20  C   UNL     1       4.881   6.562  16.179  0.00  0.00    +0.000 C 
ATOM     21  F   UNL     1       4.494   7.360  15.144  0.00  0.00    +0.000 F 
ATOM     22  F   UNL     1       6.130   6.981  16.524  0.00  0.00    +0.000 F 
ATOM     23  F   UNL     1       5.037   5.318  15.646  0.00  0.00    +0.000 F 
ENDBRANCH  15  20
ENDBRANCH   9  13
BRANCH  10  24
ATOM     24  C   UNL     1      -1.839  10.943  18.234  0.00  0.00    +0.000 A 
ATOM     25  C   UNL     1      -2.675   9.818  18.363  0.00  0.00    +0.000 A 
ATOM     26  C   UNL     1      -3.388   9.324  17.266  0.00  0.00    +0.000 A 
ATOM     27  C   UNL     1      -3.285   9.950  16.027  0.00  0.00    +0.000 A 
ATOM     28  C   UNL     1      -2.484  11.079  15.886  0.00  0.00    +0.000 A 
ATOM     29  C   UNL     1      -1.765  11.571  16.979  0.00  0.00    +0.000 A 
ENDBRANCH  10  24
BRANCH   1  30
ATOM     30  O   UNL     1      -1.506  15.061  21.187  0.00  0.00    +0.000 OA
BRANCH  30  32
ATOM     31  C   UNL     1      -2.480  16.071  23.202  0.00  0.00    +0.000 C 
ATOM     32  C   UNL     1      -2.456  14.854  22.268  0.00  0.00    +0.000 C 
ATOM     33  C   UNL     1      -2.179  13.539  23.016  0.00  0.00    +0.000 C 
ATOM     34  C   UNL     1      -3.838  14.731  21.609  0.00  0.00    +0.000 C 
ENDBRANCH  30  32
ENDBRANCH   1  30
TORSDOF 5
ENDMDL
MODEL 6
REMARK VINA RESULT:      -6.8      0.978      1.457
REMARK  Name = 
REMARK  8 active torsions:
REMARK  status: ('A' for Active; 'I' for Inactive)
REMARK    1  A    between atoms: C_1  and  C_2
REMARK    2  A    between atoms: C_2  and  C_3
REMARK    3  A    between atoms: C_2  and  C_4
REMARK    4  A    between atoms: C_2  and  O_5
REMARK    5  A    between atoms: O_5  and  C_6
REMARK    6  A    between atoms: N_14  and  C_15
REMARK    7  A    between atoms: C_17  and  C_18
REMARK    8  A    between atoms: C_26  and  C_27
REMARK                            x       y       z     vdW  Elec       q    Type
REMARK                         _______ _______ _______ _____ _____    ______ ____
ROOT
ATOM      1  C   UNL     1      -0.223  14.405  21.398  0.00  0.00    +0.000 C 
ATOM      2  O   UNL     1       0.630  14.857  22.153  0.00  0.00    +0.000 OA
ATOM      3  N   UNL     1       0.005  13.287  20.631  0.00  0.00    +0.000 N 
ATOM      4  C   UNL     1       1.289  12.618  20.754  0.00  0.00    +0.000 C 
ATOM      5  C   UNL     1       1.072  11.111  20.869  0.00  0.00    +0.000 C 
ATOM      6  N   UNL     1       0.384  10.613  19.667  0.00  0.00    +0.000 N 
ATOM      7  C   UNL     1       0.837   9.550  18.899  0.00  0.00    +0.000 C 
ATOM      8  O   UNL     1       0.256   9.162  17.889  0.00  0.00    +0.000 OA
ATOM      9  N   UNL     1       1.996   8.935  19.336  0.00  0.00    +0.000 N 
ATOM     10  C   UNL     1      -0.956  11.274  19.453  0.00  0.00    +0.000 C 
ATOM     11  C   UNL     1      -0.837  12.833  19.517  0.00  0.00    +0.000 C 
ATOM     12  H   UNL     1       2.660   9.482  19.860  0.00  0.00    +0.000 HD
ENDROOT
BRANCH   9  13
ATOM     13  C   UNL     1       2.551   7.727  18.834  0.00  0.00    +0.000 A 
ATOM     14  C   UNL     1       3.399   7.702  17.722  0.00  0.00    +0.000 A 
ATOM     15  C   UNL     1       3.997   6.511  17.284  0.00  0.00    +0.000 A 
ATOM     16  C   UNL     1       3.706   5.317  17.957  0.00  0.00    +0.000 A 
ATOM     17  C   UNL     1       2.813   5.315  19.032  0.00  0.00    +0.000 A 
ATOM     18  C   UNL     1       2.234   6.513  19.462  0.00  0.00    +0.000 A 
ATOM     19 CL   UNL     1       1.122   6.456  20.787  0.00  0.00    +0.000 Cl
BRANCH  15  20
ATOM     20  C   UNL     1       4.945   6.530  16.111  0.00  0.00    +0.000 C 
ATOM     21  F   UNL     1       4.557   7.353  15.097  0.00  0.00    +0.000 F 
ATOM     22  F   UNL     1       6.197   6.937  16.462  0.00  0.00    +0.000 F 
ATOM     23  F   UNL     1       5.095   5.299  15.550  0.00  0.00    +0.000 F 
ENDBRANCH  15  20
ENDBRANCH   9  13
BRANCH  10  24
ATOM     24  C   UNL     1      -1.798  10.831  18.262  0.00  0.00    +0.000 A 
ATOM     25  C   UNL     1      -1.747  11.567  17.063  0.00  0.00    +0.000 A 
ATOM     26  C   UNL     1      -2.575  11.240  15.984  0.00  0.00    +0.000 A 
ATOM     27  C   UNL     1      -3.458  10.169  16.081  0.00  0.00    +0.000 A 
ATOM     28  C   UNL     1      -3.503   9.411  17.248  0.00  0.00    +0.000 A 
ATOM     29  C   UNL     1      -2.683   9.740  18.331  0.00  0.00    +0.000 A 
ENDBRANCH  10  24
BRANCH   1  30
ATOM     30  O   UNL     1      -1.480  14.909  21.272  0.00  0.00    +0.000 OA
BRANCH  30  32
ATOM     31  C   UNL     1      -0.791  16.538  19.569  0.00  0.00    +0.000 C 
ATOM     32  C   UNL     1      -1.624  16.287  20.831  0.00  0.00    +0.000 C 
ATOM     33  C   UNL     1      -1.298  17.277  21.963  0.00  0.00    +0.000 C 
ATOM     34  C   UNL     1      -3.106  16.470  20.468  0.00  0.00    +0.000 C 
ENDBRANCH  30  32
ENDBRANCH   1  30
TORSDOF 5
ENDMDL
MODEL 7
REMARK VINA RESULT:      -6.7      3.265      5.746
REMARK  Name = 
REMARK  8 active torsions:
REMARK  status: ('A' for Active; 'I' for Inactive)
REMARK    1  A    between atoms: C_1  and  C_2
REMARK    2  A    between atoms: C_2  and  C_3
REMARK    3  A    between atoms: C_2  and  C_4
REMARK    4  A    between atoms: C_2  and  O_5
REMARK    5  A    between atoms: O_5  and  C_6
REMARK    6  A    between atoms: N_14  and  C_15
REMARK    7  A    between atoms: C_17  and  C_18
REMARK    8  A    between atoms: C_26  and  C_27
REMARK                            x       y       z     vdW  Elec       q    Type
REMARK                         _______ _______ _______ _____ _____    ______ ____
ROOT
ATOM      1  C   UNL     1       0.124  10.086  19.490  0.00  0.00    +0.000 C 
ATOM      2  O   UNL     1       0.133  11.143  18.869  0.00  0.00    +0.000 OA
ATOM      3  N   UNL     1       0.833   8.988  19.065  0.00  0.00    +0.000 N 
ATOM      4  C   UNL     1       1.637   9.111  17.861  0.00  0.00    +0.000 C 
ATOM      5  C   UNL     1       3.016   8.501  18.101  0.00  0.00    +0.000 C 
ATOM      6  N   UNL     1       2.878   7.076  18.442  0.00  0.00    +0.000 N 
ATOM      7  C   UNL     1       3.564   6.054  17.800  0.00  0.00    +0.000 C 
ATOM      8  O   UNL     1       3.421   4.871  18.091  0.00  0.00    +0.000 OA
ATOM      9  N   UNL     1       4.436   6.444  16.800  0.00  0.00    +0.000 N 
ATOM     10  C   UNL     1       2.038   6.857  19.677  0.00  0.00    +0.000 C 
ATOM     11  C   UNL     1       0.675   7.622  19.579  0.00  0.00    +0.000 C 
ATOM     12  H   UNL     1       4.241   7.296  16.301  0.00  0.00    +0.000 HD
ENDROOT
BRANCH   9  13
ATOM     13  C   UNL     1       5.376   5.614  16.131  0.00  0.00    +0.000 A 
ATOM     14  C   UNL     1       5.106   5.033  14.889  0.00  0.00    +0.000 A 
ATOM     15  C   UNL     1       6.072   4.278  14.208  0.00  0.00    +0.000 A 
ATOM     16  C   UNL     1       7.321   4.073  14.808  0.00  0.00    +0.000 A 
ATOM     17  C   UNL     1       7.587   4.596  16.077  0.00  0.00    +0.000 A 
ATOM     18  C   UNL     1       6.615   5.355  16.736  0.00  0.00    +0.000 A 
ATOM     19 CL   UNL     1       6.986   5.967  18.313  0.00  0.00    +0.000 Cl
BRANCH  15  20
ATOM     20  C   UNL     1       5.762   3.708  12.846  0.00  0.00    +0.000 C 
ATOM     21  F   UNL     1       5.964   2.364  12.748  0.00  0.00    +0.000 F 
ATOM     22  F   UNL     1       4.467   3.917  12.477  0.00  0.00    +0.000 F 
ATOM     23  F   UNL     1       6.525   4.267  11.867  0.00  0.00    +0.000 F 
ENDBRANCH  15  20
ENDBRANCH   9  13
BRANCH  10  24
ATOM     24  C   UNL     1       1.837   5.428  20.171  0.00  0.00    +0.000 A 
ATOM     25  C   UNL     1       2.606   4.952  21.249  0.00  0.00    +0.000 A 
ATOM     26  C   UNL     1       2.510   3.621  21.667  0.00  0.00    +0.000 A 
ATOM     27  C   UNL     1       1.638   2.748  21.022  0.00  0.00    +0.000 A 
ATOM     28  C   UNL     1       0.849   3.207  19.971  0.00  0.00    +0.000 A 
ATOM     29  C   UNL     1       0.948   4.536  19.547  0.00  0.00    +0.000 A 
ENDBRANCH  10  24
BRANCH   1  30
ATOM     30  O   UNL     1      -0.529   9.895  20.667  0.00  0.00    +0.000 OA
BRANCH  30  32
ATOM     31  C   UNL     1      -1.125  11.170  22.679  0.00  0.00    +0.000 C 
ATOM     32  C   UNL     1       0.005  10.534  21.859  0.00  0.00    +0.000 C 
ATOM     33  C   UNL     1       1.119  11.535  21.509  0.00  0.00    +0.000 C 
ATOM     34  C   UNL     1       0.634   9.415  22.703  0.00  0.00    +0.000 C 
ENDBRANCH  30  32
ENDBRANCH   1  30
TORSDOF 5
ENDMDL
MODEL 8
REMARK VINA RESULT:      -6.7      2.235      2.671
REMARK  Name = 
REMARK  8 active torsions:
REMARK  status: ('A' for Active; 'I' for Inactive)
REMARK    1  A    between atoms: C_1  and  C_2
REMARK    2  A    between atoms: C_2  and  C_3
REMARK    3  A    between atoms: C_2  and  C_4
REMARK    4  A    between atoms: C_2  and  O_5
REMARK    5  A    between atoms: O_5  and  C_6
REMARK    6  A    between atoms: N_14  and  C_15
REMARK    7  A    between atoms: C_17  and  C_18
REMARK    8  A    between atoms: C_26  and  C_27
REMARK                            x       y       z     vdW  Elec       q    Type
REMARK                         _______ _______ _______ _____ _____    ______ ____
ROOT
ATOM      1  C   UNL     1       0.973  15.847  18.941  0.00  0.00    +0.000 C 
ATOM      2  O   UNL     1       2.046  16.333  19.281  0.00  0.00    +0.000 OA
ATOM      3  N   UNL     1       0.804  14.490  18.793  0.00  0.00    +0.000 N 
ATOM      4  C   UNL     1       1.933  13.621  19.081  0.00  0.00    +0.000 C 
ATOM      5  C   UNL     1       1.468  12.445  19.936  0.00  0.00    +0.000 C 
ATOM      6  N   UNL     1       0.443  11.677  19.211  0.00  0.00    +0.000 N 
ATOM      7  C   UNL     1       0.499  10.304  19.011  0.00  0.00    +0.000 C 
ATOM      8  O   UNL     1      -0.360   9.687  18.388  0.00  0.00    +0.000 OA
ATOM      9  N   UNL     1       1.590   9.655  19.558  0.00  0.00    +0.000 N 
ATOM     10  C   UNL     1      -0.762  12.513  18.856  0.00  0.00    +0.000 C 
ATOM     11  C   UNL     1      -0.340  13.841  18.141  0.00  0.00    +0.000 C 
ATOM     12  H   UNL     1       2.447  10.172  19.672  0.00  0.00    +0.000 HD
ENDROOT
BRANCH   9  13
ATOM     13  C   UNL     1       1.778   8.249  19.646  0.00  0.00    +0.000 A 
ATOM     14  C   UNL     1       2.495   7.532  18.685  0.00  0.00    +0.000 A 
ATOM     15  C   UNL     1       2.734   6.157  18.825  0.00  0.00    +0.000 A 
ATOM     16  C   UNL     1       2.209   5.485  19.937  0.00  0.00    +0.000 A 
ATOM     17  C   UNL     1       1.438   6.176  20.876  0.00  0.00    +0.000 A 
ATOM     18  C   UNL     1       1.219   7.549  20.725  0.00  0.00    +0.000 A 
ATOM     19 CL   UNL     1       0.244   8.356  21.907  0.00  0.00    +0.000 Cl
BRANCH  15  20
ATOM     20  C   UNL     1       3.555   5.424  17.792  0.00  0.00    +0.000 C 
ATOM     21  F   UNL     1       4.659   4.806  18.298  0.00  0.00    +0.000 F 
ATOM     22  F   UNL     1       2.843   4.453  17.155  0.00  0.00    +0.000 F 
ATOM     23  F   UNL     1       4.013   6.255  16.815  0.00  0.00    +0.000 F 
ENDBRANCH  15  20
ENDBRANCH   9  13
BRANCH  10  24
ATOM     24  C   UNL     1      -1.922  11.840  18.132  0.00  0.00    +0.000 A 
ATOM     25  C   UNL     1      -1.821  11.575  16.754  0.00  0.00    +0.000 A 
ATOM     26  C   UNL     1      -2.902  11.041  16.044  0.00  0.00    +0.000 A 
ATOM     27  C   UNL     1      -4.095  10.754  16.700  0.00  0.00    +0.000 A 
ATOM     28  C   UNL     1      -4.206  10.984  18.069  0.00  0.00    +0.000 A 
ATOM     29  C   UNL     1      -3.130  11.524  18.780  0.00  0.00    +0.000 A 
ENDBRANCH  10  24
BRANCH   1  30
ATOM     30  O   UNL     1      -0.162  16.566  18.728  0.00  0.00    +0.000 OA
BRANCH  30  32
ATOM     31  C   UNL     1      -2.275  17.469  19.594  0.00  0.00    +0.000 C 
ATOM     32  C   UNL     1      -0.787  17.215  19.869  0.00  0.00    +0.000 C 
ATOM     33  C   UNL     1      -0.033  18.492  20.274  0.00  0.00    +0.000 C 
ATOM     34  C   UNL     1      -0.681  16.224  21.039  0.00  0.00    +0.000 C 
ENDBRANCH  30  32
ENDBRANCH   1  30
TORSDOF 5
ENDMDL
MODEL 9
REMARK VINA RESULT:      -6.6      1.034      1.648
REMARK  Name = 
REMARK  8 active torsions:
REMARK  status: ('A' for Active; 'I' for Inactive)
REMARK    1  A    between atoms: C_1  and  C_2
REMARK    2  A    between atoms: C_2  and  C_3
REMARK    3  A    between atoms: C_2  and  C_4
REMARK    4  A    between atoms: C_2  and  O_5
REMARK    5  A    between atoms: O_5  and  C_6
REMARK    6  A    between atoms: N_14  and  C_15
REMARK    7  A    between atoms: C_17  and  C_18
REMARK    8  A    between atoms: C_26  and  C_27
REMARK                            x       y       z     vdW  Elec       q    Type
REMARK                         _______ _______ _______ _____ _____    ______ ____
ROOT
ATOM      1  C   UNL     1       0.100  15.236  20.258  0.00  0.00    +0.000 C 
ATOM      2  O   UNL     1       1.026  15.802  20.828  0.00  0.00    +0.000 OA
ATOM      3  N   UNL     1       0.246  13.989  19.697  0.00  0.00    +0.000 N 
ATOM      4  C   UNL     1       1.532  13.325  19.820  0.00  0.00    +0.000 C 
ATOM      5  C   UNL     1       1.320  11.872  20.238  0.00  0.00    +0.000 C 
ATOM      6  N   UNL     1       0.515  11.174  19.223  0.00  0.00    +0.000 N 
ATOM      7  C   UNL     1       0.885   9.975  18.629  0.00  0.00    +0.000 C 
ATOM      8  O   UNL     1       0.204   9.419  17.772  0.00  0.00    +0.000 OA
ATOM      9  N   UNL     1       2.078   9.426  19.061  0.00  0.00    +0.000 N 
ATOM     10  C   UNL     1      -0.837  11.814  19.018  0.00  0.00    +0.000 C 
ATOM     11  C   UNL     1      -0.704  13.355  18.775  0.00  0.00    +0.000 C 
ATOM     12  H   UNL     1       2.793  10.046  19.406  0.00  0.00    +0.000 HD
ENDROOT
BRANCH   9  13
ATOM     13  C   UNL     1       2.575   8.133  18.745  0.00  0.00    +0.000 A 
ATOM     14  C   UNL     1       3.415   7.904  17.652  0.00  0.00    +0.000 A 
ATOM     15  C   UNL     1       3.956   6.636  17.397  0.00  0.00    +0.000 A 
ATOM     16  C   UNL     1       3.614   5.569  18.238  0.00  0.00    +0.000 A 
ATOM     17  C   UNL     1       2.726   5.767  19.299  0.00  0.00    +0.000 A 
ATOM     18  C   UNL     1       2.205   7.041  19.545  0.00  0.00    +0.000 A 
ATOM     19 CL   UNL     1       1.097   7.232  20.862  0.00  0.00    +0.000 Cl
BRANCH  15  20
ATOM     20  C   UNL     1       4.900   6.437  16.236  0.00  0.00    +0.000 C 
ATOM     21  F   UNL     1       4.941   5.159  15.767  0.00  0.00    +0.000 F 
ATOM     22  F   UNL     1       4.580   7.217  15.167  0.00  0.00    +0.000 F 
ATOM     23  F   UNL     1       6.185   6.752  16.558  0.00  0.00    +0.000 F 
ENDBRANCH  15  20
ENDBRANCH   9  13
BRANCH  10  24
ATOM     24  C   UNL     1      -1.795  11.175  18.019  0.00  0.00    +0.000 A 
ATOM     25  C   UNL     1      -2.604  10.097  18.423  0.00  0.00    +0.000 A 
ATOM     26  C   UNL     1      -3.426   9.433  17.507  0.00  0.00    +0.000 A 
ATOM     27  C   UNL     1      -3.461   9.841  16.177  0.00  0.00    +0.000 A 
ATOM     28  C   UNL     1      -2.689  10.923  15.763  0.00  0.00    +0.000 A 
ATOM     29  C   UNL     1      -1.861  11.584  16.675  0.00  0.00    +0.000 A 
ENDBRANCH  10  24
BRANCH   1  30
ATOM     30  O   UNL     1      -1.161  15.737  20.160  0.00  0.00    +0.000 OA
BRANCH  30  32
ATOM     31  C   UNL     1      -1.548  14.584  22.293  0.00  0.00    +0.000 C 
ATOM     32  C   UNL     1      -2.009  15.694  21.340  0.00  0.00    +0.000 C 
ATOM     33  C   UNL     1      -3.494  15.570  20.962  0.00  0.00    +0.000 C 
ATOM     34  C   UNL     1      -1.823  17.043  22.054  0.00  0.00    +0.000 C 
ENDBRANCH  30  32
ENDBRANCH   1  30
TORSDOF 5
ENDMDL
