MODEL 1
REMARK VINA RESULT:      -9.3      0.000      0.000
REMARK  Name = 
REMARK  3 active torsions:
REMARK  status: ('A' for Active; 'I' for Inactive)
REMARK    1  A    between atoms: C_1  and  C_2
REMARK    2  A    between atoms: C_4  and  N_5
REMARK    3  A    between atoms: N_5  and  C_6
REMARK                            x       y       z     vdW  Elec       q    Type
REMARK                         _______ _______ _______ _____ _____    ______ ____
ROOT
ATOM      1  C   UNL     1       1.954   3.644  21.554  0.00  0.00    +0.000 C 
ATOM      2  C   UNL     1       2.493   4.590  20.523  0.00  0.00    +0.000 A 
ATOM      3  C   UNL     1       1.894   5.904  20.418  0.00  0.00    +0.000 A 
ATOM      4  C   UNL     1       2.292   6.820  19.514  0.00  0.00    +0.000 A 
ATOM      5  C   UNL     1       3.465   6.468  18.599  0.00  0.00    +0.000 A 
ATOM      6  O   UNL     1       3.886   7.298  17.794  0.00  0.00    +0.000 OA
ATOM      7  N   UNL     1       3.972   5.195  18.749  0.00  0.00    +0.000 N 
ATOM      8  C   UNL     1       3.496   4.298  19.688  0.00  0.00    +0.000 A 
ATOM      9  C   UNL     1       4.278   3.044  19.598  0.00  0.00    +0.000 C 
ATOM     10  O   UNL     1       4.154   2.029  20.256  0.00  0.00    +0.000 OA
ATOM     11  N   UNL     1       5.192   3.267  18.598  0.00  0.00    +0.000 N 
ATOM     12  C   UNL     1       5.075   4.584  17.986  0.00  0.00    +0.000 C 
ATOM     13  C   UNL     1       4.735   4.415  16.490  0.00  0.00    +0.000 C 
ATOM     14  C   UNL     1       5.893   3.793  15.699  0.00  0.00    +0.000 C 
ATOM     15  C   UNL     1       7.190   4.575  15.890  0.00  0.00    +0.000 C 
ATOM     16  C   UNL     1       7.547   4.725  17.365  0.00  0.00    +0.000 C 
ATOM     17  C   UNL     1       6.400   5.351  18.164  0.00  0.00    +0.000 C 
ATOM     18  H   UNL     1       5.855   2.552  18.333  0.00  0.00    +0.000 HD
ENDROOT
BRANCH   4  19
ATOM     19  N   UNL     1       1.723   8.084  19.377  0.00  0.00    +0.000 N 
ATOM     20  H   UNL     1       1.204   8.175  18.501  0.00  0.00    +0.000 HD
BRANCH  19  21
ATOM     21  C   UNL     1       1.123   8.815  20.433  0.00  0.00    +0.000 A 
ATOM     22  C   UNL     1       1.435   8.601  21.779  0.00  0.00    +0.000 A 
ATOM     23  C   UNL     1       0.862   9.410  22.747  0.00  0.00    +0.000 A 
ATOM     24  N   UNL     1       0.002  10.410  22.472  0.00  0.00    +0.000 NA
ATOM     25  C   UNL     1      -0.298  10.601  21.170  0.00  0.00    +0.000 A 
ATOM     26  C   UNL     1       0.228   9.843  20.132  0.00  0.00    +0.000 A 
ENDBRANCH  19  21
ENDBRANCH   4  19
TORSDOF 2
ENDMDL
MODEL 2
REMARK VINA RESULT:      -8.6      1.386      1.737
REMARK  Name = 
REMARK  3 active torsions:
REMARK  status: ('A' for Active; 'I' for Inactive)
REMARK    1  A    between atoms: C_1  and  C_2
REMARK    2  A    between atoms: C_4  and  N_5
REMARK    3  A    between atoms: N_5  and  C_6
REMARK                            x       y       z     vdW  Elec       q    Type
REMARK                         _______ _______ _______ _____ _____    ______ ____
ROOT
ATOM      1  C   UNL     1       1.302   2.678  20.345  0.00  0.00    +0.000 C 
ATOM      2  C   UNL     1       2.109   3.850  19.875  0.00  0.00    +0.000 A 
ATOM      3  C   UNL     1       1.817   5.153  20.434  0.00  0.00    +0.000 A 
ATOM      4  C   UNL     1       2.471   6.272  20.066  0.00  0.00    +0.000 A 
ATOM      5  C   UNL     1       3.609   6.142  19.052  0.00  0.00    +0.000 A 
ATOM      6  O   UNL     1       4.258   7.135  18.728  0.00  0.00    +0.000 OA
ATOM      7  N   UNL     1       3.816   4.873  18.554  0.00  0.00    +0.000 N 
ATOM      8  C   UNL     1       3.088   3.771  18.966  0.00  0.00    +0.000 A 
ATOM      9  C   UNL     1       3.586   2.571  18.257  0.00  0.00    +0.000 C 
ATOM     10  O   UNL     1       3.196   1.423  18.353  0.00  0.00    +0.000 OA
ATOM     11  N   UNL     1       4.600   3.029  17.455  0.00  0.00    +0.000 N 
ATOM     12  C   UNL     1       4.817   4.466  17.552  0.00  0.00    +0.000 C 
ATOM     13  C   UNL     1       4.566   5.109  16.172  0.00  0.00    +0.000 C 
ATOM     14  C   UNL     1       5.620   4.693  15.138  0.00  0.00    +0.000 C 
ATOM     15  C   UNL     1       7.036   4.975  15.633  0.00  0.00    +0.000 C 
ATOM     16  C   UNL     1       7.302   4.323  16.986  0.00  0.00    +0.000 C 
ATOM     17  C   UNL     1       6.259   4.735  18.028  0.00  0.00    +0.000 C 
ATOM     18  H   UNL     1       5.113   2.396  16.855  0.00  0.00    +0.000 HD
ENDROOT
BRANCH   4  19
ATOM     19  N   UNL     1       2.200   7.540  20.572  0.00  0.00    +0.000 N 
ATOM     20  H   UNL     1       3.022   7.960  21.011  0.00  0.00    +0.000 HD
BRANCH  19  21
ATOM     21  C   UNL     1       1.387   8.507  19.927  0.00  0.00    +0.000 A 
ATOM     22  C   UNL     1       1.519   8.832  18.574  0.00  0.00    +0.000 A 
ATOM     23  C   UNL     1       0.634   9.731  18.002  0.00  0.00    +0.000 A 
ATOM     24  N   UNL     1      -0.365  10.329  18.677  0.00  0.00    +0.000 NA
ATOM     25  C   UNL     1      -0.478  10.014  19.984  0.00  0.00    +0.000 A 
ATOM     26  C   UNL     1       0.359   9.124  20.644  0.00  0.00    +0.000 A 
ENDBRANCH  19  21
ENDBRANCH   4  19
TORSDOF 2
ENDMDL
MODEL 3
REMARK VINA RESULT:      -8.4      1.288      1.539
REMARK  Name = 
REMARK  3 active torsions:
REMARK  status: ('A' for Active; 'I' for Inactive)
REMARK    1  A    between atoms: C_1  and  C_2
REMARK    2  A    between atoms: C_4  and  N_5
REMARK    3  A    between atoms: N_5  and  C_6
REMARK                            x       y       z     vdW  Elec       q    Type
REMARK                         _______ _______ _______ _____ _____    ______ ____
ROOT
ATOM      1  C   UNL     1       1.460   4.750  20.855  0.00  0.00    +0.000 C 
ATOM      2  C   UNL     1       2.233   5.498  19.812  0.00  0.00    +0.000 A 
ATOM      3  C   UNL     1       1.852   6.865  19.525  0.00  0.00    +0.000 A 
ATOM      4  C   UNL     1       2.470   7.618  18.594  0.00  0.00    +0.000 A 
ATOM      5  C   UNL     1       3.661   7.012  17.851  0.00  0.00    +0.000 A 
ATOM      6  O   UNL     1       4.278   7.687  17.028  0.00  0.00    +0.000 OA
ATOM      7  N   UNL     1       3.953   5.702  18.168  0.00  0.00    +0.000 N 
ATOM      8  C   UNL     1       3.258   4.984  19.124  0.00  0.00    +0.000 A 
ATOM      9  C   UNL     1       3.847   3.630  19.232  0.00  0.00    +0.000 C 
ATOM     10  O   UNL     1       3.508   2.716  19.960  0.00  0.00    +0.000 OA
ATOM     11  N   UNL     1       4.878   3.618  18.326  0.00  0.00    +0.000 N 
ATOM     12  C   UNL     1       5.021   4.867  17.590  0.00  0.00    +0.000 C 
ATOM     13  C   UNL     1       4.808   4.594  16.086  0.00  0.00    +0.000 C 
ATOM     14  C   UNL     1       5.931   3.737  15.489  0.00  0.00    +0.000 C 
ATOM     15  C   UNL     1       7.306   4.344  15.754  0.00  0.00    +0.000 C 
ATOM     16  C   UNL     1       7.535   4.595  17.241  0.00  0.00    +0.000 C 
ATOM     17  C   UNL     1       6.423   5.455  17.847  0.00  0.00    +0.000 C 
ATOM     18  H   UNL     1       5.449   2.793  18.201  0.00  0.00    +0.000 HD
ENDROOT
BRANCH   4  19
ATOM     19  N   UNL     1       2.114   8.928  18.283  0.00  0.00    +0.000 N 
ATOM     20  H   UNL     1       2.302   9.152  17.303  0.00  0.00    +0.000 HD
BRANCH  19  21
ATOM     21  C   UNL     1       0.955   9.583  18.769  0.00  0.00    +0.000 A 
ATOM     22  C   UNL     1       0.903  10.212  20.016  0.00  0.00    +0.000 A 
ATOM     23  C   UNL     1      -0.244  10.897  20.386  0.00  0.00    +0.000 A 
ATOM     24  N   UNL     1      -1.338  10.997  19.607  0.00  0.00    +0.000 NA
ATOM     25  C   UNL     1      -1.279  10.380  18.408  0.00  0.00    +0.000 A 
ATOM     26  C   UNL     1      -0.174   9.672  17.952  0.00  0.00    +0.000 A 
ENDBRANCH  19  21
ENDBRANCH   4  19
TORSDOF 2
ENDMDL
MODEL 4
REMARK VINA RESULT:      -7.8      2.652      7.452
REMARK  Name = 
REMARK  3 active torsions:
REMARK  status: ('A' for Active; 'I' for Inactive)
REMARK    1  A    between atoms: C_1  and  C_2
REMARK    2  A    between atoms: C_4  and  N_5
REMARK    3  A    between atoms: N_5  and  C_6
REMARK                            x       y       z     vdW  Elec       q    Type
REMARK                         _______ _______ _______ _____ _____    ______ ____
ROOT
ATOM      1  C   UNL     1       4.239   8.150  17.067  0.00  0.00    +0.000 C 
ATOM      2  C   UNL     1       4.216   6.669  17.296  0.00  0.00    +0.000 A 
ATOM      3  C   UNL     1       5.054   5.834  16.460  0.00  0.00    +0.000 A 
ATOM      4  C   UNL     1       5.093   4.491  16.572  0.00  0.00    +0.000 A 
ATOM      5  C   UNL     1       4.254   3.834  17.668  0.00  0.00    +0.000 A 
ATOM      6  O   UNL     1       4.302   2.615  17.829  0.00  0.00    +0.000 OA
ATOM      7  N   UNL     1       3.472   4.693  18.411  0.00  0.00    +0.000 N 
ATOM      8  C   UNL     1       3.469   6.063  18.225  0.00  0.00    +0.000 A 
ATOM      9  C   UNL     1       2.545   6.681  19.203  0.00  0.00    +0.000 C 
ATOM     10  O   UNL     1       2.276   7.859  19.347  0.00  0.00    +0.000 OA
ATOM     11  N   UNL     1       2.046   5.630  19.932  0.00  0.00    +0.000 N 
ATOM     12  C   UNL     1       2.552   4.333  19.505  0.00  0.00    +0.000 C 
ATOM     13  C   UNL     1       1.371   3.466  19.020  0.00  0.00    +0.000 C 
ATOM     14  C   UNL     1       0.425   3.083  20.165  0.00  0.00    +0.000 C 
ATOM     15  C   UNL     1       1.174   2.410  21.312  0.00  0.00    +0.000 C 
ATOM     16  C   UNL     1       2.328   3.271  21.815  0.00  0.00    +0.000 C 
ATOM     17  C   UNL     1       3.282   3.655  20.681  0.00  0.00    +0.000 C 
ATOM     18  H   UNL     1       1.380   5.786  20.676  0.00  0.00    +0.000 HD
ENDROOT
BRANCH   4  19
ATOM     19  N   UNL     1       5.873   3.662  15.771  0.00  0.00    +0.000 N 
ATOM     20  H   UNL     1       5.577   2.685  15.832  0.00  0.00    +0.000 HD
BRANCH  19  21
ATOM     21  C   UNL     1       6.340   4.000  14.476  0.00  0.00    +0.000 A 
ATOM     22  C   UNL     1       7.373   4.915  14.254  0.00  0.00    +0.000 A 
ATOM     23  C   UNL     1       7.822   5.134  12.962  0.00  0.00    +0.000 A 
ATOM     24  N   UNL     1       7.317   4.512  11.880  0.00  0.00    +0.000 NA
ATOM     25  C   UNL     1       6.315   3.636  12.105  0.00  0.00    +0.000 A 
ATOM     26  C   UNL     1       5.801   3.351  13.363  0.00  0.00    +0.000 A 
ENDBRANCH  19  21
ENDBRANCH   4  19
TORSDOF 2
ENDMDL
MODEL 5
REMARK VINA RESULT:      -7.7      1.545      1.978
REMARK  Name = 
REMARK  3 active torsions:
REMARK  status: ('A' for Active; 'I' for Inactive)
REMARK    1  A    between atoms: C_1  and  C_2
REMARK    2  A    between atoms: C_4  and  N_5
REMARK    3  A    between atoms: N_5  and  C_6
REMARK                            x       y       z     vdW  Elec       q    Type
REMARK                         _______ _______ _______ _____ _____    ______ ____
ROOT
ATOM      1  C   UNL     1       1.166   3.954  19.772  0.00  0.00    +0.000 C 
ATOM      2  C   UNL     1       2.087   4.907  19.072  0.00  0.00    +0.000 A 
ATOM      3  C   UNL     1       1.880   6.327  19.264  0.00  0.00    +0.000 A 
ATOM      4  C   UNL     1       2.640   7.266  18.667  0.00  0.00    +0.000 A 
ATOM      5  C   UNL     1       3.805   6.802  17.792  0.00  0.00    +0.000 A 
ATOM      6  O   UNL     1       4.547   7.631  17.269  0.00  0.00    +0.000 OA
ATOM      7  N   UNL     1       3.928   5.436  17.646  0.00  0.00    +0.000 N 
ATOM      8  C   UNL     1       3.094   4.531  18.276  0.00  0.00    +0.000 A 
ATOM      9  C   UNL     1       3.521   3.157  17.926  0.00  0.00    +0.000 C 
ATOM     10  O   UNL     1       3.035   2.101  18.285  0.00  0.00    +0.000 OA
ATOM     11  N   UNL     1       4.604   3.322  17.099  0.00  0.00    +0.000 N 
ATOM     12  C   UNL     1       4.934   4.718  16.844  0.00  0.00    +0.000 C 
ATOM     13  C   UNL     1       4.796   5.000  15.333  0.00  0.00    +0.000 C 
ATOM     14  C   UNL     1       5.856   4.261  14.506  0.00  0.00    +0.000 C 
ATOM     15  C   UNL     1       7.268   4.563  15.001  0.00  0.00    +0.000 C 
ATOM     16  C   UNL     1       7.421   4.263  16.489  0.00  0.00    +0.000 C 
ATOM     17  C   UNL     1       6.371   5.001  17.325  0.00  0.00    +0.000 C 
ATOM     18  H   UNL     1       5.088   2.523  16.713  0.00  0.00    +0.000 HD
ENDROOT
BRANCH   4  19
ATOM     19  N   UNL     1       2.452   8.637  18.818  0.00  0.00    +0.000 N 
ATOM     20  H   UNL     1       3.110   9.177  18.250  0.00  0.00    +0.000 HD
BRANCH  19  21
ATOM     21  C   UNL     1       1.188   9.271  18.918  0.00  0.00    +0.000 A 
ATOM     22  C   UNL     1       0.388   9.553  17.806  0.00  0.00    +0.000 A 
ATOM     23  C   UNL     1      -0.869  10.104  17.995  0.00  0.00    +0.000 A 
ATOM     24  N   UNL     1      -1.383  10.395  19.206  0.00  0.00    +0.000 NA
ATOM     25  C   UNL     1      -0.599  10.126  20.270  0.00  0.00    +0.000 A 
ATOM     26  C   UNL     1       0.672   9.573  20.180  0.00  0.00    +0.000 A 
ENDBRANCH  19  21
ENDBRANCH   4  19
TORSDOF 2
ENDMDL
MODEL 6
REMARK VINA RESULT:      -7.5      2.033      3.832
REMARK  Name = 
REMARK  3 active torsions:
REMARK  status: ('A' for Active; 'I' for Inactive)
REMARK    1  A    between atoms: C_1  and  C_2
REMARK    2  A    between atoms: C_4  and  N_5
REMARK    3  A    between atoms: N_5  and  C_6
REMARK                            x       y       z     vdW  Elec       q    Type
REMARK                         _______ _______ _______ _____ _____    ______ ____
ROOT
ATOM      1  C   UNL     1       7.248   7.434  17.361  0.00  0.00    +0.000 C 
ATOM      2  C   UNL     1       5.845   6.955  17.579  0.00  0.00    +0.000 A 
ATOM      3  C   UNL     1       4.759   7.882  17.337  0.00  0.00    +0.000 A 
ATOM      4  C   UNL     1       3.464   7.558  17.521  0.00  0.00    +0.000 A 
ATOM      5  C   UNL     1       3.133   6.128  17.950  0.00  0.00    +0.000 A 
ATOM      6  O   UNL     1       1.959   5.784  18.082  0.00  0.00    +0.000 OA
ATOM      7  N   UNL     1       4.220   5.310  18.175  0.00  0.00    +0.000 N 
ATOM      8  C   UNL     1       5.526   5.721  17.985  0.00  0.00    +0.000 A 
ATOM      9  C   UNL     1       6.436   4.593  18.287  0.00  0.00    +0.000 C 
ATOM     10  O   UNL     1       7.651   4.569  18.237  0.00  0.00    +0.000 OA
ATOM     11  N   UNL     1       5.609   3.556  18.641  0.00  0.00    +0.000 N 
ATOM     12  C   UNL     1       4.195   3.905  18.620  0.00  0.00    +0.000 C 
ATOM     13  C   UNL     1       3.615   3.747  20.041  0.00  0.00    +0.000 C 
ATOM     14  C   UNL     1       3.579   2.281  20.492  0.00  0.00    +0.000 C 
ATOM     15  C   UNL     1       2.838   1.401  19.489  0.00  0.00    +0.000 C 
ATOM     16  C   UNL     1       3.421   1.533  18.085  0.00  0.00    +0.000 C 
ATOM     17  C   UNL     1       3.457   2.992  17.622  0.00  0.00    +0.000 C 
ATOM     18  H   UNL     1       5.989   2.656  18.901  0.00  0.00    +0.000 HD
ENDROOT
BRANCH   4  19
ATOM     19  N   UNL     1       2.401   8.433  17.315  0.00  0.00    +0.000 N 
ATOM     20  H   UNL     1       1.628   7.984  16.817  0.00  0.00    +0.000 HD
BRANCH  19  21
ATOM     21  C   UNL     1       1.946   9.383  18.263  0.00  0.00    +0.000 A 
ATOM     22  C   UNL     1       2.015  10.763  18.051  0.00  0.00    +0.000 A 
ATOM     23  C   UNL     1       1.479  11.624  18.995  0.00  0.00    +0.000 A 
ATOM     24  N   UNL     1       0.883  11.212  20.130  0.00  0.00    +0.000 NA
ATOM     25  C   UNL     1       0.829   9.878  20.328  0.00  0.00    +0.000 A 
ATOM     26  C   UNL     1       1.337   8.939  19.440  0.00  0.00    +0.000 A 
ENDBRANCH  19  21
ENDBRANCH   4  19
TORSDOF 2
ENDMDL
MODEL 7
REMARK VINA RESULT:      -7.4      2.048      3.796
REMARK  Name = 
REMARK  3 active torsions:
REMARK  status: ('A' for Active; 'I' for Inactive)
REMARK    1  A    between atoms: C_1  and  C_2
REMARK    2  A    between atoms: C_4  and  N_5
REMARK    3  A    between atoms: N_5  and  C_6
REMARK                            x       y       z     vdW  Elec       q    Type
REMARK                         _______ _______ _______ _____ _____    ______ ____
ROOT
ATOM      1  C   UNL     1       7.081   7.299  17.362  0.00  0.00    +0.000 C 
ATOM      2  C   UNL     1       5.657   6.897  17.603  0.00  0.00    +0.000 A 
ATOM      3  C   UNL     1       4.617   7.867  17.333  0.00  0.00    +0.000 A 
ATOM      4  C   UNL     1       3.308   7.613  17.533  0.00  0.00    +0.000 A 
ATOM      5  C   UNL     1       2.911   6.217  18.015  0.00  0.00    +0.000 A 
ATOM      6  O   UNL     1       1.722   5.935  18.163  0.00  0.00    +0.000 OA
ATOM      7  N   UNL     1       3.958   5.356  18.265  0.00  0.00    +0.000 N 
ATOM      8  C   UNL     1       5.282   5.696  18.054  0.00  0.00    +0.000 A 
ATOM      9  C   UNL     1       6.137   4.536  18.394  0.00  0.00    +0.000 C 
ATOM     10  O   UNL     1       7.350   4.452  18.339  0.00  0.00    +0.000 OA
ATOM     11  N   UNL     1       5.264   3.554  18.788  0.00  0.00    +0.000 N 
ATOM     12  C   UNL     1       3.868   3.971  18.760  0.00  0.00    +0.000 C 
ATOM     13  C   UNL     1       3.289   3.891  20.188  0.00  0.00    +0.000 C 
ATOM     14  C   UNL     1       3.185   2.446  20.692  0.00  0.00    +0.000 C 
ATOM     15  C   UNL     1       2.397   1.568  19.723  0.00  0.00    +0.000 C 
ATOM     16  C   UNL     1       2.977   1.621  18.314  0.00  0.00    +0.000 C 
ATOM     17  C   UNL     1       3.080   3.059  17.798  0.00  0.00    +0.000 C 
ATOM     18  H   UNL     1       5.600   2.646  19.078  0.00  0.00    +0.000 HD
ENDROOT
BRANCH   4  19
ATOM     19  N   UNL     1       2.288   8.530  17.300  0.00  0.00    +0.000 N 
ATOM     20  H   UNL     1       1.522   8.120  16.760  0.00  0.00    +0.000 HD
BRANCH  19  21
ATOM     21  C   UNL     1       1.826   9.478  18.248  0.00  0.00    +0.000 A 
ATOM     22  C   UNL     1       1.194   9.116  19.440  0.00  0.00    +0.000 A 
ATOM     23  C   UNL     1       0.841  10.100  20.350  0.00  0.00    +0.000 A 
ATOM     24  N   UNL     1       1.070  11.413  20.156  0.00  0.00    +0.000 NA
ATOM     25  C   UNL     1       1.674  11.751  18.998  0.00  0.00    +0.000 A 
ATOM     26  C   UNL     1       2.064  10.837  18.029  0.00  0.00    +0.000 A 
ENDBRANCH  19  21
ENDBRANCH   4  19
TORSDOF 2
ENDMDL
MODEL 8
REMARK VINA RESULT:      -7.3      2.062      4.133
REMARK  Name = 
REMARK  3 active torsions:
REMARK  status: ('A' for Active; 'I' for Inactive)
REMARK    1  A    between atoms: C_1  and  C_2
REMARK    2  A    between atoms: C_4  and  N_5
REMARK    3  A    between atoms: N_5  and  C_6
REMARK                            x       y       z     vdW  Elec       q    Type
REMARK                         _______ _______ _______ _____ _____    ______ ____
ROOT
ATOM      1  C   UNL     1       6.567   6.838  17.241  0.00  0.00    +0.000 C 
ATOM      2  C   UNL     1       5.135   6.722  17.670  0.00  0.00    +0.000 A 
ATOM      3  C   UNL     1       4.232   7.806  17.343  0.00  0.00    +0.000 A 
ATOM      4  C   UNL     1       2.932   7.808  17.697  0.00  0.00    +0.000 A 
ATOM      5  C   UNL     1       2.382   6.583  18.429  0.00  0.00    +0.000 A 
ATOM      6  O   UNL     1       1.190   6.531  18.727  0.00  0.00    +0.000 OA
ATOM      7  N   UNL     1       3.306   5.602  18.719  0.00  0.00    +0.000 N 
ATOM      8  C   UNL     1       4.634   5.679  18.339  0.00  0.00    +0.000 A 
ATOM      9  C   UNL     1       5.334   4.451  18.781  0.00  0.00    +0.000 C 
ATOM     10  O   UNL     1       6.504   4.155  18.632  0.00  0.00    +0.000 OA
ATOM     11  N   UNL     1       4.370   3.698  19.403  0.00  0.00    +0.000 N 
ATOM     12  C   UNL     1       3.061   4.337  19.434  0.00  0.00    +0.000 C 
ATOM     13  C   UNL     1       2.645   4.561  20.903  0.00  0.00    +0.000 C 
ATOM     14  C   UNL     1       2.377   3.242  21.638  0.00  0.00    +0.000 C 
ATOM     15  C   UNL     1       1.358   2.381  20.897  0.00  0.00    +0.000 C 
ATOM     16  C   UNL     1       1.774   2.133  19.451  0.00  0.00    +0.000 C 
ATOM     17  C   UNL     1       2.038   3.444  18.705  0.00  0.00    +0.000 C 
ATOM     18  H   UNL     1       4.594   2.797  19.803  0.00  0.00    +0.000 HD
ENDROOT
BRANCH   4  19
ATOM     19  N   UNL     1       2.045   8.843  17.414  0.00  0.00    +0.000 N 
ATOM     20  H   UNL     1       1.175   8.497  17.002  0.00  0.00    +0.000 HD
BRANCH  19  21
ATOM     21  C   UNL     1       1.832   9.971  18.245  0.00  0.00    +0.000 A 
ATOM     22  C   UNL     1       2.334  11.241  17.947  0.00  0.00    +0.000 A 
ATOM     23  C   UNL     1       2.017  12.308  18.772  0.00  0.00    +0.000 A 
ATOM     24  N   UNL     1       1.243  12.201  19.869  0.00  0.00    +0.000 NA
ATOM     25  C   UNL     1       0.770  10.969  20.151  0.00  0.00    +0.000 A 
ATOM     26  C   UNL     1       1.033   9.842  19.383  0.00  0.00    +0.000 A 
ENDBRANCH  19  21
ENDBRANCH   4  19
TORSDOF 2
ENDMDL
MODEL 9
REMARK VINA RESULT:      -7.3      2.270      4.241
REMARK  Name = 
REMARK  3 active torsions:
REMARK  status: ('A' for Active; 'I' for Inactive)
REMARK    1  A    between atoms: C_1  and  C_2
REMARK    2  A    between atoms: C_4  and  N_5
REMARK    3  A    between atoms: N_5  and  C_6
REMARK                            x       y       z     vdW  Elec       q    Type
REMARK                         _______ _______ _______ _____ _____    ______ ____
ROOT
ATOM      1  C   UNL     1       5.062   6.518  15.945  0.00  0.00    +0.000 C 
ATOM      2  C   UNL     1       4.106   6.615  17.095  0.00  0.00    +0.000 A 
ATOM      3  C   UNL     1       3.595   7.922  17.454  0.00  0.00    +0.000 A 
ATOM      4  C   UNL     1       2.746   8.120  18.482  0.00  0.00    +0.000 A 
ATOM      5  C   UNL     1       2.264   6.898  19.264  0.00  0.00    +0.000 A 
ATOM      6  O   UNL     1       1.452   7.037  20.178  0.00  0.00    +0.000 OA
ATOM      7  N   UNL     1       2.806   5.692  18.873  0.00  0.00    +0.000 N 
ATOM      8  C   UNL     1       3.691   5.569  17.818  0.00  0.00    +0.000 A 
ATOM      9  C   UNL     1       4.050   4.142  17.653  0.00  0.00    +0.000 C 
ATOM     10  O   UNL     1       4.800   3.642  16.837  0.00  0.00    +0.000 OA
ATOM     11  N   UNL     1       3.345   3.484  18.630  0.00  0.00    +0.000 N 
ATOM     12  C   UNL     1       2.543   4.368  19.465  0.00  0.00    +0.000 C 
ATOM     13  C   UNL     1       3.034   4.266  20.925  0.00  0.00    +0.000 C 
ATOM     14  C   UNL     1       2.743   2.891  21.539  0.00  0.00    +0.000 C 
ATOM     15  C   UNL     1       1.267   2.523  21.422  0.00  0.00    +0.000 C 
ATOM     16  C   UNL     1       0.779   2.597  19.979  0.00  0.00    +0.000 C 
ATOM     17  C   UNL     1       1.058   3.967  19.357  0.00  0.00    +0.000 C 
ATOM     18  H   UNL     1       3.417   2.481  18.736  0.00  0.00    +0.000 HD
ENDROOT
BRANCH   4  19
ATOM     19  N   UNL     1       2.254   9.365  18.861  0.00  0.00    +0.000 N 
ATOM     20  H   UNL     1       2.868  10.126  18.561  0.00  0.00    +0.000 HD
BRANCH  19  21
ATOM     21  C   UNL     1       0.886   9.736  18.822  0.00  0.00    +0.000 A 
ATOM     22  C   UNL     1       0.226  10.325  19.905  0.00  0.00    +0.000 A 
ATOM     23  C   UNL     1      -1.092  10.728  19.761  0.00  0.00    +0.000 A 
ATOM     24  N   UNL     1      -1.797  10.583  18.623  0.00  0.00    +0.000 NA
ATOM     25  C   UNL     1      -1.152  10.006  17.587  0.00  0.00    +0.000 A 
ATOM     26  C   UNL     1       0.166   9.573  17.637  0.00  0.00    +0.000 A 
ENDBRANCH  19  21
ENDBRANCH   4  19
TORSDOF 2
ENDMDL
