MODEL 1
REMARK VINA RESULT:      -8.9      0.000      0.000
REMARK  Name = 
REMARK  7 active torsions:
REMARK  status: ('A' for Active; 'I' for Inactive)
REMARK    1  A    between atoms: C_1  and  N_2
REMARK    2  A    between atoms: N_2  and  C_3
REMARK    3  A    between atoms: N_2  and  N_4
REMARK    4  A    between atoms: C_5  and  C_6
REMARK    5  A    between atoms: N_8  and  C_9
REMARK    6  A    between atoms: C_21  and  C_22
REMARK    7  A    between atoms: C_22  and  C_23
REMARK                            x       y       z     vdW  Elec       q    Type
REMARK                         _______ _______ _______ _____ _____    ______ ____
ROOT
ATOM      1  C   UNL     1       4.535   2.343  20.111  0.00  0.00    +0.000 A 
ATOM      2  N   UNL     1       5.493   3.175  19.677  0.00  0.00    +0.000 NA
ATOM      3  N   UNL     1       4.860   4.339  19.348  0.00  0.00    +0.000 N 
ATOM      4  C   UNL     1       3.536   4.320  19.768  0.00  0.00    +0.000 A 
ATOM      5  C   UNL     1       3.300   3.022  20.204  0.00  0.00    +0.000 A 
ATOM      6  C   UNL     1       1.983   2.516  20.681  0.00  0.00    +0.000 C 
ATOM      7  C   UNL     1       0.848   3.452  20.259  0.00  0.00    +0.000 C 
ATOM      8  C   UNL     1       1.215   4.915  20.528  0.00  0.00    +0.000 C 
ATOM      9  C   UNL     1       2.468   5.397  19.734  0.00  0.00    +0.000 C 
ENDROOT
BRANCH   3  10
ATOM     10  C   UNL     1       5.620   5.337  18.660  0.00  0.00    +0.000 A 
ATOM     11  C   UNL     1       5.141   5.981  17.514  0.00  0.00    +0.000 A 
ATOM     12  C   UNL     1       5.881   7.009  16.919  0.00  0.00    +0.000 A 
ATOM     13  C   UNL     1       7.128   7.346  17.429  0.00  0.00    +0.000 A 
ATOM     14  F   UNL     1       7.843   8.310  16.837  0.00  0.00    +0.000 F 
ATOM     15  C   UNL     1       7.646   6.685  18.535  0.00  0.00    +0.000 A 
ATOM     16  C   UNL     1       6.895   5.681  19.150  0.00  0.00    +0.000 A 
ENDBRANCH   3  10
BRANCH   1  18
ATOM     17  N   UNL     1       5.749   0.660  21.286  0.00  0.00    +0.000 NA
ATOM     18  C   UNL     1       4.847   0.945  20.400  0.00  0.00    +0.000 C 
BRANCH  17  20
ATOM     19  C   UNL     1       6.221  -0.929  23.014  0.00  0.00    +0.000 C 
ATOM     20  N   UNL     1       5.992  -0.639  21.601  0.00  0.00    +0.000 N 
ATOM     21  C   UNL     1       6.572  -1.618  20.689  0.00  0.00    +0.000 C 
ENDBRANCH  17  20
ENDBRANCH   1  18
BRANCH   9  22
ATOM     22  C   UNL     1       2.848   6.826  20.186  0.00  0.00    +0.000 C 
BRANCH  22  23
ATOM     23  C   UNL     1       2.011   7.994  19.702  0.00  0.00    +0.000 A 
ATOM     24  C   UNL     1       1.956   8.231  18.317  0.00  0.00    +0.000 A 
ATOM     25  C   UNL     1       1.157   9.241  17.790  0.00  0.00    +0.000 A 
ATOM     26  C   UNL     1       0.385  10.014  18.637  0.00  0.00    +0.000 A 
ATOM     27  C   UNL     1       0.389   9.793  20.022  0.00  0.00    +0.000 A 
ATOM     28  C   UNL     1      -0.443  10.556  20.856  0.00  0.00    +0.000 A 
ATOM     29  C   UNL     1      -0.474  10.343  22.234  0.00  0.00    +0.000 A 
ATOM     30  C   UNL     1       0.346   9.378  22.799  0.00  0.00    +0.000 A 
ATOM     31  C   UNL     1       1.178   8.611  21.984  0.00  0.00    +0.000 A 
ATOM     32  C   UNL     1       1.217   8.783  20.579  0.00  0.00    +0.000 A 
ENDBRANCH  22  23
ENDBRANCH   9  22
TORSDOF 5
ENDMDL
MODEL 2
REMARK VINA RESULT:      -7.4      8.362     11.860
REMARK  Name = 
REMARK  7 active torsions:
REMARK  status: ('A' for Active; 'I' for Inactive)
REMARK    1  A    between atoms: C_1  and  N_2
REMARK    2  A    between atoms: N_2  and  C_3
REMARK    3  A    between atoms: N_2  and  N_4
REMARK    4  A    between atoms: C_5  and  C_6
REMARK    5  A    between atoms: N_8  and  C_9
REMARK    6  A    between atoms: C_21  and  C_22
REMARK    7  A    between atoms: C_22  and  C_23
REMARK                            x       y       z     vdW  Elec       q    Type
REMARK                         _______ _______ _______ _____ _____    ______ ____
ROOT
ATOM      1  C   UNL     1      -1.691  15.276  24.849  0.00  0.00    +0.000 A 
ATOM      2  N   UNL     1      -0.794  14.508  24.213  0.00  0.00    +0.000 NA
ATOM      3  N   UNL     1      -1.495  13.813  23.270  0.00  0.00    +0.000 N 
ATOM      4  C   UNL     1      -2.795  14.291  23.165  0.00  0.00    +0.000 A 
ATOM      5  C   UNL     1      -2.950  15.189  24.215  0.00  0.00    +0.000 A 
ATOM      6  C   UNL     1      -4.218  15.899  24.540  0.00  0.00    +0.000 C 
ATOM      7  C   UNL     1      -5.413  15.232  23.856  0.00  0.00    +0.000 C 
ATOM      8  C   UNL     1      -5.102  14.920  22.389  0.00  0.00    +0.000 C 
ATOM      9  C   UNL     1      -3.912  13.929  22.204  0.00  0.00    +0.000 C 
ENDROOT
BRANCH   3  10
ATOM     10  C   UNL     1      -0.816  12.761  22.579  0.00  0.00    +0.000 A 
ATOM     11  C   UNL     1      -1.097  11.411  22.814  0.00  0.00    +0.000 A 
ATOM     12  C   UNL     1      -0.468  10.414  22.059  0.00  0.00    +0.000 A 
ATOM     13  C   UNL     1       0.490  10.765  21.116  0.00  0.00    +0.000 A 
ATOM     14  F   UNL     1       1.110   9.805  20.418  0.00  0.00    +0.000 F 
ATOM     15  C   UNL     1       0.823  12.096  20.902  0.00  0.00    +0.000 A 
ATOM     16  C   UNL     1       0.173  13.094  21.633  0.00  0.00    +0.000 A 
ENDBRANCH   3  10
BRANCH   1  18
ATOM     17  N   UNL     1      -0.119  15.879  26.537  0.00  0.00    +0.000 NA
ATOM     18  C   UNL     1      -1.302  16.040  26.032  0.00  0.00    +0.000 C 
BRANCH  17  20
ATOM     19  C   UNL     1       0.297  18.082  27.381  0.00  0.00    +0.000 C 
ATOM     20  N   UNL     1       0.265  16.637  27.598  0.00  0.00    +0.000 N 
ATOM     21  C   UNL     1       1.132  16.176  28.675  0.00  0.00    +0.000 C 
ENDBRANCH  17  20
ENDBRANCH   1  18
BRANCH   9  22
ATOM     22  C   UNL     1      -3.576  13.798  20.700  0.00  0.00    +0.000 C 
BRANCH  22  23
ATOM     23  C   UNL     1      -4.259  12.715  19.889  0.00  0.00    +0.000 A 
ATOM     24  C   UNL     1      -5.662  12.627  19.963  0.00  0.00    +0.000 A 
ATOM     25  C   UNL     1      -6.366  11.704  19.197  0.00  0.00    +0.000 A 
ATOM     26  C   UNL     1      -5.684  10.871  18.330  0.00  0.00    +0.000 A 
ATOM     27  C   UNL     1      -4.289  10.945  18.204  0.00  0.00    +0.000 A 
ATOM     28  C   UNL     1      -3.624  10.125  17.280  0.00  0.00    +0.000 A 
ATOM     29  C   UNL     1      -2.241  10.194  17.120  0.00  0.00    +0.000 A 
ATOM     30  C   UNL     1      -1.500  11.067  17.902  0.00  0.00    +0.000 A 
ATOM     31  C   UNL     1      -2.146  11.889  18.826  0.00  0.00    +0.000 A 
ATOM     32  C   UNL     1      -3.551  11.864  18.996  0.00  0.00    +0.000 A 
ENDBRANCH  22  23
ENDBRANCH   9  22
TORSDOF 5
ENDMDL
MODEL 3
REMARK VINA RESULT:      -7.3      3.171      5.572
REMARK  Name = 
REMARK  7 active torsions:
REMARK  status: ('A' for Active; 'I' for Inactive)
REMARK    1  A    between atoms: C_1  and  N_2
REMARK    2  A    between atoms: N_2  and  C_3
REMARK    3  A    between atoms: N_2  and  N_4
REMARK    4  A    between atoms: C_5  and  C_6
REMARK    5  A    between atoms: N_8  and  C_9
REMARK    6  A    between atoms: C_21  and  C_22
REMARK    7  A    between atoms: C_22  and  C_23
REMARK                            x       y       z     vdW  Elec       q    Type
REMARK                         _______ _______ _______ _____ _____    ______ ____
ROOT
ATOM      1  C   UNL     1       4.839   4.122  16.157  0.00  0.00    +0.000 A 
ATOM      2  N   UNL     1       4.040   3.390  16.946  0.00  0.00    +0.000 NA
ATOM      3  N   UNL     1       3.664   4.212  17.968  0.00  0.00    +0.000 N 
ATOM      4  C   UNL     1       4.051   5.523  17.720  0.00  0.00    +0.000 A 
ATOM      5  C   UNL     1       4.859   5.466  16.590  0.00  0.00    +0.000 A 
ATOM      6  C   UNL     1       5.562   6.636  15.994  0.00  0.00    +0.000 C 
ATOM      7  C   UNL     1       5.625   7.803  16.982  0.00  0.00    +0.000 C 
ATOM      8  C   UNL     1       4.266   8.027  17.655  0.00  0.00    +0.000 C 
ATOM      9  C   UNL     1       3.777   6.802  18.488  0.00  0.00    +0.000 C 
ENDROOT
BRANCH   3  10
ATOM     10  C   UNL     1       2.969   3.625  19.073  0.00  0.00    +0.000 A 
ATOM     11  C   UNL     1       3.641   3.041  20.152  0.00  0.00    +0.000 A 
ATOM     12  C   UNL     1       2.926   2.550  21.250  0.00  0.00    +0.000 A 
ATOM     13  C   UNL     1       1.537   2.583  21.239  0.00  0.00    +0.000 A 
ATOM     14  F   UNL     1       0.858   2.085  22.279  0.00  0.00    +0.000 F 
ATOM     15  C   UNL     1       0.848   3.110  20.155  0.00  0.00    +0.000 A 
ATOM     16  C   UNL     1       1.561   3.630  19.072  0.00  0.00    +0.000 A 
ENDBRANCH   3  10
BRANCH   1  18
ATOM     17  N   UNL     1       5.381   3.954  13.841  0.00  0.00    +0.000 NA
ATOM     18  C   UNL     1       5.550   3.499  15.043  0.00  0.00    +0.000 C 
BRANCH  17  20
ATOM     19  C   UNL     1       7.225   4.202  12.333  0.00  0.00    +0.000 C 
ATOM     20  N   UNL     1       6.092   3.416  12.815  0.00  0.00    +0.000 N 
ATOM     21  C   UNL     1       5.553   2.482  11.835  0.00  0.00    +0.000 C 
ENDBRANCH  17  20
ENDBRANCH   1  18
BRANCH   9  22
ATOM     22  C   UNL     1       2.339   7.063  18.994  0.00  0.00    +0.000 C 
BRANCH  22  23
ATOM     23  C   UNL     1       1.826   8.489  19.037  0.00  0.00    +0.000 A 
ATOM     24  C   UNL     1       1.900   9.248  17.855  0.00  0.00    +0.000 A 
ATOM     25  C   UNL     1       1.389  10.541  17.796  0.00  0.00    +0.000 A 
ATOM     26  C   UNL     1       0.776  11.086  18.909  0.00  0.00    +0.000 A 
ATOM     27  C   UNL     1       0.655  10.353  20.099  0.00  0.00    +0.000 A 
ATOM     28  C   UNL     1      -0.017  10.908  21.199  0.00  0.00    +0.000 A 
ATOM     29  C   UNL     1      -0.170  10.194  22.386  0.00  0.00    +0.000 A 
ATOM     30  C   UNL     1       0.370   8.922  22.498  0.00  0.00    +0.000 A 
ATOM     31  C   UNL     1       1.041   8.356  21.414  0.00  0.00    +0.000 A 
ATOM     32  C   UNL     1       1.193   9.042  20.185  0.00  0.00    +0.000 A 
ENDBRANCH  22  23
ENDBRANCH   9  22
TORSDOF 5
ENDMDL
MODEL 4
REMARK VINA RESULT:      -7.3      6.035     10.712
REMARK  Name = 
REMARK  7 active torsions:
REMARK  status: ('A' for Active; 'I' for Inactive)
REMARK    1  A    between atoms: C_1  and  N_2
REMARK    2  A    between atoms: N_2  and  C_3
REMARK    3  A    between atoms: N_2  and  N_4
REMARK    4  A    between atoms: C_5  and  C_6
REMARK    5  A    between atoms: N_8  and  C_9
REMARK    6  A    between atoms: C_21  and  C_22
REMARK    7  A    between atoms: C_22  and  C_23
REMARK                            x       y       z     vdW  Elec       q    Type
REMARK                         _______ _______ _______ _____ _____    ______ ____
ROOT
ATOM      1  C   UNL     1      -2.776  12.880  21.091  0.00  0.00    +0.000 A 
ATOM      2  N   UNL     1      -3.354  12.179  20.105  0.00  0.00    +0.000 NA
ATOM      3  N   UNL     1      -2.371  11.932  19.192  0.00  0.00    +0.000 N 
ATOM      4  C   UNL     1      -1.125  12.293  19.692  0.00  0.00    +0.000 A 
ATOM      5  C   UNL     1      -1.381  12.958  20.886  0.00  0.00    +0.000 A 
ATOM      6  C   UNL     1      -0.338  13.589  21.741  0.00  0.00    +0.000 C 
ATOM      7  C   UNL     1       0.970  13.776  20.968  0.00  0.00    +0.000 C 
ATOM      8  C   UNL     1       1.330  12.509  20.185  0.00  0.00    +0.000 C 
ATOM      9  C   UNL     1       0.266  12.119  19.114  0.00  0.00    +0.000 C 
ENDROOT
BRANCH   3  10
ATOM     10  C   UNL     1      -2.757  11.373  17.933  0.00  0.00    +0.000 A 
ATOM     11  C   UNL     1      -1.966  10.438  17.256  0.00  0.00    +0.000 A 
ATOM     12  C   UNL     1      -2.419   9.857  16.067  0.00  0.00    +0.000 A 
ATOM     13  C   UNL     1      -3.631  10.258  15.520  0.00  0.00    +0.000 A 
ATOM     14  F   UNL     1      -4.044   9.719  14.366  0.00  0.00    +0.000 F 
ATOM     15  C   UNL     1      -4.409  11.223  16.147  0.00  0.00    +0.000 A 
ATOM     16  C   UNL     1      -3.973  11.782  17.351  0.00  0.00    +0.000 A 
ENDBRANCH   3  10
BRANCH   1  18
ATOM     17  N   UNL     1      -4.852  13.177  22.226  0.00  0.00    +0.000 NA
ATOM     18  C   UNL     1      -3.586  13.449  22.166  0.00  0.00    +0.000 C 
BRANCH  17  20
ATOM     19  C   UNL     1      -5.110  14.882  23.887  0.00  0.00    +0.000 C 
ATOM     20  N   UNL     1      -5.591  13.652  23.262  0.00  0.00    +0.000 N 
ATOM     21  C   UNL     1      -6.429  12.832  24.128  0.00  0.00    +0.000 C 
ENDBRANCH  17  20
ENDBRANCH   1  18
BRANCH   9  22
ATOM     22  C   UNL     1       0.639  10.753  18.489  0.00  0.00    +0.000 C 
BRANCH  22  23
ATOM     23  C   UNL     1       0.941   9.586  19.408  0.00  0.00    +0.000 A 
ATOM     24  C   UNL     1       0.230   9.505  20.620  0.00  0.00    +0.000 A 
ATOM     25  C   UNL     1       0.402   8.429  21.485  0.00  0.00    +0.000 A 
ATOM     26  C   UNL     1       1.268   7.408  21.143  0.00  0.00    +0.000 A 
ATOM     27  C   UNL     1       1.975   7.435  19.931  0.00  0.00    +0.000 A 
ATOM     28  C   UNL     1       2.809   6.361  19.582  0.00  0.00    +0.000 A 
ATOM     29  C   UNL     1       3.506   6.353  18.375  0.00  0.00    +0.000 A 
ATOM     30  C   UNL     1       3.397   7.432  17.511  0.00  0.00    +0.000 A 
ATOM     31  C   UNL     1       2.573   8.507  17.843  0.00  0.00    +0.000 A 
ATOM     32  C   UNL     1       1.831   8.537  19.048  0.00  0.00    +0.000 A 
ENDBRANCH  22  23
ENDBRANCH   9  22
TORSDOF 5
ENDMDL
MODEL 5
REMARK VINA RESULT:      -7.3      6.530     11.224
REMARK  Name = 
REMARK  7 active torsions:
REMARK  status: ('A' for Active; 'I' for Inactive)
REMARK    1  A    between atoms: C_1  and  N_2
REMARK    2  A    between atoms: N_2  and  C_3
REMARK    3  A    between atoms: N_2  and  N_4
REMARK    4  A    between atoms: C_5  and  C_6
REMARK    5  A    between atoms: N_8  and  C_9
REMARK    6  A    between atoms: C_21  and  C_22
REMARK    7  A    between atoms: C_22  and  C_23
REMARK                            x       y       z     vdW  Elec       q    Type
REMARK                         _______ _______ _______ _____ _____    ______ ____
ROOT
ATOM      1  C   UNL     1      -3.789  12.944  21.416  0.00  0.00    +0.000 A 
ATOM      2  N   UNL     1      -4.012  12.068  20.426  0.00  0.00    +0.000 NA
ATOM      3  N   UNL     1      -2.951  12.184  19.574  0.00  0.00    +0.000 N 
ATOM      4  C   UNL     1      -1.955  12.979  20.128  0.00  0.00    +0.000 A 
ATOM      5  C   UNL     1      -2.507  13.521  21.282  0.00  0.00    +0.000 A 
ATOM      6  C   UNL     1      -1.819  14.500  22.170  0.00  0.00    +0.000 C 
ATOM      7  C   UNL     1      -0.623  15.139  21.462  0.00  0.00    +0.000 C 
ATOM      8  C   UNL     1       0.220  14.081  20.742  0.00  0.00    +0.000 C 
ATOM      9  C   UNL     1      -0.562  13.316  19.630  0.00  0.00    +0.000 C 
ENDROOT
BRANCH   3  10
ATOM     10  C   UNL     1      -3.030  11.507  18.317  0.00  0.00    +0.000 A 
ATOM     11  C   UNL     1      -2.063  10.585  17.903  0.00  0.00    +0.000 A 
ATOM     12  C   UNL     1      -2.220   9.886  16.701  0.00  0.00    +0.000 A 
ATOM     13  C   UNL     1      -3.309  10.156  15.882  0.00  0.00    +0.000 A 
ATOM     14  F   UNL     1      -3.438   9.505  14.720  0.00  0.00    +0.000 F 
ATOM     15  C   UNL     1      -4.255  11.105  16.249  0.00  0.00    +0.000 A 
ATOM     16  C   UNL     1      -4.117  11.781  17.463  0.00  0.00    +0.000 A 
ENDBRANCH   3  10
BRANCH   1  18
ATOM     17  N   UNL     1      -5.738  14.072  22.199  0.00  0.00    +0.000 NA
ATOM     18  C   UNL     1      -4.815  13.192  22.427  0.00  0.00    +0.000 C 
BRANCH  17  20
ATOM     19  C   UNL     1      -6.786  15.570  23.745  0.00  0.00    +0.000 C 
ATOM     20  N   UNL     1      -6.729  14.255  23.111  0.00  0.00    +0.000 N 
ATOM     21  C   UNL     1      -7.345  13.189  23.891  0.00  0.00    +0.000 C 
ENDBRANCH  17  20
ENDBRANCH   1  18
BRANCH   9  22
ATOM     22  C   UNL     1       0.318  12.173  19.073  0.00  0.00    +0.000 C 
BRANCH  22  23
ATOM     23  C   UNL     1       0.600  10.971  19.953  0.00  0.00    +0.000 A 
ATOM     24  C   UNL     1       0.109  10.995  21.272  0.00  0.00    +0.000 A 
ATOM     25  C   UNL     1       0.268   9.904  22.119  0.00  0.00    +0.000 A 
ATOM     26  C   UNL     1       0.899   8.764  21.657  0.00  0.00    +0.000 A 
ATOM     27  C   UNL     1       1.377   8.687  20.340  0.00  0.00    +0.000 A 
ATOM     28  C   UNL     1       1.967   7.501  19.877  0.00  0.00    +0.000 A 
ATOM     29  C   UNL     1       2.432   7.390  18.567  0.00  0.00    +0.000 A 
ATOM     30  C   UNL     1       2.335   8.475  17.709  0.00  0.00    +0.000 A 
ATOM     31  C   UNL     1       1.751   9.661  18.154  0.00  0.00    +0.000 A 
ATOM     32  C   UNL     1       1.246   9.800  19.469  0.00  0.00    +0.000 A 
ENDBRANCH  22  23
ENDBRANCH   9  22
TORSDOF 5
ENDMDL
MODEL 6
REMARK VINA RESULT:      -7.3      6.372     11.111
REMARK  Name = 
REMARK  7 active torsions:
REMARK  status: ('A' for Active; 'I' for Inactive)
REMARK    1  A    between atoms: C_1  and  N_2
REMARK    2  A    between atoms: N_2  and  C_3
REMARK    3  A    between atoms: N_2  and  N_4
REMARK    4  A    between atoms: C_5  and  C_6
REMARK    5  A    between atoms: N_8  and  C_9
REMARK    6  A    between atoms: C_21  and  C_22
REMARK    7  A    between atoms: C_22  and  C_23
REMARK                            x       y       z     vdW  Elec       q    Type
REMARK                         _______ _______ _______ _____ _____    ______ ____
ROOT
ATOM      1  C   UNL     1      -4.009  12.665  20.926  0.00  0.00    +0.000 A 
ATOM      2  N   UNL     1      -4.238  11.859  19.880  0.00  0.00    +0.000 NA
ATOM      3  N   UNL     1      -3.116  11.921  19.104  0.00  0.00    +0.000 N 
ATOM      4  C   UNL     1      -2.096  12.599  19.760  0.00  0.00    +0.000 A 
ATOM      5  C   UNL     1      -2.677  13.133  20.904  0.00  0.00    +0.000 A 
ATOM      6  C   UNL     1      -1.969  14.006  21.883  0.00  0.00    +0.000 C 
ATOM      7  C   UNL     1      -0.679  14.569  21.285  0.00  0.00    +0.000 C 
ATOM      8  C   UNL     1       0.118  13.476  20.567  0.00  0.00    +0.000 C 
ATOM      9  C   UNL     1      -0.649  12.835  19.369  0.00  0.00    +0.000 C 
ENDROOT
BRANCH   3  10
ATOM     10  C   UNL     1      -3.168  11.313  17.810  0.00  0.00    +0.000 A 
ATOM     11  C   UNL     1      -4.109  11.688  16.846  0.00  0.00    +0.000 A 
ATOM     12  C   UNL     1      -4.074  11.125  15.565  0.00  0.00    +0.000 A 
ATOM     13  C   UNL     1      -3.141  10.139  15.271  0.00  0.00    +0.000 A 
ATOM     14  F   UNL     1      -3.131   9.584  14.053  0.00  0.00    +0.000 F 
ATOM     15  C   UNL     1      -2.229   9.714  16.228  0.00  0.00    +0.000 A 
ATOM     16  C   UNL     1      -2.242  10.298  17.498  0.00  0.00    +0.000 A 
ENDBRANCH   3  10
BRANCH   1  18
ATOM     17  N   UNL     1      -6.101  13.652  21.504  0.00  0.00    +0.000 NA
ATOM     18  C   UNL     1      -5.076  12.955  21.882  0.00  0.00    +0.000 C 
BRANCH  17  20
ATOM     19  C   UNL     1      -7.818  12.675  22.859  0.00  0.00    +0.000 C 
ATOM     20  N   UNL     1      -7.123  13.866  22.375  0.00  0.00    +0.000 N 
ATOM     21  C   UNL     1      -7.916  15.087  22.437  0.00  0.00    +0.000 C 
ENDBRANCH  17  20
ENDBRANCH   1  18
BRANCH   9  22
ATOM     22  C   UNL     1       0.166  11.646  18.810  0.00  0.00    +0.000 C 
BRANCH  22  23
ATOM     23  C   UNL     1       0.499  10.489  19.732  0.00  0.00    +0.000 A 
ATOM     24  C   UNL     1      -0.080  10.486  21.014  0.00  0.00    +0.000 A 
ATOM     25  C   UNL     1       0.123   9.426  21.893  0.00  0.00    +0.000 A 
ATOM     26  C   UNL     1       0.887   8.345  21.496  0.00  0.00    +0.000 A 
ATOM     27  C   UNL     1       1.458   8.294  20.216  0.00  0.00    +0.000 A 
ATOM     28  C   UNL     1       2.187   7.163  19.817  0.00  0.00    +0.000 A 
ATOM     29  C   UNL     1       2.747   7.078  18.544  0.00  0.00    +0.000 A 
ATOM     30  C   UNL     1       2.608   8.136  17.659  0.00  0.00    +0.000 A 
ATOM     31  C   UNL     1       1.887   9.268  18.040  0.00  0.00    +0.000 A 
ATOM     32  C   UNL     1       1.283   9.378  19.315  0.00  0.00    +0.000 A 
ENDBRANCH  22  23
ENDBRANCH   9  22
TORSDOF 5
ENDMDL
MODEL 7
REMARK VINA RESULT:      -7.3      6.550     10.690
REMARK  Name = 
REMARK  7 active torsions:
REMARK  status: ('A' for Active; 'I' for Inactive)
REMARK    1  A    between atoms: C_1  and  N_2
REMARK    2  A    between atoms: N_2  and  C_3
REMARK    3  A    between atoms: N_2  and  N_4
REMARK    4  A    between atoms: C_5  and  C_6
REMARK    5  A    between atoms: N_8  and  C_9
REMARK    6  A    between atoms: C_21  and  C_22
REMARK    7  A    between atoms: C_22  and  C_23
REMARK                            x       y       z     vdW  Elec       q    Type
REMARK                         _______ _______ _______ _____ _____    ______ ____
ROOT
ATOM      1  C   UNL     1       1.875  14.659  21.790  0.00  0.00    +0.000 A 
ATOM      2  N   UNL     1       0.683  14.354  22.324  0.00  0.00    +0.000 NA
ATOM      3  N   UNL     1      -0.030  13.748  21.330  0.00  0.00    +0.000 N 
ATOM      4  C   UNL     1       0.777  13.480  20.232  0.00  0.00    +0.000 A 
ATOM      5  C   UNL     1       1.986  14.115  20.492  0.00  0.00    +0.000 A 
ATOM      6  C   UNL     1       3.139  14.157  19.550  0.00  0.00    +0.000 C 
ATOM      7  C   UNL     1       2.704  13.784  18.131  0.00  0.00    +0.000 C 
ATOM      8  C   UNL     1       1.809  12.541  18.140  0.00  0.00    +0.000 C 
ATOM      9  C   UNL     1       0.485  12.736  18.943  0.00  0.00    +0.000 C 
ENDROOT
BRANCH   3  10
ATOM     10  C   UNL     1      -1.419  13.501  21.565  0.00  0.00    +0.000 A 
ATOM     11  C   UNL     1      -2.407  13.856  20.640  0.00  0.00    +0.000 A 
ATOM     12  C   UNL     1      -3.747  13.524  20.873  0.00  0.00    +0.000 A 
ATOM     13  C   UNL     1      -4.106  12.896  22.059  0.00  0.00    +0.000 A 
ATOM     14  F   UNL     1      -5.393  12.608  22.288  0.00  0.00    +0.000 F 
ATOM     15  C   UNL     1      -3.149  12.580  23.014  0.00  0.00    +0.000 A 
ATOM     16  C   UNL     1      -1.807  12.883  22.770  0.00  0.00    +0.000 A 
ENDBRANCH   3  10
BRANCH   1  18
ATOM     17  N   UNL     1       3.917  14.912  22.995  0.00  0.00    +0.000 NA
ATOM     18  C   UNL     1       2.836  15.464  22.542  0.00  0.00    +0.000 C 
BRANCH  17  20
ATOM     19  C   UNL     1       6.144  15.055  23.863  0.00  0.00    +0.000 C 
ATOM     20  N   UNL     1       4.841  15.674  23.637  0.00  0.00    +0.000 N 
ATOM     21  C   UNL     1       4.524  16.754  24.564  0.00  0.00    +0.000 C 
ENDBRANCH  17  20
ENDBRANCH   1  18
BRANCH   9  22
ATOM     22  C   UNL     1      -0.272  11.390  19.025  0.00  0.00    +0.000 C 
BRANCH  22  23
ATOM     23  C   UNL     1       0.307  10.274  19.873  0.00  0.00    +0.000 A 
ATOM     24  C   UNL     1      -0.114  10.185  21.213  0.00  0.00    +0.000 A 
ATOM     25  C   UNL     1       0.320   9.151  22.036  0.00  0.00    +0.000 A 
ATOM     26  C   UNL     1       1.161   8.179  21.528  0.00  0.00    +0.000 A 
ATOM     27  C   UNL     1       1.581   8.214  20.190  0.00  0.00    +0.000 A 
ATOM     28  C   UNL     1       2.393   7.188  19.682  0.00  0.00    +0.000 A 
ATOM     29  C   UNL     1       2.808   7.188  18.351  0.00  0.00    +0.000 A 
ATOM     30  C   UNL     1       2.435   8.229  17.515  0.00  0.00    +0.000 A 
ATOM     31  C   UNL     1       1.629   9.257  18.004  0.00  0.00    +0.000 A 
ATOM     32  C   UNL     1       1.169   9.276  19.342  0.00  0.00    +0.000 A 
ENDBRANCH  22  23
ENDBRANCH   9  22
TORSDOF 5
ENDMDL
MODEL 8
REMARK VINA RESULT:      -7.2      2.802      5.348
REMARK  Name = 
REMARK  7 active torsions:
REMARK  status: ('A' for Active; 'I' for Inactive)
REMARK    1  A    between atoms: C_1  and  N_2
REMARK    2  A    between atoms: N_2  and  C_3
REMARK    3  A    between atoms: N_2  and  N_4
REMARK    4  A    between atoms: C_5  and  C_6
REMARK    5  A    between atoms: N_8  and  C_9
REMARK    6  A    between atoms: C_21  and  C_22
REMARK    7  A    between atoms: C_22  and  C_23
REMARK                            x       y       z     vdW  Elec       q    Type
REMARK                         _______ _______ _______ _____ _____    ______ ____
ROOT
ATOM      1  C   UNL     1       2.793   5.241  19.953  0.00  0.00    +0.000 A 
ATOM      2  N   UNL     1       1.881   5.810  20.754  0.00  0.00    +0.000 NA
ATOM      3  N   UNL     1       1.754   7.099  20.324  0.00  0.00    +0.000 N 
ATOM      4  C   UNL     1       2.427   7.290  19.122  0.00  0.00    +0.000 A 
ATOM      5  C   UNL     1       3.147   6.121  18.907  0.00  0.00    +0.000 A 
ATOM      6  C   UNL     1       4.077   5.899  17.765  0.00  0.00    +0.000 C 
ATOM      7  C   UNL     1       4.455   7.223  17.098  0.00  0.00    +0.000 C 
ATOM      8  C   UNL     1       3.219   8.101  16.879  0.00  0.00    +0.000 C 
ATOM      9  C   UNL     1       2.495   8.494  18.203  0.00  0.00    +0.000 C 
ENDROOT
BRANCH   3  10
ATOM     10  C   UNL     1       0.992   7.999  21.133  0.00  0.00    +0.000 A 
ATOM     11  C   UNL     1      -0.405   8.042  21.090  0.00  0.00    +0.000 A 
ATOM     12  C   UNL     1      -1.115   8.881  21.956  0.00  0.00    +0.000 A 
ATOM     13  C   UNL     1      -0.427   9.723  22.819  0.00  0.00    +0.000 A 
ATOM     14  F   UNL     1      -1.112  10.544  23.625  0.00  0.00    +0.000 F 
ATOM     15  C   UNL     1       0.962   9.735  22.844  0.00  0.00    +0.000 A 
ATOM     16  C   UNL     1       1.672   8.876  22.001  0.00  0.00    +0.000 A 
ENDBRANCH   3  10
BRANCH   1  18
ATOM     17  N   UNL     1       3.841   3.204  19.291  0.00  0.00    +0.000 NA
ATOM     18  C   UNL     1       3.287   3.895  20.237  0.00  0.00    +0.000 C 
BRANCH  17  20
ATOM     19  C   UNL     1       3.921   0.882  18.710  0.00  0.00    +0.000 C 
ATOM     20  N   UNL     1       4.358   1.978  19.571  0.00  0.00    +0.000 N 
ATOM     21  C   UNL     1       4.822   1.556  20.886  0.00  0.00    +0.000 C 
ENDBRANCH  17  20
ENDBRANCH   1  18
BRANCH   9  22
ATOM     22  C   UNL     1       1.182   9.243  17.871  0.00  0.00    +0.000 C 
BRANCH  22  23
ATOM     23  C   UNL     1       0.772  10.420  18.734  0.00  0.00    +0.000 A 
ATOM     24  C   UNL     1       1.790  11.143  19.383  0.00  0.00    +0.000 A 
ATOM     25  C   UNL     1       1.500  12.275  20.137  0.00  0.00    +0.000 A 
ATOM     26  C   UNL     1       0.194  12.715  20.238  0.00  0.00    +0.000 A 
ATOM     27  C   UNL     1      -0.848  12.040  19.584  0.00  0.00    +0.000 A 
ATOM     28  C   UNL     1      -2.159  12.535  19.657  0.00  0.00    +0.000 A 
ATOM     29  C   UNL     1      -3.209  11.896  19.000  0.00  0.00    +0.000 A 
ATOM     30  C   UNL     1      -2.966  10.737  18.279  0.00  0.00    +0.000 A 
ATOM     31  C   UNL     1      -1.668  10.231  18.196  0.00  0.00    +0.000 A 
ATOM     32  C   UNL     1      -0.574  10.868  18.830  0.00  0.00    +0.000 A 
ENDBRANCH  22  23
ENDBRANCH   9  22
TORSDOF 5
ENDMDL
MODEL 9
REMARK VINA RESULT:      -7.2      4.433      8.014
REMARK  Name = 
REMARK  7 active torsions:
REMARK  status: ('A' for Active; 'I' for Inactive)
REMARK    1  A    between atoms: C_1  and  N_2
REMARK    2  A    between atoms: N_2  and  C_3
REMARK    3  A    between atoms: N_2  and  N_4
REMARK    4  A    between atoms: C_5  and  C_6
REMARK    5  A    between atoms: N_8  and  C_9
REMARK    6  A    between atoms: C_21  and  C_22
REMARK    7  A    between atoms: C_22  and  C_23
REMARK                            x       y       z     vdW  Elec       q    Type
REMARK                         _______ _______ _______ _____ _____    ______ ____
ROOT
ATOM      1  C   UNL     1       1.215   9.754  18.202  0.00  0.00    +0.000 A 
ATOM      2  N   UNL     1       2.045  10.663  18.734  0.00  0.00    +0.000 NA
ATOM      3  N   UNL     1       1.337  11.828  18.796  0.00  0.00    +0.000 N 
ATOM      4  C   UNL     1      -0.004  11.611  18.501  0.00  0.00    +0.000 A 
ATOM      5  C   UNL     1      -0.081  10.296  18.059  0.00  0.00    +0.000 A 
ATOM      6  C   UNL     1      -1.324   9.642  17.563  0.00  0.00    +0.000 C 
ATOM      7  C   UNL     1      -2.392  10.682  17.216  0.00  0.00    +0.000 C 
ATOM      8  C   UNL     1      -2.508  11.739  18.319  0.00  0.00    +0.000 C 
ATOM      9  C   UNL     1      -1.194  12.551  18.540  0.00  0.00    +0.000 C 
ENDROOT
BRANCH   3  10
ATOM     10  C   UNL     1       2.048  13.022  19.136  0.00  0.00    +0.000 A 
ATOM     11  C   UNL     1       2.541  13.899  18.164  0.00  0.00    +0.000 A 
ATOM     12  C   UNL     1       3.161  15.096  18.539  0.00  0.00    +0.000 A 
ATOM     13  C   UNL     1       3.348  15.384  19.885  0.00  0.00    +0.000 A 
ATOM     14  F   UNL     1       3.968  16.516  20.237  0.00  0.00    +0.000 F 
ATOM     15  C   UNL     1       2.913  14.503  20.867  0.00  0.00    +0.000 A 
ATOM     16  C   UNL     1       2.265  13.322  20.495  0.00  0.00    +0.000 A 
ENDBRANCH   3  10
BRANCH   1  18
ATOM     17  N   UNL     1       2.978   8.176  17.900  0.00  0.00    +0.000 NA
ATOM     18  C   UNL     1       1.707   8.424  17.848  0.00  0.00    +0.000 C 
BRANCH  17  20
ATOM     19  C   UNL     1       2.670   5.825  18.232  0.00  0.00    +0.000 C 
ATOM     20  N   UNL     1       3.427   6.922  17.634  0.00  0.00    +0.000 N 
ATOM     21  C   UNL     1       4.809   6.588  17.312  0.00  0.00    +0.000 C 
ENDBRANCH  17  20
ENDBRANCH   1  18
BRANCH   9  22
ATOM     22  C   UNL     1      -1.360  13.478  19.768  0.00  0.00    +0.000 C 
BRANCH  22  23
ATOM     23  C   UNL     1      -1.913  12.897  21.054  0.00  0.00    +0.000 A 
ATOM     24  C   UNL     1      -1.055  12.102  21.836  0.00  0.00    +0.000 A 
ATOM     25  C   UNL     1      -1.467  11.589  23.062  0.00  0.00    +0.000 A 
ATOM     26  C   UNL     1      -2.733  11.881  23.535  0.00  0.00    +0.000 A 
ATOM     27  C   UNL     1      -3.610  12.693  22.801  0.00  0.00    +0.000 A 
ATOM     28  C   UNL     1      -4.870  13.018  23.326  0.00  0.00    +0.000 A 
ATOM     29  C   UNL     1      -5.752  13.840  22.626  0.00  0.00    +0.000 A 
ATOM     30  C   UNL     1      -5.395  14.328  21.379  0.00  0.00    +0.000 A 
ATOM     31  C   UNL     1      -4.146  14.015  20.843  0.00  0.00    +0.000 A 
ATOM     32  C   UNL     1      -3.215  13.205  21.536  0.00  0.00    +0.000 A 
ENDBRANCH  22  23
ENDBRANCH   9  22
TORSDOF 5
ENDMDL
