MODEL 1
REMARK VINA RESULT:      -7.9      0.000      0.000
REMARK  Name = 
REMARK  5 active torsions:
REMARK  status: ('A' for Active; 'I' for Inactive)
REMARK    1  A    between atoms: C_2  and  C_3
REMARK    2  A    between atoms: C_3  and  C_4
REMARK    3  A    between atoms: N_13  and  C_14
REMARK    4  A    between atoms: C_14  and  C_15
REMARK    5  A    between atoms: C_15  and  N_16
REMARK                            x       y       z     vdW  Elec       q    Type
REMARK                         _______ _______ _______ _____ _____    ______ ____
ROOT
ATOM      1  O   UNL     1       7.520   5.226  17.056  0.00  0.00    +0.000 OA
ATOM      2  C   UNL     1       6.748   6.154  16.825  0.00  0.00    +0.000 C 
ATOM      3  N   UNL     1       7.010   7.458  17.180  0.00  0.00    +0.000 N 
ATOM      4  H   UNL     1       6.284   8.152  17.042  0.00  0.00    +0.000 HD
ENDROOT
BRANCH   2   5
ATOM      5  C   UNL     1       5.413   5.950  16.124  0.00  0.00    +0.000 C 
BRANCH   5   6
ATOM      6  C   UNL     1       4.355   5.329  17.007  0.00  0.00    +0.000 A 
ATOM      7  C   UNL     1       3.856   4.038  16.724  0.00  0.00    +0.000 A 
ATOM      8  C   UNL     1       2.859   3.457  17.515  0.00  0.00    +0.000 A 
ATOM      9  C   UNL     1       2.375   4.173  18.594  0.00  0.00    +0.000 A 
ATOM     10  C   UNL     1       2.849   5.458  18.875  0.00  0.00    +0.000 A 
ATOM     11  C   UNL     1       3.828   6.048  18.092  0.00  0.00    +0.000 A 
ATOM     12  C   UNL     1       2.119   6.048  20.041  0.00  0.00    +0.000 C 
ATOM     13  C   UNL     1       1.543   4.786  20.697  0.00  0.00    +0.000 C 
ATOM     14  C   UNL     1       1.304   3.777  19.563  0.00  0.00    +0.000 C 
ENDBRANCH   5   6
ENDBRANCH   2   5
BRANCH   3  15
ATOM     15  C   UNL     1       8.186   7.837  17.950  0.00  0.00    +0.000 C 
BRANCH  15  16
ATOM     16  C   UNL     1       8.288   9.358  18.099  0.00  0.00    +0.000 C 
BRANCH  16  17
ATOM     17  N   UNL     1       9.090   9.744  19.261  0.00  0.00    +0.000 N 
ATOM     18  C   UNL     1       9.622  11.048  19.140  0.00  0.00    +0.000 A 
ATOM     19  C   UNL     1      10.433  11.570  20.153  0.00  0.00    +0.000 A 
ATOM     20  N   UNL     1      10.987  12.810  20.119  0.00  0.00    +0.000 NA
ATOM     21  C   UNL     1      10.684  13.536  19.023  0.00  0.00    +0.000 A 
ATOM     22  C   UNL     1       9.872  13.046  18.020  0.00  0.00    +0.000 A 
ATOM     23  N   UNL     1       9.326  11.808  18.062  0.00  0.00    +0.000 NA
ATOM     24  H   UNL     1       9.859   9.097  19.428  0.00  0.00    +0.000 HD
ENDBRANCH  16  17
ENDBRANCH  15  16
ENDBRANCH   3  15
TORSDOF 5
ENDMDL
MODEL 2
REMARK VINA RESULT:      -7.8      5.201      6.843
REMARK  Name = 
REMARK  5 active torsions:
REMARK  status: ('A' for Active; 'I' for Inactive)
REMARK    1  A    between atoms: C_2  and  C_3
REMARK    2  A    between atoms: C_3  and  C_4
REMARK    3  A    between atoms: N_13  and  C_14
REMARK    4  A    between atoms: C_14  and  C_15
REMARK    5  A    between atoms: C_15  and  N_16
REMARK                            x       y       z     vdW  Elec       q    Type
REMARK                         _______ _______ _______ _____ _____    ______ ____
ROOT
ATOM      1  O   UNL     1       1.839   5.239  17.883  0.00  0.00    +0.000 OA
ATOM      2  C   UNL     1       2.683   6.011  18.332  0.00  0.00    +0.000 C 
ATOM      3  N   UNL     1       3.626   5.638  19.263  0.00  0.00    +0.000 N 
ATOM      4  H   UNL     1       4.226   6.353  19.657  0.00  0.00    +0.000 HD
ENDROOT
BRANCH   2   5
ATOM      5  C   UNL     1       2.766   7.469  17.904  0.00  0.00    +0.000 C 
BRANCH   5   6
ATOM      6  C   UNL     1       1.890   8.390  18.722  0.00  0.00    +0.000 A 
ATOM      7  C   UNL     1       1.214   9.465  18.105  0.00  0.00    +0.000 A 
ATOM      8  C   UNL     1       0.418  10.344  18.849  0.00  0.00    +0.000 A 
ATOM      9  C   UNL     1       0.298  10.130  20.210  0.00  0.00    +0.000 A 
ATOM     10  C   UNL     1       0.976   9.078  20.834  0.00  0.00    +0.000 A 
ATOM     11  C   UNL     1       1.775   8.209  20.110  0.00  0.00    +0.000 A 
ATOM     12  C   UNL     1       0.744   9.103  22.313  0.00  0.00    +0.000 C 
ATOM     13  C   UNL     1      -0.525   9.964  22.397  0.00  0.00    +0.000 C 
ATOM     14  C   UNL     1      -0.468  10.937  21.210  0.00  0.00    +0.000 C 
ENDBRANCH   5   6
ENDBRANCH   2   5
BRANCH   3  15
ATOM     15  C   UNL     1       3.642   4.315  19.871  0.00  0.00    +0.000 C 
BRANCH  15  16
ATOM     16  C   UNL     1       4.476   3.331  19.044  0.00  0.00    +0.000 C 
BRANCH  16  17
ATOM     17  N   UNL     1       5.834   3.826  18.808  0.00  0.00    +0.000 N 
ATOM     18  C   UNL     1       6.062   4.147  17.451  0.00  0.00    +0.000 A 
ATOM     19  C   UNL     1       7.316   4.614  17.044  0.00  0.00    +0.000 A 
ATOM     20  N   UNL     1       7.623   4.944  15.762  0.00  0.00    +0.000 NA
ATOM     21  C   UNL     1       6.610   4.804  14.882  0.00  0.00    +0.000 A 
ATOM     22  C   UNL     1       5.360   4.361  15.267  0.00  0.00    +0.000 A 
ATOM     23  N   UNL     1       5.064   4.033  16.546  0.00  0.00    +0.000 NA
ATOM     24  H   UNL     1       6.543   3.157  19.104  0.00  0.00    +0.000 HD
ENDBRANCH  16  17
ENDBRANCH  15  16
ENDBRANCH   3  15
TORSDOF 5
ENDMDL
MODEL 3
REMARK VINA RESULT:      -7.8      4.107      6.053
REMARK  Name = 
REMARK  5 active torsions:
REMARK  status: ('A' for Active; 'I' for Inactive)
REMARK    1  A    between atoms: C_2  and  C_3
REMARK    2  A    between atoms: C_3  and  C_4
REMARK    3  A    between atoms: N_13  and  C_14
REMARK    4  A    between atoms: C_14  and  C_15
REMARK    5  A    between atoms: C_15  and  N_16
REMARK                            x       y       z     vdW  Elec       q    Type
REMARK                         _______ _______ _______ _____ _____    ______ ____
ROOT
ATOM      1  O   UNL     1       4.874   6.900  15.583  0.00  0.00    +0.000 OA
ATOM      2  C   UNL     1       4.851   7.033  16.805  0.00  0.00    +0.000 C 
ATOM      3  N   UNL     1       5.945   6.807  17.608  0.00  0.00    +0.000 N 
ATOM      4  H   UNL     1       5.823   6.845  18.614  0.00  0.00    +0.000 HD
ENDROOT
BRANCH   2   5
ATOM      5  C   UNL     1       3.598   7.460  17.556  0.00  0.00    +0.000 C 
BRANCH   5   6
ATOM      6  C   UNL     1       2.933   6.332  18.312  0.00  0.00    +0.000 A 
ATOM      7  C   UNL     1       2.484   6.528  19.636  0.00  0.00    +0.000 A 
ATOM      8  C   UNL     1       1.888   5.489  20.361  0.00  0.00    +0.000 A 
ATOM      9  C   UNL     1       1.739   4.260  19.746  0.00  0.00    +0.000 A 
ATOM     10  C   UNL     1       2.195   4.049  18.441  0.00  0.00    +0.000 A 
ATOM     11  C   UNL     1       2.796   5.067  17.717  0.00  0.00    +0.000 A 
ATOM     12  C   UNL     1       1.987   2.624  18.031  0.00  0.00    +0.000 C 
ATOM     13  C   UNL     1       0.919   2.181  19.042  0.00  0.00    +0.000 C 
ATOM     14  C   UNL     1       1.161   3.003  20.317  0.00  0.00    +0.000 C 
ENDBRANCH   5   6
ENDBRANCH   2   5
BRANCH   3  15
ATOM     15  C   UNL     1       7.204   6.293  17.087  0.00  0.00    +0.000 C 
BRANCH  15  16
ATOM     16  C   UNL     1       7.305   4.775  17.273  0.00  0.00    +0.000 C 
BRANCH  16  17
ATOM     17  N   UNL     1       6.384   4.052  16.395  0.00  0.00    +0.000 N 
ATOM     18  C   UNL     1       6.668   4.259  15.026  0.00  0.00    +0.000 A 
ATOM     19  C   UNL     1       5.871   3.659  14.046  0.00  0.00    +0.000 A 
ATOM     20  N   UNL     1       6.071   3.805  12.711  0.00  0.00    +0.000 NA
ATOM     21  C   UNL     1       7.128   4.574  12.377  0.00  0.00    +0.000 A 
ATOM     22  C   UNL     1       7.938   5.162  13.328  0.00  0.00    +0.000 A 
ATOM     23  N   UNL     1       7.730   5.012  14.656  0.00  0.00    +0.000 NA
ATOM     24  H   UNL     1       5.412   4.309  16.563  0.00  0.00    +0.000 HD
ENDBRANCH  16  17
ENDBRANCH  15  16
ENDBRANCH   3  15
TORSDOF 5
ENDMDL
MODEL 4
REMARK VINA RESULT:      -7.7      0.832      1.693
REMARK  Name = 
REMARK  5 active torsions:
REMARK  status: ('A' for Active; 'I' for Inactive)
REMARK    1  A    between atoms: C_2  and  C_3
REMARK    2  A    between atoms: C_3  and  C_4
REMARK    3  A    between atoms: N_13  and  C_14
REMARK    4  A    between atoms: C_14  and  C_15
REMARK    5  A    between atoms: C_15  and  N_16
REMARK                            x       y       z     vdW  Elec       q    Type
REMARK                         _______ _______ _______ _____ _____    ______ ____
ROOT
ATOM      1  O   UNL     1       6.500   5.767  18.313  0.00  0.00    +0.000 OA
ATOM      2  C   UNL     1       6.097   6.599  17.503  0.00  0.00    +0.000 C 
ATOM      3  N   UNL     1       6.842   7.685  17.105  0.00  0.00    +0.000 N 
ATOM      4  H   UNL     1       6.406   8.379  16.509  0.00  0.00    +0.000 HD
ENDROOT
BRANCH   2   5
ATOM      5  C   UNL     1       4.721   6.511  16.860  0.00  0.00    +0.000 C 
BRANCH   5   6
ATOM      6  C   UNL     1       3.711   5.756  17.693  0.00  0.00    +0.000 A 
ATOM      7  C   UNL     1       3.094   6.377  18.801  0.00  0.00    +0.000 A 
ATOM      8  C   UNL     1       2.175   5.687  19.600  0.00  0.00    +0.000 A 
ATOM      9  C   UNL     1       1.874   4.377  19.274  0.00  0.00    +0.000 A 
ATOM     10  C   UNL     1       2.491   3.747  18.189  0.00  0.00    +0.000 A 
ATOM     11  C   UNL     1       3.411   4.417  17.397  0.00  0.00    +0.000 A 
ATOM     12  C   UNL     1       2.055   2.318  18.089  0.00  0.00    +0.000 C 
ATOM     13  C   UNL     1       0.761   2.347  18.914  0.00  0.00    +0.000 C 
ATOM     14  C   UNL     1       0.951   3.435  19.982  0.00  0.00    +0.000 C 
ENDBRANCH   5   6
ENDBRANCH   2   5
BRANCH   3  15
ATOM     15  C   UNL     1       8.140   7.998  17.687  0.00  0.00    +0.000 C 
BRANCH  15  16
ATOM     16  C   UNL     1       8.241   9.481  18.061  0.00  0.00    +0.000 C 
BRANCH  16  17
ATOM     17  N   UNL     1       9.122   9.699  19.209  0.00  0.00    +0.000 N 
ATOM     18  C   UNL     1       9.602  11.026  19.275  0.00  0.00    +0.000 A 
ATOM     19  C   UNL     1      10.476  11.405  20.300  0.00  0.00    +0.000 A 
ATOM     20  N   UNL     1      10.987  12.656  20.438  0.00  0.00    +0.000 NA
ATOM     21  C   UNL     1      10.575  13.542  19.509  0.00  0.00    +0.000 A 
ATOM     22  C   UNL     1       9.700  13.194  18.499  0.00  0.00    +0.000 A 
ATOM     23  N   UNL     1       9.197  11.945  18.369  0.00  0.00    +0.000 NA
ATOM     24  H   UNL     1       9.921   9.068  19.205  0.00  0.00    +0.000 HD
ENDBRANCH  16  17
ENDBRANCH  15  16
ENDBRANCH   3  15
TORSDOF 5
ENDMDL
MODEL 5
REMARK VINA RESULT:      -7.6      4.465      6.283
REMARK  Name = 
REMARK  5 active torsions:
REMARK  status: ('A' for Active; 'I' for Inactive)
REMARK    1  A    between atoms: C_2  and  C_3
REMARK    2  A    between atoms: C_3  and  C_4
REMARK    3  A    between atoms: N_13  and  C_14
REMARK    4  A    between atoms: C_14  and  C_15
REMARK    5  A    between atoms: C_15  and  N_16
REMARK                            x       y       z     vdW  Elec       q    Type
REMARK                         _______ _______ _______ _____ _____    ______ ____
ROOT
ATOM      1  O   UNL     1       5.689   7.414  16.307  0.00  0.00    +0.000 OA
ATOM      2  C   UNL     1       5.085   6.940  17.267  0.00  0.00    +0.000 C 
ATOM      3  N   UNL     1       5.646   6.030  18.134  0.00  0.00    +0.000 N 
ATOM      4  H   UNL     1       5.056   5.613  18.845  0.00  0.00    +0.000 HD
ENDROOT
BRANCH   2   5
ATOM      5  C   UNL     1       3.646   7.312  17.590  0.00  0.00    +0.000 C 
BRANCH   5   6
ATOM      6  C   UNL     1       2.913   6.256  18.385  0.00  0.00    +0.000 A 
ATOM      7  C   UNL     1       2.512   6.514  19.715  0.00  0.00    +0.000 A 
ATOM      8  C   UNL     1       1.855   5.540  20.475  0.00  0.00    +0.000 A 
ATOM      9  C   UNL     1       1.595   4.314  19.892  0.00  0.00    +0.000 A 
ATOM     10  C   UNL     1       2.002   4.041  18.582  0.00  0.00    +0.000 A 
ATOM     11  C   UNL     1       2.663   4.993  17.823  0.00  0.00    +0.000 A 
ATOM     12  C   UNL     1       1.672   2.629  18.209  0.00  0.00    +0.000 C 
ATOM     13  C   UNL     1       0.598   2.293  19.253  0.00  0.00    +0.000 C 
ATOM     14  C   UNL     1       0.934   3.119  20.504  0.00  0.00    +0.000 C 
ENDBRANCH   5   6
ENDBRANCH   2   5
BRANCH   3  15
ATOM     15  C   UNL     1       6.976   5.474  17.931  0.00  0.00    +0.000 C 
BRANCH  15  16
ATOM     16  C   UNL     1       7.017   4.564  16.699  0.00  0.00    +0.000 C 
BRANCH  16  17
ATOM     17  N   UNL     1       7.638   5.223  15.549  0.00  0.00    +0.000 N 
ATOM     18  C   UNL     1       7.214   4.675  14.318  0.00  0.00    +0.000 A 
ATOM     19  C   UNL     1       7.726   5.172  13.116  0.00  0.00    +0.000 A 
ATOM     20  N   UNL     1       7.375   4.704  11.890  0.00  0.00    +0.000 NA
ATOM     21  C   UNL     1       6.463   3.710  11.902  0.00  0.00    +0.000 A 
ATOM     22  C   UNL     1       5.932   3.216  13.077  0.00  0.00    +0.000 A 
ATOM     23  N   UNL     1       6.289   3.688  14.294  0.00  0.00    +0.000 NA
ATOM     24  H   UNL     1       8.655   5.181  15.586  0.00  0.00    +0.000 HD
ENDBRANCH  16  17
ENDBRANCH  15  16
ENDBRANCH   3  15
TORSDOF 5
ENDMDL
MODEL 6
REMARK VINA RESULT:      -7.4      1.602      2.486
REMARK  Name = 
REMARK  5 active torsions:
REMARK  status: ('A' for Active; 'I' for Inactive)
REMARK    1  A    between atoms: C_2  and  C_3
REMARK    2  A    between atoms: C_3  and  C_4
REMARK    3  A    between atoms: N_13  and  C_14
REMARK    4  A    between atoms: C_14  and  C_15
REMARK    5  A    between atoms: C_15  and  N_16
REMARK                            x       y       z     vdW  Elec       q    Type
REMARK                         _______ _______ _______ _____ _____    ______ ____
ROOT
ATOM      1  O   UNL     1       8.062   6.646  18.842  0.00  0.00    +0.000 OA
ATOM      2  C   UNL     1       7.715   7.202  17.802  0.00  0.00    +0.000 C 
ATOM      3  N   UNL     1       7.940   8.536  17.551  0.00  0.00    +0.000 N 
ATOM      4  H   UNL     1       7.540   8.945  16.713  0.00  0.00    +0.000 HD
ENDROOT
BRANCH   2   5
ATOM      5  C   UNL     1       6.991   6.465  16.685  0.00  0.00    +0.000 C 
BRANCH   5   6
ATOM      6  C   UNL     1       5.621   5.965  17.080  0.00  0.00    +0.000 A 
ATOM      7  C   UNL     1       4.596   6.879  17.411  0.00  0.00    +0.000 A 
ATOM      8  C   UNL     1       3.328   6.435  17.802  0.00  0.00    +0.000 A 
ATOM      9  C   UNL     1       3.093   5.073  17.850  0.00  0.00    +0.000 A 
ATOM     10  C   UNL     1       4.105   4.159  17.540  0.00  0.00    +0.000 A 
ATOM     11  C   UNL     1       5.368   4.587  17.162  0.00  0.00    +0.000 A 
ATOM     12  C   UNL     1       3.627   2.754  17.737  0.00  0.00    +0.000 C 
ATOM     13  C   UNL     1       2.105   2.955  17.704  0.00  0.00    +0.000 C 
ATOM     14  C   UNL     1       1.840   4.363  18.257  0.00  0.00    +0.000 C 
ENDBRANCH   5   6
ENDBRANCH   2   5
BRANCH   3  15
ATOM     15  C   UNL     1       8.524   9.431  18.540  0.00  0.00    +0.000 C 
BRANCH  15  16
ATOM     16  C   UNL     1       9.371  10.521  17.875  0.00  0.00    +0.000 C 
BRANCH  16  17
ATOM     17  N   UNL     1       8.869  11.864  18.170  0.00  0.00    +0.000 N 
ATOM     18  C   UNL     1       9.785  12.875  17.804  0.00  0.00    +0.000 A 
ATOM     19  C   UNL     1       9.475  14.219  18.036  0.00  0.00    +0.000 A 
ATOM     20  N   UNL     1      10.296  15.253  17.718  0.00  0.00    +0.000 NA
ATOM     21  C   UNL     1      11.457  14.896  17.133  0.00  0.00    +0.000 A 
ATOM     22  C   UNL     1      11.776  13.577  16.879  0.00  0.00    +0.000 A 
ATOM     23  N   UNL     1      10.952  12.553  17.201  0.00  0.00    +0.000 NA
ATOM     24  H   UNL     1       8.639  11.979  19.156  0.00  0.00    +0.000 HD
ENDBRANCH  16  17
ENDBRANCH  15  16
ENDBRANCH   3  15
TORSDOF 5
ENDMDL
MODEL 7
REMARK VINA RESULT:      -7.4      5.605      7.260
REMARK  Name = 
REMARK  5 active torsions:
REMARK  status: ('A' for Active; 'I' for Inactive)
REMARK    1  A    between atoms: C_2  and  C_3
REMARK    2  A    between atoms: C_3  and  C_4
REMARK    3  A    between atoms: N_13  and  C_14
REMARK    4  A    between atoms: C_14  and  C_15
REMARK    5  A    between atoms: C_15  and  N_16
REMARK                            x       y       z     vdW  Elec       q    Type
REMARK                         _______ _______ _______ _____ _____    ______ ____
ROOT
ATOM      1  O   UNL     1       0.659   9.054  17.347  0.00  0.00    +0.000 OA
ATOM      2  C   UNL     1       1.739   9.214  17.913  0.00  0.00    +0.000 C 
ATOM      3  N   UNL     1       2.080  10.374  18.570  0.00  0.00    +0.000 N 
ATOM      4  H   UNL     1       3.024  10.467  18.929  0.00  0.00    +0.000 HD
ENDROOT
BRANCH   2   5
ATOM      5  C   UNL     1       2.816   8.139  17.937  0.00  0.00    +0.000 C 
BRANCH   5   6
ATOM      6  C   UNL     1       2.382   6.865  18.624  0.00  0.00    +0.000 A 
ATOM      7  C   UNL     1       2.098   6.861  20.007  0.00  0.00    +0.000 A 
ATOM      8  C   UNL     1       1.719   5.686  20.667  0.00  0.00    +0.000 A 
ATOM      9  C   UNL     1       1.618   4.521  19.929  0.00  0.00    +0.000 A 
ATOM     10  C   UNL     1       1.912   4.509  18.562  0.00  0.00    +0.000 A 
ATOM     11  C   UNL     1       2.299   5.664  17.900  0.00  0.00    +0.000 A 
ATOM     12  C   UNL     1       1.800   3.122  18.009  0.00  0.00    +0.000 C 
ATOM     13  C   UNL     1       0.933   2.448  19.080  0.00  0.00    +0.000 C 
ATOM     14  C   UNL     1       1.258   3.150  20.408  0.00  0.00    +0.000 C 
ENDBRANCH   5   6
ENDBRANCH   2   5
BRANCH   3  15
ATOM     15  C   UNL     1       1.226  11.553  18.568  0.00  0.00    +0.000 C 
BRANCH  15  16
ATOM     16  C   UNL     1       1.545  12.474  19.751  0.00  0.00    +0.000 C 
BRANCH  16  17
ATOM     17  N   UNL     1       0.397  12.639  20.644  0.00  0.00    +0.000 N 
ATOM     18  C   UNL     1       0.242  11.550  21.530  0.00  0.00    +0.000 A 
ATOM     19  C   UNL     1      -0.819  11.533  22.440  0.00  0.00    +0.000 A 
ATOM     20  N   UNL     1      -1.044  10.527  23.326  0.00  0.00    +0.000 NA
ATOM     21  C   UNL     1      -0.144   9.523  23.283  0.00  0.00    +0.000 A 
ATOM     22  C   UNL     1       0.921   9.529  22.405  0.00  0.00    +0.000 A 
ATOM     23  N   UNL     1       1.135  10.534  21.525  0.00  0.00    +0.000 NA
ATOM     24  H   UNL     1      -0.474  12.762  20.130  0.00  0.00    +0.000 HD
ENDBRANCH  16  17
ENDBRANCH  15  16
ENDBRANCH   3  15
TORSDOF 5
ENDMDL
MODEL 8
REMARK VINA RESULT:      -7.3      1.430      2.119
REMARK  Name = 
REMARK  5 active torsions:
REMARK  status: ('A' for Active; 'I' for Inactive)
REMARK    1  A    between atoms: C_2  and  C_3
REMARK    2  A    between atoms: C_3  and  C_4
REMARK    3  A    between atoms: N_13  and  C_14
REMARK    4  A    between atoms: C_14  and  C_15
REMARK    5  A    between atoms: C_15  and  N_16
REMARK                            x       y       z     vdW  Elec       q    Type
REMARK                         _______ _______ _______ _____ _____    ______ ____
ROOT
ATOM      1  O   UNL     1       7.536   6.430  16.286  0.00  0.00    +0.000 OA
ATOM      2  C   UNL     1       7.444   6.512  17.509  0.00  0.00    +0.000 C 
ATOM      3  N   UNL     1       7.713   7.667  18.208  0.00  0.00    +0.000 N 
ATOM      4  H   UNL     1       7.708   7.631  19.221  0.00  0.00    +0.000 HD
ENDROOT
BRANCH   2   5
ATOM      5  C   UNL     1       7.026   5.335  18.377  0.00  0.00    +0.000 C 
BRANCH   5   6
ATOM      6  C   UNL     1       5.549   5.022  18.302  0.00  0.00    +0.000 A 
ATOM      7  C   UNL     1       4.642   5.981  17.800  0.00  0.00    +0.000 A 
ATOM      8  C   UNL     1       3.268   5.720  17.746  0.00  0.00    +0.000 A 
ATOM      9  C   UNL     1       2.814   4.492  18.189  0.00  0.00    +0.000 A 
ATOM     10  C   UNL     1       3.701   3.541  18.704  0.00  0.00    +0.000 A 
ATOM     11  C   UNL     1       5.062   3.792  18.772  0.00  0.00    +0.000 A 
ATOM     12  C   UNL     1       2.960   2.331  19.182  0.00  0.00    +0.000 C 
ATOM     13  C   UNL     1       1.630   2.485  18.431  0.00  0.00    +0.000 C 
ATOM     14  C   UNL     1       1.404   3.993  18.252  0.00  0.00    +0.000 C 
ENDBRANCH   5   6
ENDBRANCH   2   5
BRANCH   3  15
ATOM     15  C   UNL     1       8.226   8.868  17.565  0.00  0.00    +0.000 C 
BRANCH  15  16
ATOM     16  C   UNL     1       8.847   9.826  18.588  0.00  0.00    +0.000 C 
BRANCH  16  17
ATOM     17  N   UNL     1       8.911  11.199  18.086  0.00  0.00    +0.000 N 
ATOM     18  C   UNL     1      10.026  11.906  18.590  0.00  0.00    +0.000 A 
ATOM     19  C   UNL     1      10.229  13.242  18.230  0.00  0.00    +0.000 A 
ATOM     20  N   UNL     1      11.271  13.996  18.667  0.00  0.00    +0.000 NA
ATOM     21  C   UNL     1      12.133  13.353  19.482  0.00  0.00    +0.000 A 
ATOM     22  C   UNL     1      11.960  12.030  19.836  0.00  0.00    +0.000 A 
ATOM     23  N   UNL     1      10.918  11.288  19.396  0.00  0.00    +0.000 NA
ATOM     24  H   UNL     1       8.068  11.728  18.308  0.00  0.00    +0.000 HD
ENDBRANCH  16  17
ENDBRANCH  15  16
ENDBRANCH   3  15
TORSDOF 5
ENDMDL
MODEL 9
REMARK VINA RESULT:      -7.3      1.173      1.673
REMARK  Name = 
REMARK  5 active torsions:
REMARK  status: ('A' for Active; 'I' for Inactive)
REMARK    1  A    between atoms: C_2  and  C_3
REMARK    2  A    between atoms: C_3  and  C_4
REMARK    3  A    between atoms: N_13  and  C_14
REMARK    4  A    between atoms: C_14  and  C_15
REMARK    5  A    between atoms: C_15  and  N_16
REMARK                            x       y       z     vdW  Elec       q    Type
REMARK                         _______ _______ _______ _____ _____    ______ ____
ROOT
ATOM      1  O   UNL     1       6.036   6.229  15.678  0.00  0.00    +0.000 OA
ATOM      2  C   UNL     1       5.558   6.663  16.724  0.00  0.00    +0.000 C 
ATOM      3  N   UNL     1       6.326   7.115  17.773  0.00  0.00    +0.000 N 
ATOM      4  H   UNL     1       5.863   7.367  18.638  0.00  0.00    +0.000 HD
ENDROOT
BRANCH   2   5
ATOM      5  C   UNL     1       4.058   6.737  16.967  0.00  0.00    +0.000 C 
BRANCH   5   6
ATOM      6  C   UNL     1       3.487   5.496  17.613  0.00  0.00    +0.000 A 
ATOM      7  C   UNL     1       3.809   4.217  17.108  0.00  0.00    +0.000 A 
ATOM      8  C   UNL     1       3.271   3.057  17.677  0.00  0.00    +0.000 A 
ATOM      9  C   UNL     1       2.420   3.188  18.758  0.00  0.00    +0.000 A 
ATOM     10  C   UNL     1       2.081   4.450  19.257  0.00  0.00    +0.000 A 
ATOM     11  C   UNL     1       2.599   5.606  18.694  0.00  0.00    +0.000 A 
ATOM     12  C   UNL     1       1.092   4.330  20.374  0.00  0.00    +0.000 C 
ATOM     13  C   UNL     1       1.290   2.864  20.785  0.00  0.00    +0.000 C 
ATOM     14  C   UNL     1       1.709   2.110  19.514  0.00  0.00    +0.000 C 
ENDBRANCH   5   6
ENDBRANCH   2   5
BRANCH   3  15
ATOM     15  C   UNL     1       7.780   7.027  17.772  0.00  0.00    +0.000 C 
BRANCH  15  16
ATOM     16  C   UNL     1       8.409   8.192  18.542  0.00  0.00    +0.000 C 
BRANCH  16  17
ATOM     17  N   UNL     1       8.346   9.446  17.789  0.00  0.00    +0.000 N 
ATOM     18  C   UNL     1       8.907  10.531  18.500  0.00  0.00    +0.000 A 
ATOM     19  C   UNL     1       8.911  11.811  17.936  0.00  0.00    +0.000 A 
ATOM     20  N   UNL     1       9.427  12.908  18.548  0.00  0.00    +0.000 NA
ATOM     21  C   UNL     1       9.966  12.679  19.763  0.00  0.00    +0.000 A 
ATOM     22  C   UNL     1       9.989  11.420  20.330  0.00  0.00    +0.000 A 
ATOM     23  N   UNL     1       9.471  10.333  19.713  0.00  0.00    +0.000 NA
ATOM     24  H   UNL     1       7.392   9.691  17.530  0.00  0.00    +0.000 HD
ENDBRANCH  16  17
ENDBRANCH  15  16
ENDBRANCH   3  15
TORSDOF 5
ENDMDL
