MODEL 1
REMARK VINA RESULT:      -7.2      0.000      0.000
REMARK  Name = 
REMARK  8 active torsions:
REMARK  status: ('A' for Active; 'I' for Inactive)
REMARK    1  A    between atoms: C_1  and  C_2
REMARK    2  A    between atoms: C_5  and  C_6
REMARK    3  A    between atoms: C_6  and  O_8
REMARK    4  A    between atoms: O_8  and  C_9
REMARK    5  A    between atoms: C_9  and  C_10
REMARK    6  A    between atoms: N_12  and  C_13
REMARK    7  A    between atoms: C_17  and  S_18
REMARK    8  A    between atoms: S_18  and  N_19
REMARK                            x       y       z     vdW  Elec       q    Type
REMARK                         _______ _______ _______ _____ _____    ______ ____
ROOT
ATOM      1  C   UNL     1       2.640   4.252  17.615  0.00  0.00    +0.000 C 
ATOM      2  O   UNL     1       1.446   4.391  17.351  0.00  0.00    +0.000 OA
ATOM      3  N   UNL     1       3.315   4.998  18.577  0.00  0.00    +0.000 N 
ATOM      4  H   UNL     1       4.274   5.235  18.342  0.00  0.00    +0.000 HD
ENDROOT
BRANCH   3   5
ATOM      5  C   UNL     1       2.606   5.964  19.349  0.00  0.00    +0.000 A 
ATOM      6  C   UNL     1       1.935   5.630  20.543  0.00  0.00    +0.000 A 
ATOM      7 CL   UNL     1       2.129   4.090  21.313  0.00  0.00    +0.000 Cl
ATOM      8  C   UNL     1       1.196   6.592  21.238  0.00  0.00    +0.000 A 
ATOM      9  C   UNL     1       1.153   7.900  20.762  0.00  0.00    +0.000 A 
ATOM     10  C   UNL     1       1.838   8.265  19.601  0.00  0.00    +0.000 A 
ATOM     11  C   UNL     1       2.580   7.301  18.915  0.00  0.00    +0.000 A 
ATOM     12 CL   UNL     1       3.437   7.794  17.494  0.00  0.00    +0.000 Cl
BRANCH   9  13
ATOM     13  S   UNL     1       0.286   9.137  21.678  0.00  0.00    +0.000 S 
ATOM     14  O   UNL     1      -0.804   8.517  22.395  0.00  0.00    +0.000 OA
ATOM     15  O   UNL     1       1.237  10.021  22.315  0.00  0.00    +0.000 OA
BRANCH  13  16
ATOM     16  N   UNL     1      -0.401  10.012  20.426  0.00  0.00    +0.000 NA
ATOM     17  H   UNL     1      -1.370  10.250  20.646  0.00  0.00    +0.000 HD
ATOM     18  H   UNL     1       0.180  10.815  20.188  0.00  0.00    +0.000 HD
ENDBRANCH  13  16
ENDBRANCH   9  13
ENDBRANCH   3   5
BRANCH   1  19
ATOM     19  C   UNL     1       3.528   3.277  16.842  0.00  0.00    +0.000 C 
BRANCH  19  20
ATOM     20  O   UNL     1       4.915   3.499  17.097  0.00  0.00    +0.000 OA
BRANCH  20  21
ATOM     21  C   UNL     1       5.481   4.484  16.338  0.00  0.00    +0.000 C 
ATOM     22  O   UNL     1       5.277   4.633  15.140  0.00  0.00    +0.000 OA
BRANCH  21  27
ATOM     23  C   UNL     1       7.879   8.516  17.532  0.00  0.00    +0.000 C 
ATOM     24  C   UNL     1       7.482   7.107  17.720  0.00  0.00    +0.000 A 
ATOM     25  C   UNL     1       7.808   6.148  18.652  0.00  0.00    +0.000 A 
ATOM     26  C   UNL     1       7.098   4.978  18.283  0.00  0.00    +0.000 A 
ATOM     27  C   UNL     1       6.376   5.288  17.143  0.00  0.00    +0.000 A 
ATOM     28  O   UNL     1       6.612   6.598  16.806  0.00  0.00    +0.000 OA
ENDBRANCH  21  27
ENDBRANCH  20  21
ENDBRANCH  19  20
ENDBRANCH   1  19
TORSDOF 7
ENDMDL
MODEL 2
REMARK VINA RESULT:      -7.2      2.115      3.726
REMARK  Name = 
REMARK  8 active torsions:
REMARK  status: ('A' for Active; 'I' for Inactive)
REMARK    1  A    between atoms: C_1  and  C_2
REMARK    2  A    between atoms: C_5  and  C_6
REMARK    3  A    between atoms: C_6  and  O_8
REMARK    4  A    between atoms: O_8  and  C_9
REMARK    5  A    between atoms: C_9  and  C_10
REMARK    6  A    between atoms: N_12  and  C_13
REMARK    7  A    between atoms: C_17  and  S_18
REMARK    8  A    between atoms: S_18  and  N_19
REMARK                            x       y       z     vdW  Elec       q    Type
REMARK                         _______ _______ _______ _____ _____    ______ ____
ROOT
ATOM      1  C   UNL     1       4.664   5.042  18.436  0.00  0.00    +0.000 C 
ATOM      2  O   UNL     1       5.334   5.627  19.286  0.00  0.00    +0.000 OA
ATOM      3  N   UNL     1       3.292   5.211  18.276  0.00  0.00    +0.000 N 
ATOM      4  H   UNL     1       2.781   4.371  18.022  0.00  0.00    +0.000 HD
ENDROOT
BRANCH   3   5
ATOM      5  C   UNL     1       2.592   6.138  19.102  0.00  0.00    +0.000 A 
ATOM      6  C   UNL     1       2.508   7.511  18.793  0.00  0.00    +0.000 A 
ATOM      7 CL   UNL     1       3.014   8.145  17.263  0.00  0.00    +0.000 Cl
ATOM      8  C   UNL     1       1.869   8.399  19.662  0.00  0.00    +0.000 A 
ATOM      9  C   UNL     1       1.280   7.915  20.828  0.00  0.00    +0.000 A 
ATOM     10  C   UNL     1       1.318   6.554  21.140  0.00  0.00    +0.000 A 
ATOM     11  C   UNL     1       1.952   5.671  20.264  0.00  0.00    +0.000 A 
ATOM     12 CL   UNL     1       1.960   3.988  20.670  0.00  0.00    +0.000 Cl
BRANCH   9  13
ATOM     13  S   UNL     1       0.403   9.020  21.890  0.00  0.00    +0.000 S 
ATOM     14  O   UNL     1      -0.836   8.402  22.299  0.00  0.00    +0.000 OA
ATOM     15  O   UNL     1       1.327   9.616  22.832  0.00  0.00    +0.000 OA
BRANCH  13  16
ATOM     16  N   UNL     1       0.000  10.229  20.802  0.00  0.00    +0.000 NA
ATOM     17  H   UNL     1       0.834  10.743  20.515  0.00  0.00    +0.000 HD
ATOM     18  H   UNL     1      -0.540   9.847  20.027  0.00  0.00    +0.000 HD
ENDBRANCH  13  16
ENDBRANCH   9  13
ENDBRANCH   3   5
BRANCH   1  19
ATOM     19  C   UNL     1       5.279   3.995  17.505  0.00  0.00    +0.000 C 
BRANCH  19  20
ATOM     20  O   UNL     1       5.378   4.467  16.162  0.00  0.00    +0.000 OA
BRANCH  20  21
ATOM     21  C   UNL     1       6.657   4.663  15.722  0.00  0.00    +0.000 C 
ATOM     22  O   UNL     1       7.584   5.022  16.438  0.00  0.00    +0.000 OA
BRANCH  21  27
ATOM     23  C   UNL     1       5.496   2.475  11.563  0.00  0.00    +0.000 C 
ATOM     24  C   UNL     1       6.236   3.455  12.382  0.00  0.00    +0.000 A 
ATOM     25  C   UNL     1       7.193   4.401  12.091  0.00  0.00    +0.000 A 
ATOM     26  C   UNL     1       7.518   5.027  13.321  0.00  0.00    +0.000 A 
ATOM     27  C   UNL     1       6.741   4.426  14.297  0.00  0.00    +0.000 A 
ATOM     28  O   UNL     1       5.953   3.466  13.713  0.00  0.00    +0.000 OA
ENDBRANCH  21  27
ENDBRANCH  20  21
ENDBRANCH  19  20
ENDBRANCH   1  19
TORSDOF 7
ENDMDL
MODEL 3
REMARK VINA RESULT:      -7.2      2.212      3.343
REMARK  Name = 
REMARK  8 active torsions:
REMARK  status: ('A' for Active; 'I' for Inactive)
REMARK    1  A    between atoms: C_1  and  C_2
REMARK    2  A    between atoms: C_5  and  C_6
REMARK    3  A    between atoms: C_6  and  O_8
REMARK    4  A    between atoms: O_8  and  C_9
REMARK    5  A    between atoms: C_9  and  C_10
REMARK    6  A    between atoms: N_12  and  C_13
REMARK    7  A    between atoms: C_17  and  S_18
REMARK    8  A    between atoms: S_18  and  N_19
REMARK                            x       y       z     vdW  Elec       q    Type
REMARK                         _______ _______ _______ _____ _____    ______ ____
ROOT
ATOM      1  C   UNL     1       4.492   4.876  18.390  0.00  0.00    +0.000 C 
ATOM      2  O   UNL     1       5.215   5.366  19.257  0.00  0.00    +0.000 OA
ATOM      3  N   UNL     1       3.141   5.178  18.244  0.00  0.00    +0.000 N 
ATOM      4  H   UNL     1       2.554   4.398  17.962  0.00  0.00    +0.000 HD
ENDROOT
BRANCH   3   5
ATOM      5  C   UNL     1       2.531   6.134  19.107  0.00  0.00    +0.000 A 
ATOM      6  C   UNL     1       1.943   5.773  20.337  0.00  0.00    +0.000 A 
ATOM      7 CL   UNL     1       2.141   4.197  21.028  0.00  0.00    +0.000 Cl
ATOM      8  C   UNL     1       1.297   6.729  21.126  0.00  0.00    +0.000 A 
ATOM      9  C   UNL     1       1.264   8.057  20.706  0.00  0.00    +0.000 A 
ATOM     10  C   UNL     1       1.869   8.447  19.508  0.00  0.00    +0.000 A 
ATOM     11  C   UNL     1       2.519   7.488  18.729  0.00  0.00    +0.000 A 
ATOM     12 CL   UNL     1       3.278   8.011  17.264  0.00  0.00    +0.000 Cl
BRANCH   9  13
ATOM     13  S   UNL     1       0.517   9.282  21.735  0.00  0.00    +0.000 S 
ATOM     14  O   UNL     1       1.450   9.666  22.768  0.00  0.00    +0.000 OA
ATOM     15  O   UNL     1      -0.175  10.248  20.909  0.00  0.00    +0.000 OA
BRANCH  13  16
ATOM     16  N   UNL     1      -0.672   8.366  22.479  0.00  0.00    +0.000 NA
ATOM     17  H   UNL     1      -0.778   7.467  22.006  0.00  0.00    +0.000 HD
ATOM     18  H   UNL     1      -0.493   8.291  23.480  0.00  0.00    +0.000 HD
ENDBRANCH  13  16
ENDBRANCH   9  13
ENDBRANCH   3   5
BRANCH   1  19
ATOM     19  C   UNL     1       5.005   3.813  17.419  0.00  0.00    +0.000 C 
BRANCH  19  20
ATOM     20  O   UNL     1       5.186   4.333  16.102  0.00  0.00    +0.000 OA
BRANCH  20  21
ATOM     21  C   UNL     1       6.490   4.487  15.727  0.00  0.00    +0.000 C 
ATOM     22  O   UNL     1       7.398   4.781  16.495  0.00  0.00    +0.000 OA
BRANCH  21  27
ATOM     23  C   UNL     1       5.541   2.378  11.474  0.00  0.00    +0.000 C 
ATOM     24  C   UNL     1       6.221   3.358  12.343  0.00  0.00    +0.000 A 
ATOM     25  C   UNL     1       7.155   4.343  12.111  0.00  0.00    +0.000 A 
ATOM     26  C   UNL     1       7.419   4.944  13.366  0.00  0.00    +0.000 A 
ATOM     27  C   UNL     1       6.630   4.292  14.299  0.00  0.00    +0.000 A 
ATOM     28  O   UNL     1       5.894   3.324  13.663  0.00  0.00    +0.000 OA
ENDBRANCH  21  27
ENDBRANCH  20  21
ENDBRANCH  19  20
ENDBRANCH   1  19
TORSDOF 7
ENDMDL
MODEL 4
REMARK VINA RESULT:      -7.1      0.185      1.836
REMARK  Name = 
REMARK  8 active torsions:
REMARK  status: ('A' for Active; 'I' for Inactive)
REMARK    1  A    between atoms: C_1  and  C_2
REMARK    2  A    between atoms: C_5  and  C_6
REMARK    3  A    between atoms: C_6  and  O_8
REMARK    4  A    between atoms: O_8  and  C_9
REMARK    5  A    between atoms: C_9  and  C_10
REMARK    6  A    between atoms: N_12  and  C_13
REMARK    7  A    between atoms: C_17  and  S_18
REMARK    8  A    between atoms: S_18  and  N_19
REMARK                            x       y       z     vdW  Elec       q    Type
REMARK                         _______ _______ _______ _____ _____    ______ ____
ROOT
ATOM      1  C   UNL     1       2.642   4.135  17.733  0.00  0.00    +0.000 C 
ATOM      2  O   UNL     1       1.489   4.334  17.351  0.00  0.00    +0.000 OA
ATOM      3  N   UNL     1       3.270   4.875  18.731  0.00  0.00    +0.000 N 
ATOM      4  H   UNL     1       4.260   5.045  18.581  0.00  0.00    +0.000 HD
ENDROOT
BRANCH   3   5
ATOM      5  C   UNL     1       2.555   5.911  19.400  0.00  0.00    +0.000 A 
ATOM      6  C   UNL     1       2.562   7.246  18.946  0.00  0.00    +0.000 A 
ATOM      7 CL   UNL     1       3.212   7.695  17.405  0.00  0.00    +0.000 Cl
ATOM      8  C   UNL     1       1.902   8.246  19.666  0.00  0.00    +0.000 A 
ATOM      9  C   UNL     1       1.203   7.911  20.824  0.00  0.00    +0.000 A 
ATOM     10  C   UNL     1       1.152   6.590  21.275  0.00  0.00    +0.000 A 
ATOM     11  C   UNL     1       1.807   5.595  20.548  0.00  0.00    +0.000 A 
ATOM     12 CL   UNL     1       1.702   3.966  21.122  0.00  0.00    +0.000 Cl
BRANCH   9  13
ATOM     13  S   UNL     1       0.304   9.157  21.694  0.00  0.00    +0.000 S 
ATOM     14  O   UNL     1      -0.818   8.547  22.368  0.00  0.00    +0.000 OA
ATOM     15  O   UNL     1       1.232  10.041  22.366  0.00  0.00    +0.000 OA
BRANCH  13  16
ATOM     16  N   UNL     1      -0.325  10.029  20.409  0.00  0.00    +0.000 NA
ATOM     17  H   UNL     1       0.167   9.795  19.545  0.00  0.00    +0.000 HD
ATOM     18  H   UNL     1      -1.336   9.911  20.357  0.00  0.00    +0.000 HD
ENDBRANCH  13  16
ENDBRANCH   9  13
ENDBRANCH   3   5
BRANCH   1  19
ATOM     19  C   UNL     1       3.535   3.079  17.080  0.00  0.00    +0.000 C 
BRANCH  19  20
ATOM     20  O   UNL     1       4.921   3.343  17.297  0.00  0.00    +0.000 OA
BRANCH  20  21
ATOM     21  C   UNL     1       5.439   4.335  16.513  0.00  0.00    +0.000 C 
ATOM     22  O   UNL     1       5.195   4.469  15.321  0.00  0.00    +0.000 OA
BRANCH  21  27
ATOM     23  C   UNL     1       7.829   8.413  17.558  0.00  0.00    +0.000 C 
ATOM     24  C   UNL     1       7.442   7.008  17.793  0.00  0.00    +0.000 A 
ATOM     25  C   UNL     1       7.784   6.079  18.749  0.00  0.00    +0.000 A 
ATOM     26  C   UNL     1       7.076   4.895  18.423  0.00  0.00    +0.000 A 
ATOM     27  C   UNL     1       6.339   5.167  17.283  0.00  0.00    +0.000 A 
ATOM     28  O   UNL     1       6.564   6.467  16.905  0.00  0.00    +0.000 OA
ENDBRANCH  21  27
ENDBRANCH  20  21
ENDBRANCH  19  20
ENDBRANCH   1  19
TORSDOF 7
ENDMDL
MODEL 5
REMARK VINA RESULT:      -7.1      2.110      3.682
REMARK  Name = 
REMARK  8 active torsions:
REMARK  status: ('A' for Active; 'I' for Inactive)
REMARK    1  A    between atoms: C_1  and  C_2
REMARK    2  A    between atoms: C_5  and  C_6
REMARK    3  A    between atoms: C_6  and  O_8
REMARK    4  A    between atoms: O_8  and  C_9
REMARK    5  A    between atoms: C_9  and  C_10
REMARK    6  A    between atoms: N_12  and  C_13
REMARK    7  A    between atoms: C_17  and  S_18
REMARK    8  A    between atoms: S_18  and  N_19
REMARK                            x       y       z     vdW  Elec       q    Type
REMARK                         _______ _______ _______ _____ _____    ______ ____
ROOT
ATOM      1  C   UNL     1       4.667   4.935  18.816  0.00  0.00    +0.000 C 
ATOM      2  O   UNL     1       5.310   5.604  19.624  0.00  0.00    +0.000 OA
ATOM      3  N   UNL     1       3.308   5.107  18.569  0.00  0.00    +0.000 N 
ATOM      4  H   UNL     1       2.791   4.252  18.389  0.00  0.00    +0.000 HD
ENDROOT
BRANCH   3   5
ATOM      5  C   UNL     1       2.590   6.135  19.248  0.00  0.00    +0.000 A 
ATOM      6  C   UNL     1       2.540   7.461  18.770  0.00  0.00    +0.000 A 
ATOM      7 CL   UNL     1       3.114   7.898  17.196  0.00  0.00    +0.000 Cl
ATOM      8  C   UNL     1       1.881   8.456  19.498  0.00  0.00    +0.000 A 
ATOM      9  C   UNL     1       1.240   8.124  20.689  0.00  0.00    +0.000 A 
ATOM     10  C   UNL     1       1.245   6.811  21.167  0.00  0.00    +0.000 A 
ATOM     11  C   UNL     1       1.900   5.821  20.431  0.00  0.00    +0.000 A 
ATOM     12 CL   UNL     1       1.865   4.200  21.040  0.00  0.00    +0.000 Cl
BRANCH   9  13
ATOM     13  S   UNL     1       0.340   9.360  21.573  0.00  0.00    +0.000 S 
ATOM     14  O   UNL     1       1.219   9.994  22.526  0.00  0.00    +0.000 OA
ATOM     15  O   UNL     1      -0.482  10.112  20.648  0.00  0.00    +0.000 OA
BRANCH  13  16
ATOM     16  N   UNL     1      -0.709   8.397  22.455  0.00  0.00    +0.000 NA
ATOM     17  H   UNL     1      -0.208   7.608  22.867  0.00  0.00    +0.000 HD
ATOM     18  H   UNL     1      -1.229   8.958  23.129  0.00  0.00    +0.000 HD
ENDBRANCH  13  16
ENDBRANCH   9  13
ENDBRANCH   3   5
BRANCH   1  19
ATOM     19  C   UNL     1       5.301   3.777  18.043  0.00  0.00    +0.000 C 
BRANCH  19  20
ATOM     20  O   UNL     1       5.401   4.056  16.647  0.00  0.00    +0.000 OA
BRANCH  20  21
ATOM     21  C   UNL     1       6.661   4.368  16.219  0.00  0.00    +0.000 C 
ATOM     22  O   UNL     1       7.589   4.656  16.964  0.00  0.00    +0.000 OA
BRANCH  21  27
ATOM     23  C   UNL     1       5.384   2.866  11.798  0.00  0.00    +0.000 C 
ATOM     24  C   UNL     1       6.164   3.689  12.743  0.00  0.00    +0.000 A 
ATOM     25  C   UNL     1       7.147   4.640  12.582  0.00  0.00    +0.000 A 
ATOM     26  C   UNL     1       7.506   5.063  13.886  0.00  0.00    +0.000 A 
ATOM     27  C   UNL     1       6.722   4.346  14.773  0.00  0.00    +0.000 A 
ATOM     28  O   UNL     1       5.897   3.508  14.065  0.00  0.00    +0.000 OA
ENDBRANCH  21  27
ENDBRANCH  20  21
ENDBRANCH  19  20
ENDBRANCH   1  19
TORSDOF 7
ENDMDL
MODEL 6
REMARK VINA RESULT:      -7.0      2.067      3.266
REMARK  Name = 
REMARK  8 active torsions:
REMARK  status: ('A' for Active; 'I' for Inactive)
REMARK    1  A    between atoms: C_1  and  C_2
REMARK    2  A    between atoms: C_5  and  C_6
REMARK    3  A    between atoms: C_6  and  O_8
REMARK    4  A    between atoms: O_8  and  C_9
REMARK    5  A    between atoms: C_9  and  C_10
REMARK    6  A    between atoms: N_12  and  C_13
REMARK    7  A    between atoms: C_17  and  S_18
REMARK    8  A    between atoms: S_18  and  N_19
REMARK                            x       y       z     vdW  Elec       q    Type
REMARK                         _______ _______ _______ _____ _____    ______ ____
ROOT
ATOM      1  C   UNL     1       4.690   4.826  18.890  0.00  0.00    +0.000 C 
ATOM      2  O   UNL     1       5.318   5.488  19.717  0.00  0.00    +0.000 OA
ATOM      3  N   UNL     1       3.332   4.988  18.634  0.00  0.00    +0.000 N 
ATOM      4  H   UNL     1       2.826   4.131  18.434  0.00  0.00    +0.000 HD
ENDROOT
BRANCH   3   5
ATOM      5  C   UNL     1       2.597   5.997  19.324  0.00  0.00    +0.000 A 
ATOM      6  C   UNL     1       2.573   7.339  18.894  0.00  0.00    +0.000 A 
ATOM      7 CL   UNL     1       3.206   7.829  17.358  0.00  0.00    +0.000 Cl
ATOM      8  C   UNL     1       1.894   8.312  19.634  0.00  0.00    +0.000 A 
ATOM      9  C   UNL     1       1.209   7.942  20.789  0.00  0.00    +0.000 A 
ATOM     10  C   UNL     1       1.189   6.612  21.217  0.00  0.00    +0.000 A 
ATOM     11  C   UNL     1       1.862   5.645  20.470  0.00  0.00    +0.000 A 
ATOM     12 CL   UNL     1       1.796   4.004  21.017  0.00  0.00    +0.000 Cl
BRANCH   9  13
ATOM     13  S   UNL     1       0.286   9.152  21.685  0.00  0.00    +0.000 S 
ATOM     14  O   UNL     1      -0.850   8.515  22.308  0.00  0.00    +0.000 OA
ATOM     15  O   UNL     1       1.196  10.011  22.412  0.00  0.00    +0.000 OA
BRANCH  13  16
ATOM     16  N   UNL     1      -0.314  10.071  20.419  0.00  0.00    +0.000 NA
ATOM     17  H   UNL     1      -0.613  10.989  20.754  0.00  0.00    +0.000 HD
ATOM     18  H   UNL     1       0.356  10.106  19.652  0.00  0.00    +0.000 HD
ENDBRANCH  13  16
ENDBRANCH   9  13
ENDBRANCH   3   5
BRANCH   1  19
ATOM     19  C   UNL     1       5.344   3.689  18.104  0.00  0.00    +0.000 C 
BRANCH  19  20
ATOM     20  O   UNL     1       5.494   4.012  16.721  0.00  0.00    +0.000 OA
BRANCH  20  21
ATOM     21  C   UNL     1       6.763   4.359  16.354  0.00  0.00    +0.000 C 
ATOM     22  O   UNL     1       7.669   4.592  17.144  0.00  0.00    +0.000 OA
BRANCH  21  27
ATOM     23  C   UNL     1       8.482   6.101  12.177  0.00  0.00    +0.000 C 
ATOM     24  C   UNL     1       7.625   5.216  12.990  0.00  0.00    +0.000 A 
ATOM     25  C   UNL     1       6.693   4.252  12.677  0.00  0.00    +0.000 A 
ATOM     26  C   UNL     1       6.203   3.759  13.911  0.00  0.00    +0.000 A 
ATOM     27  C   UNL     1       6.863   4.450  14.913  0.00  0.00    +0.000 A 
ATOM     28  O   UNL     1       7.738   5.339  14.340  0.00  0.00    +0.000 OA
ENDBRANCH  21  27
ENDBRANCH  20  21
ENDBRANCH  19  20
ENDBRANCH   1  19
TORSDOF 7
ENDMDL
MODEL 7
REMARK VINA RESULT:      -7.0      0.986      2.107
REMARK  Name = 
REMARK  8 active torsions:
REMARK  status: ('A' for Active; 'I' for Inactive)
REMARK    1  A    between atoms: C_1  and  C_2
REMARK    2  A    between atoms: C_5  and  C_6
REMARK    3  A    between atoms: C_6  and  O_8
REMARK    4  A    between atoms: O_8  and  C_9
REMARK    5  A    between atoms: C_9  and  C_10
REMARK    6  A    between atoms: N_12  and  C_13
REMARK    7  A    between atoms: C_17  and  S_18
REMARK    8  A    between atoms: S_18  and  N_19
REMARK                            x       y       z     vdW  Elec       q    Type
REMARK                         _______ _______ _______ _____ _____    ______ ____
ROOT
ATOM      1  C   UNL     1       2.788   4.844  17.818  0.00  0.00    +0.000 C 
ATOM      2  O   UNL     1       1.575   4.708  17.658  0.00  0.00    +0.000 OA
ATOM      3  N   UNL     1       3.363   5.862  18.573  0.00  0.00    +0.000 N 
ATOM      4  H   UNL     1       4.236   6.229  18.207  0.00  0.00    +0.000 HD
ENDROOT
BRANCH   3   5
ATOM      5  C   UNL     1       2.529   6.800  19.249  0.00  0.00    +0.000 A 
ATOM      6  C   UNL     1       2.283   8.092  18.741  0.00  0.00    +0.000 A 
ATOM      7 CL   UNL     1       2.749   8.560  17.140  0.00  0.00    +0.000 Cl
ATOM      8  C   UNL     1       1.512   9.007  19.464  0.00  0.00    +0.000 A 
ATOM      9  C   UNL     1       0.956   8.624  20.682  0.00  0.00    +0.000 A 
ATOM     10  C   UNL     1       1.155   7.338  21.191  0.00  0.00    +0.000 A 
ATOM     11  C   UNL     1       1.920   6.427  20.460  0.00  0.00    +0.000 A 
ATOM     12 CL   UNL     1       2.126   4.835  21.108  0.00  0.00    +0.000 Cl
BRANCH   9  13
ATOM     13  S   UNL     1      -0.082   9.750  21.563  0.00  0.00    +0.000 S 
ATOM     14  O   UNL     1      -1.109  10.241  20.674  0.00  0.00    +0.000 OA
ATOM     15  O   UNL     1      -0.376   9.210  22.873  0.00  0.00    +0.000 OA
BRANCH  13  16
ATOM     16  N   UNL     1       0.987  11.017  21.807  0.00  0.00    +0.000 NA
ATOM     17  H   UNL     1       1.951  10.685  21.755  0.00  0.00    +0.000 HD
ATOM     18  H   UNL     1       0.778  11.788  21.175  0.00  0.00    +0.000 HD
ENDBRANCH  13  16
ENDBRANCH   9  13
ENDBRANCH   3   5
BRANCH   1  19
ATOM     19  C   UNL     1       3.799   3.930  17.125  0.00  0.00    +0.000 C 
BRANCH  19  20
ATOM     20  O   UNL     1       4.564   4.628  16.142  0.00  0.00    +0.000 OA
BRANCH  20  21
ATOM     21  C   UNL     1       5.893   4.309  16.126  0.00  0.00    +0.000 C 
ATOM     22  O   UNL     1       6.376   3.401  15.461  0.00  0.00    +0.000 OA
BRANCH  21  27
ATOM     23  C   UNL     1       7.830   8.491  17.606  0.00  0.00    +0.000 C 
ATOM     24  C   UNL     1       7.520   7.055  17.741  0.00  0.00    +0.000 A 
ATOM     25  C   UNL     1       7.809   6.110  18.700  0.00  0.00    +0.000 A 
ATOM     26  C   UNL     1       7.236   4.896  18.246  0.00  0.00    +0.000 A 
ATOM     27  C   UNL     1       6.627   5.166  17.032  0.00  0.00    +0.000 A 
ATOM     28  O   UNL     1       6.801   6.494  16.731  0.00  0.00    +0.000 OA
ENDBRANCH  21  27
ENDBRANCH  20  21
ENDBRANCH  19  20
ENDBRANCH   1  19
TORSDOF 7
ENDMDL
MODEL 8
REMARK VINA RESULT:      -6.9      0.986      1.446
REMARK  Name = 
REMARK  8 active torsions:
REMARK  status: ('A' for Active; 'I' for Inactive)
REMARK    1  A    between atoms: C_1  and  C_2
REMARK    2  A    between atoms: C_5  and  C_6
REMARK    3  A    between atoms: C_6  and  O_8
REMARK    4  A    between atoms: O_8  and  C_9
REMARK    5  A    between atoms: C_9  and  C_10
REMARK    6  A    between atoms: N_12  and  C_13
REMARK    7  A    between atoms: C_17  and  S_18
REMARK    8  A    between atoms: S_18  and  N_19
REMARK                            x       y       z     vdW  Elec       q    Type
REMARK                         _______ _______ _______ _____ _____    ______ ____
ROOT
ATOM      1  C   UNL     1       2.570   4.139  17.661  0.00  0.00    +0.000 C 
ATOM      2  O   UNL     1       1.383   4.305  17.382  0.00  0.00    +0.000 OA
ATOM      3  N   UNL     1       3.255   4.881  18.619  0.00  0.00    +0.000 N 
ATOM      4  H   UNL     1       4.222   5.089  18.392  0.00  0.00    +0.000 HD
ENDROOT
BRANCH   3   5
ATOM      5  C   UNL     1       2.564   5.877  19.369  0.00  0.00    +0.000 A 
ATOM      6  C   UNL     1       1.876   5.580  20.563  0.00  0.00    +0.000 A 
ATOM      7 CL   UNL     1       2.028   4.050  21.361  0.00  0.00    +0.000 Cl
ATOM      8  C   UNL     1       1.156   6.571  21.236  0.00  0.00    +0.000 A 
ATOM      9  C   UNL     1       1.147   7.872  20.737  0.00  0.00    +0.000 A 
ATOM     10  C   UNL     1       1.849   8.200  19.574  0.00  0.00    +0.000 A 
ATOM     11  C   UNL     1       2.572   7.207  18.911  0.00  0.00    +0.000 A 
ATOM     12 CL   UNL     1       3.450   7.653  17.488  0.00  0.00    +0.000 Cl
BRANCH   9  13
ATOM     13  S   UNL     1       0.302   9.144  21.624  0.00  0.00    +0.000 S 
ATOM     14  O   UNL     1       0.121  10.285  20.757  0.00  0.00    +0.000 OA
ATOM     15  O   UNL     1      -0.782   8.562  22.386  0.00  0.00    +0.000 OA
BRANCH  13  16
ATOM     16  N   UNL     1       1.481   9.570  22.736  0.00  0.00    +0.000 NA
ATOM     17  H   UNL     1       2.010   8.747  23.027  0.00  0.00    +0.000 HD
ATOM     18  H   UNL     1       2.057  10.329  22.374  0.00  0.00    +0.000 HD
ENDBRANCH  13  16
ENDBRANCH   9  13
ENDBRANCH   3   5
BRANCH   1  19
ATOM     19  C   UNL     1       3.441   3.128  16.912  0.00  0.00    +0.000 C 
BRANCH  19  20
ATOM     20  O   UNL     1       4.827   3.292  17.211  0.00  0.00    +0.000 OA
BRANCH  20  21
ATOM     21  C   UNL     1       5.505   4.095  16.338  0.00  0.00    +0.000 C 
ATOM     22  O   UNL     1       5.427   4.006  15.119  0.00  0.00    +0.000 OA
BRANCH  21  27
ATOM     23  C   UNL     1       8.266   5.551  20.038  0.00  0.00    +0.000 C 
ATOM     24  C   UNL     1       7.613   5.722  18.725  0.00  0.00    +0.000 A 
ATOM     25  C   UNL     1       7.581   6.751  17.811  0.00  0.00    +0.000 A 
ATOM     26  C   UNL     1       6.768   6.305  16.740  0.00  0.00    +0.000 A 
ATOM     27  C   UNL     1       6.347   5.025  17.059  0.00  0.00    +0.000 A 
ATOM     28  O   UNL     1       6.874   4.672  18.276  0.00  0.00    +0.000 OA
ENDBRANCH  21  27
ENDBRANCH  20  21
ENDBRANCH  19  20
ENDBRANCH   1  19
TORSDOF 7
ENDMDL
MODEL 9
REMARK VINA RESULT:      -6.9      2.215      3.348
REMARK  Name = 
REMARK  8 active torsions:
REMARK  status: ('A' for Active; 'I' for Inactive)
REMARK    1  A    between atoms: C_1  and  C_2
REMARK    2  A    between atoms: C_5  and  C_6
REMARK    3  A    between atoms: C_6  and  O_8
REMARK    4  A    between atoms: O_8  and  C_9
REMARK    5  A    between atoms: C_9  and  C_10
REMARK    6  A    between atoms: N_12  and  C_13
REMARK    7  A    between atoms: C_17  and  S_18
REMARK    8  A    between atoms: S_18  and  N_19
REMARK                            x       y       z     vdW  Elec       q    Type
REMARK                         _______ _______ _______ _____ _____    ______ ____
ROOT
ATOM      1  C   UNL     1       4.357   5.850  17.839  0.00  0.00    +0.000 C 
ATOM      2  O   UNL     1       5.130   6.300  18.684  0.00  0.00    +0.000 OA
ATOM      3  N   UNL     1       2.974   5.997  17.893  0.00  0.00    +0.000 N 
ATOM      4  H   UNL     1       2.444   5.196  17.562  0.00  0.00    +0.000 HD
ENDROOT
BRANCH   3   5
ATOM      5  C   UNL     1       2.382   6.738  18.957  0.00  0.00    +0.000 A 
ATOM      6  C   UNL     1       2.045   6.146  20.192  0.00  0.00    +0.000 A 
ATOM      7 CL   UNL     1       2.557   4.547  20.620  0.00  0.00    +0.000 Cl
ATOM      8  C   UNL     1       1.406   6.890  21.188  0.00  0.00    +0.000 A 
ATOM      9  C   UNL     1       1.131   8.238  20.967  0.00  0.00    +0.000 A 
ATOM     10  C   UNL     1       1.486   8.857  19.767  0.00  0.00    +0.000 A 
ATOM     11  C   UNL     1       2.130   8.109  18.779  0.00  0.00    +0.000 A 
ATOM     12 CL   UNL     1       2.578   8.914  17.313  0.00  0.00    +0.000 Cl
BRANCH   9  13
ATOM     13  S   UNL     1       0.394   9.201  22.251  0.00  0.00    +0.000 S 
ATOM     14  O   UNL     1      -0.843   8.578  22.659  0.00  0.00    +0.000 OA
ATOM     15  O   UNL     1       1.413   9.607  23.195  0.00  0.00    +0.000 OA
BRANCH  13  16
ATOM     16  N   UNL     1      -0.024  10.578  21.392  0.00  0.00    +0.000 NA
ATOM     17  H   UNL     1       0.142  11.413  21.955  0.00  0.00    +0.000 HD
ATOM     18  H   UNL     1       0.439  10.588  20.484  0.00  0.00    +0.000 HD
ENDBRANCH  13  16
ENDBRANCH   9  13
ENDBRANCH   3   5
BRANCH   1  19
ATOM     19  C   UNL     1       4.852   5.007  16.663  0.00  0.00    +0.000 C 
BRANCH  19  20
ATOM     20  O   UNL     1       5.891   5.661  15.934  0.00  0.00    +0.000 OA
BRANCH  20  21
ATOM     21  C   UNL     1       6.948   4.859  15.610  0.00  0.00    +0.000 C 
ATOM     22  O   UNL     1       7.807   4.497  16.405  0.00  0.00    +0.000 OA
BRANCH  21  27
ATOM     23  C   UNL     1       5.409   2.505  11.671  0.00  0.00    +0.000 C 
ATOM     24  C   UNL     1       6.246   3.491  12.381  0.00  0.00    +0.000 A 
ATOM     25  C   UNL     1       7.221   4.373  11.973  0.00  0.00    +0.000 A 
ATOM     26  C   UNL     1       7.658   5.049  13.140  0.00  0.00    +0.000 A 
ATOM     27  C   UNL     1       6.924   4.541  14.198  0.00  0.00    +0.000 A 
ATOM     28  O   UNL     1       6.056   3.589  13.724  0.00  0.00    +0.000 OA
ENDBRANCH  21  27
ENDBRANCH  20  21
ENDBRANCH  19  20
ENDBRANCH   1  19
TORSDOF 7
ENDMDL
