MODEL 1
REMARK VINA RESULT:      -7.9      0.000      0.000
REMARK  Name = 
REMARK  4 active torsions:
REMARK  status: ('A' for Active; 'I' for Inactive)
REMARK    1  A    between atoms: C_1  and  O_2
REMARK    2  A    between atoms: O_2  and  C_3
REMARK    3  A    between atoms: C_6  and  C_7
REMARK    4  A    between atoms: N_15  and  C_16
REMARK                            x       y       z     vdW  Elec       q    Type
REMARK                         _______ _______ _______ _____ _____    ______ ____
ROOT
ATOM      1  C   UNL     1       4.714   4.195  19.106  0.00  0.00    +0.000 A 
ATOM      2  C   UNL     1       5.227   2.920  19.296  0.00  0.00    +0.000 A 
ATOM      3  S   UNL     1       4.095   1.824  19.935  0.00  0.00    +0.000 S 
ATOM      4  C   UNL     1       2.902   3.030  20.024  0.00  0.00    +0.000 A 
ATOM      5  N   UNL     1       1.710   2.718  20.553  0.00  0.00    +0.000 NA
ATOM      6  C   UNL     1       0.881   3.751  20.583  0.00  0.00    +0.000 A 
ATOM      7  N   UNL     1       1.117   4.982  20.126  0.00  0.00    +0.000 NA
ATOM      8  C   UNL     1       2.314   5.275  19.557  0.00  0.00    +0.000 A 
ATOM      9  N   UNL     1       2.470   6.560  19.015  0.00  0.00    +0.000 N 
ATOM     10  C   UNL     1       3.310   4.262  19.518  0.00  0.00    +0.000 A 
ATOM     11  H   UNL     1       3.135   6.630  18.258  0.00  0.00    +0.000 HD
ENDROOT
BRANCH   9  12
ATOM     12  C   UNL     1       1.949   7.774  19.498  0.00  0.00    +0.000 A 
ATOM     13  C   UNL     1       1.683   8.818  18.599  0.00  0.00    +0.000 A 
ATOM     14  C   UNL     1       1.100  10.016  19.037  0.00  0.00    +0.000 A 
ATOM     15  C   UNL     1       0.775  10.182  20.381  0.00  0.00    +0.000 A 
ATOM     16  C   UNL     1       1.038   9.152  21.273  0.00  0.00    +0.000 A 
ATOM     17  F   UNL     1       0.740   9.313  22.570  0.00  0.00    +0.000 F 
ATOM     18  C   UNL     1       1.608   7.960  20.844  0.00  0.00    +0.000 A 
ENDBRANCH   9  12
BRANCH   1  22
ATOM     19  C   UNL     1       7.326   7.306  17.694  0.00  0.00    +0.000 A 
ATOM     20  C   UNL     1       6.098   7.084  17.078  0.00  0.00    +0.000 A 
ATOM     21  C   UNL     1       5.233   6.089  17.551  0.00  0.00    +0.000 A 
ATOM     22  C   UNL     1       5.609   5.256  18.616  0.00  0.00    +0.000 A 
ATOM     23  C   UNL     1       6.885   5.434  19.163  0.00  0.00    +0.000 A 
ATOM     24  C   UNL     1       7.722   6.473  18.738  0.00  0.00    +0.000 A 
BRANCH  19  26
ATOM     25  C   UNL     1       8.360   9.402  18.038  0.00  0.00    +0.000 C 
ATOM     26  O   UNL     1       8.079   8.315  17.161  0.00  0.00    +0.000 OA
ENDBRANCH  19  26
ENDBRANCH   1  22
TORSDOF 3
ENDMDL
MODEL 2
REMARK VINA RESULT:      -7.8      3.276      5.873
REMARK  Name = 
REMARK  4 active torsions:
REMARK  status: ('A' for Active; 'I' for Inactive)
REMARK    1  A    between atoms: C_1  and  O_2
REMARK    2  A    between atoms: O_2  and  C_3
REMARK    3  A    between atoms: C_6  and  C_7
REMARK    4  A    between atoms: N_15  and  C_16
REMARK                            x       y       z     vdW  Elec       q    Type
REMARK                         _______ _______ _______ _____ _____    ______ ____
ROOT
ATOM      1  C   UNL     1       2.380   5.308  20.101  0.00  0.00    +0.000 A 
ATOM      2  C   UNL     1       1.448   4.903  21.046  0.00  0.00    +0.000 A 
ATOM      3  S   UNL     1       1.705   3.321  21.615  0.00  0.00    +0.000 S 
ATOM      4  C   UNL     1       3.038   3.112  20.583  0.00  0.00    +0.000 A 
ATOM      5  N   UNL     1       3.657   1.923  20.565  0.00  0.00    +0.000 NA
ATOM      6  C   UNL     1       4.663   1.887  19.703  0.00  0.00    +0.000 A 
ATOM      7  N   UNL     1       5.095   2.887  18.933  0.00  0.00    +0.000 NA
ATOM      8  C   UNL     1       4.484   4.098  18.989  0.00  0.00    +0.000 A 
ATOM      9  N   UNL     1       5.041   5.133  18.223  0.00  0.00    +0.000 N 
ATOM     10  C   UNL     1       3.354   4.246  19.837  0.00  0.00    +0.000 A 
ATOM     11  H   UNL     1       4.880   6.065  18.577  0.00  0.00    +0.000 HD
ENDROOT
BRANCH   9  12
ATOM     12  C   UNL     1       5.641   5.047  16.954  0.00  0.00    +0.000 A 
ATOM     13  C   UNL     1       7.007   5.339  16.814  0.00  0.00    +0.000 A 
ATOM     14  C   UNL     1       7.652   5.197  15.577  0.00  0.00    +0.000 A 
ATOM     15  C   UNL     1       6.937   4.760  14.465  0.00  0.00    +0.000 A 
ATOM     16  C   UNL     1       5.586   4.472  14.599  0.00  0.00    +0.000 A 
ATOM     17  F   UNL     1       4.891   4.064  13.527  0.00  0.00    +0.000 F 
ATOM     18  C   UNL     1       4.943   4.603  15.823  0.00  0.00    +0.000 A 
ENDBRANCH   9  12
BRANCH   1  22
ATOM     19  C   UNL     1       1.980   9.186  18.287  0.00  0.00    +0.000 A 
ATOM     20  C   UNL     1       1.584   8.981  19.606  0.00  0.00    +0.000 A 
ATOM     21  C   UNL     1       1.735   7.726  20.208  0.00  0.00    +0.000 A 
ATOM     22  C   UNL     1       2.234   6.634  19.481  0.00  0.00    +0.000 A 
ATOM     23  C   UNL     1       2.542   6.838  18.131  0.00  0.00    +0.000 A 
ATOM     24  C   UNL     1       2.456   8.108  17.547  0.00  0.00    +0.000 A 
BRANCH  19  26
ATOM     25  C   UNL     1       1.484  11.441  18.786  0.00  0.00    +0.000 C 
ATOM     26  O   UNL     1       1.803  10.454  17.810  0.00  0.00    +0.000 OA
ENDBRANCH  19  26
ENDBRANCH   1  22
TORSDOF 3
ENDMDL
MODEL 3
REMARK VINA RESULT:      -7.7      0.936      1.341
REMARK  Name = 
REMARK  4 active torsions:
REMARK  status: ('A' for Active; 'I' for Inactive)
REMARK    1  A    between atoms: C_1  and  O_2
REMARK    2  A    between atoms: O_2  and  C_3
REMARK    3  A    between atoms: C_6  and  C_7
REMARK    4  A    between atoms: N_15  and  C_16
REMARK                            x       y       z     vdW  Elec       q    Type
REMARK                         _______ _______ _______ _____ _____    ______ ____
ROOT
ATOM      1  C   UNL     1       4.739   4.192  19.147  0.00  0.00    +0.000 A 
ATOM      2  C   UNL     1       5.274   2.930  19.367  0.00  0.00    +0.000 A 
ATOM      3  S   UNL     1       4.156   1.825  20.016  0.00  0.00    +0.000 S 
ATOM      4  C   UNL     1       2.940   3.010  20.069  0.00  0.00    +0.000 A 
ATOM      5  N   UNL     1       1.748   2.685  20.592  0.00  0.00    +0.000 NA
ATOM      6  C   UNL     1       0.899   3.702  20.592  0.00  0.00    +0.000 A 
ATOM      7  N   UNL     1       1.117   4.928  20.114  0.00  0.00    +0.000 NA
ATOM      8  C   UNL     1       2.314   5.233  19.551  0.00  0.00    +0.000 A 
ATOM      9  N   UNL     1       2.451   6.510  18.986  0.00  0.00    +0.000 N 
ATOM     10  C   UNL     1       3.330   4.239  19.542  0.00  0.00    +0.000 A 
ATOM     11  H   UNL     1       3.122   6.578  18.234  0.00  0.00    +0.000 HD
ENDROOT
BRANCH   9  12
ATOM     12  C   UNL     1       1.902   7.723  19.439  0.00  0.00    +0.000 A 
ATOM     13  C   UNL     1       1.603   7.881  20.801  0.00  0.00    +0.000 A 
ATOM     14  C   UNL     1       1.119   9.100  21.296  0.00  0.00    +0.000 A 
ATOM     15  C   UNL     1       0.928  10.176  20.433  0.00  0.00    +0.000 A 
ATOM     16  C   UNL     1       1.220  10.023  19.086  0.00  0.00    +0.000 A 
ATOM     17  F   UNL     1       1.025  11.053  18.249  0.00  0.00    +0.000 F 
ATOM     18  C   UNL     1       1.708   8.820  18.590  0.00  0.00    +0.000 A 
ENDBRANCH   9  12
BRANCH   1  22
ATOM     19  C   UNL     1       7.306   7.323  17.700  0.00  0.00    +0.000 A 
ATOM     20  C   UNL     1       6.073   7.089  17.099  0.00  0.00    +0.000 A 
ATOM     21  C   UNL     1       5.223   6.087  17.582  0.00  0.00    +0.000 A 
ATOM     22  C   UNL     1       5.618   5.259  18.644  0.00  0.00    +0.000 A 
ATOM     23  C   UNL     1       6.899   5.450  19.176  0.00  0.00    +0.000 A 
ATOM     24  C   UNL     1       7.721   6.496  18.740  0.00  0.00    +0.000 A 
BRANCH  19  26
ATOM     25  C   UNL     1       8.332   9.425  18.030  0.00  0.00    +0.000 C 
ATOM     26  O   UNL     1       8.044   8.338  17.157  0.00  0.00    +0.000 OA
ENDBRANCH  19  26
ENDBRANCH   1  22
TORSDOF 3
ENDMDL
MODEL 4
REMARK VINA RESULT:      -7.0      3.273      5.825
REMARK  Name = 
REMARK  4 active torsions:
REMARK  status: ('A' for Active; 'I' for Inactive)
REMARK    1  A    between atoms: C_1  and  O_2
REMARK    2  A    between atoms: O_2  and  C_3
REMARK    3  A    between atoms: C_6  and  C_7
REMARK    4  A    between atoms: N_15  and  C_16
REMARK                            x       y       z     vdW  Elec       q    Type
REMARK                         _______ _______ _______ _____ _____    ______ ____
ROOT
ATOM      1  C   UNL     1       2.255   5.246  20.150  0.00  0.00    +0.000 A 
ATOM      2  C   UNL     1       1.279   4.795  21.028  0.00  0.00    +0.000 A 
ATOM      3  S   UNL     1       1.535   3.201  21.562  0.00  0.00    +0.000 S 
ATOM      4  C   UNL     1       2.927   3.049  20.600  0.00  0.00    +0.000 A 
ATOM      5  N   UNL     1       3.570   1.871  20.581  0.00  0.00    +0.000 NA
ATOM      6  C   UNL     1       4.623   1.881  19.777  0.00  0.00    +0.000 A 
ATOM      7  N   UNL     1       5.078   2.912  19.063  0.00  0.00    +0.000 NA
ATOM      8  C   UNL     1       4.441   4.110  19.123  0.00  0.00    +0.000 A 
ATOM      9  N   UNL     1       5.019   5.179  18.422  0.00  0.00    +0.000 N 
ATOM     10  C   UNL     1       3.262   4.211  19.909  0.00  0.00    +0.000 A 
ATOM     11  H   UNL     1       4.821   6.096  18.795  0.00  0.00    +0.000 HD
ENDROOT
BRANCH   9  12
ATOM     12  C   UNL     1       5.692   5.144  17.187  0.00  0.00    +0.000 A 
ATOM     13  C   UNL     1       6.686   6.097  16.913  0.00  0.00    +0.000 A 
ATOM     14  C   UNL     1       7.422   6.049  15.721  0.00  0.00    +0.000 A 
ATOM     15  C   UNL     1       7.173   5.045  14.788  0.00  0.00    +0.000 A 
ATOM     16  C   UNL     1       6.190   4.103  15.054  0.00  0.00    +0.000 A 
ATOM     17  F   UNL     1       5.937   3.144  14.152  0.00  0.00    +0.000 F 
ATOM     18  C   UNL     1       5.462   4.141  16.237  0.00  0.00    +0.000 A 
ENDBRANCH   9  12
BRANCH   1  22
ATOM     19  C   UNL     1       1.832   9.171  18.444  0.00  0.00    +0.000 A 
ATOM     20  C   UNL     1       2.277   8.108  17.664  0.00  0.00    +0.000 A 
ATOM     21  C   UNL     1       2.393   6.823  18.209  0.00  0.00    +0.000 A 
ATOM     22  C   UNL     1       2.118   6.590  19.565  0.00  0.00    +0.000 A 
ATOM     23  C   UNL     1       1.759   7.688  20.355  0.00  0.00    +0.000 A 
ATOM     24  C   UNL     1       1.577   8.959  19.797  0.00  0.00    +0.000 A 
BRANCH  19  26
ATOM     25  C   UNL     1       1.862  11.525  18.634  0.00  0.00    +0.000 C 
ATOM     26  O   UNL     1       1.740  10.375  17.803  0.00  0.00    +0.000 OA
ENDBRANCH  19  26
ENDBRANCH   1  22
TORSDOF 3
ENDMDL
MODEL 5
REMARK VINA RESULT:      -6.9      7.571     10.666
REMARK  Name = 
REMARK  4 active torsions:
REMARK  status: ('A' for Active; 'I' for Inactive)
REMARK    1  A    between atoms: C_1  and  O_2
REMARK    2  A    between atoms: O_2  and  C_3
REMARK    3  A    between atoms: C_6  and  C_7
REMARK    4  A    between atoms: N_15  and  C_16
REMARK                            x       y       z     vdW  Elec       q    Type
REMARK                         _______ _______ _______ _____ _____    ______ ____
ROOT
ATOM      1  C   UNL     1      10.546  14.545  18.146  0.00  0.00    +0.000 A 
ATOM      2  C   UNL     1      11.821  14.777  17.650  0.00  0.00    +0.000 A 
ATOM      3  S   UNL     1      12.171  16.426  17.429  0.00  0.00    +0.000 S 
ATOM      4  C   UNL     1      10.617  16.877  17.942  0.00  0.00    +0.000 A 
ATOM      5  N   UNL     1      10.283  18.176  17.918  0.00  0.00    +0.000 NA
ATOM      6  C   UNL     1       9.039  18.389  18.321  0.00  0.00    +0.000 A 
ATOM      7  N   UNL     1       8.168  17.474  18.752  0.00  0.00    +0.000 NA
ATOM      8  C   UNL     1       8.532  16.168  18.810  0.00  0.00    +0.000 A 
ATOM      9  N   UNL     1       7.605  15.267  19.357  0.00  0.00    +0.000 N 
ATOM     10  C   UNL     1       9.826  15.805  18.349  0.00  0.00    +0.000 A 
ATOM     11  H   UNL     1       8.005  14.443  19.782  0.00  0.00    +0.000 HD
ENDROOT
BRANCH   9  12
ATOM     12  C   UNL     1       6.203  15.288  19.240  0.00  0.00    +0.000 A 
ATOM     13  C   UNL     1       5.414  15.344  20.399  0.00  0.00    +0.000 A 
ATOM     14  C   UNL     1       4.017  15.435  20.316  0.00  0.00    +0.000 A 
ATOM     15  C   UNL     1       3.394  15.471  19.072  0.00  0.00    +0.000 A 
ATOM     16  C   UNL     1       4.170  15.413  17.924  0.00  0.00    +0.000 A 
ATOM     17  F   UNL     1       3.573  15.433  16.724  0.00  0.00    +0.000 F 
ATOM     18  C   UNL     1       5.556  15.331  17.999  0.00  0.00    +0.000 A 
ENDBRANCH   9  12
BRANCH   1  22
ATOM     19  C   UNL     1       9.203  10.496  18.680  0.00  0.00    +0.000 A 
ATOM     20  C   UNL     1      10.309  10.969  19.380  0.00  0.00    +0.000 A 
ATOM     21  C   UNL     1      10.735  12.294  19.228  0.00  0.00    +0.000 A 
ATOM     22  C   UNL     1      10.094  13.157  18.326  0.00  0.00    +0.000 A 
ATOM     23  C   UNL     1       9.040  12.636  17.565  0.00  0.00    +0.000 A 
ATOM     24  C   UNL     1       8.570  11.333  17.766  0.00  0.00    +0.000 A 
BRANCH  19  26
ATOM     25  C   UNL     1       8.060   8.572  17.924  0.00  0.00    +0.000 C 
ATOM     26  O   UNL     1       8.867   9.193  18.920  0.00  0.00    +0.000 OA
ENDBRANCH  19  26
ENDBRANCH   1  22
TORSDOF 3
ENDMDL
MODEL 6
REMARK VINA RESULT:      -6.8      7.793     11.033
REMARK  Name = 
REMARK  4 active torsions:
REMARK  status: ('A' for Active; 'I' for Inactive)
REMARK    1  A    between atoms: C_1  and  O_2
REMARK    2  A    between atoms: O_2  and  C_3
REMARK    3  A    between atoms: C_6  and  C_7
REMARK    4  A    between atoms: N_15  and  C_16
REMARK                            x       y       z     vdW  Elec       q    Type
REMARK                         _______ _______ _______ _____ _____    ______ ____
ROOT
ATOM      1  C   UNL     1      -2.140  13.763  23.501  0.00  0.00    +0.000 A 
ATOM      2  C   UNL     1      -1.425  14.610  24.335  0.00  0.00    +0.000 A 
ATOM      3  S   UNL     1      -2.375  15.840  25.026  0.00  0.00    +0.000 S 
ATOM      4  C   UNL     1      -3.757  15.308  24.195  0.00  0.00    +0.000 A 
ATOM      5  N   UNL     1      -4.896  16.004  24.330  0.00  0.00    +0.000 NA
ATOM      6  C   UNL     1      -5.889  15.497  23.615  0.00  0.00    +0.000 A 
ATOM      7  N   UNL     1      -5.851  14.403  22.852  0.00  0.00    +0.000 NA
ATOM      8  C   UNL     1      -4.703  13.685  22.755  0.00  0.00    +0.000 A 
ATOM      9  N   UNL     1      -4.750  12.497  22.010  0.00  0.00    +0.000 N 
ATOM     10  C   UNL     1      -3.548  14.161  23.433  0.00  0.00    +0.000 A 
ATOM     11  H   UNL     1      -4.083  11.790  22.285  0.00  0.00    +0.000 HD
ENDROOT
BRANCH   9  12
ATOM     12  C   UNL     1      -5.486  12.235  20.841  0.00  0.00    +0.000 A 
ATOM     13  C   UNL     1      -6.765  11.667  20.941  0.00  0.00    +0.000 A 
ATOM     14  C   UNL     1      -7.552  11.456  19.800  0.00  0.00    +0.000 A 
ATOM     15  C   UNL     1      -7.068  11.812  18.544  0.00  0.00    +0.000 A 
ATOM     16  C   UNL     1      -5.803  12.372  18.440  0.00  0.00    +0.000 A 
ATOM     17  F   UNL     1      -5.327  12.703  17.231  0.00  0.00    +0.000 F 
ATOM     18  C   UNL     1      -5.021  12.591  19.568  0.00  0.00    +0.000 A 
ENDBRANCH   9  12
BRANCH   1  22
ATOM     19  C   UNL     1      -0.030  10.631  21.445  0.00  0.00    +0.000 A 
ATOM     20  C   UNL     1      -0.103  11.908  20.897  0.00  0.00    +0.000 A 
ATOM     21  C   UNL     1      -0.768  12.937  21.575  0.00  0.00    +0.000 A 
ATOM     22  C   UNL     1      -1.424  12.692  22.791  0.00  0.00    +0.000 A 
ATOM     23  C   UNL     1      -1.417  11.380  23.281  0.00  0.00    +0.000 A 
ATOM     24  C   UNL     1      -0.695  10.367  22.640  0.00  0.00    +0.000 A 
BRANCH  19  26
ATOM     25  C   UNL     1       0.860  10.048  19.336  0.00  0.00    +0.000 C 
ATOM     26  O   UNL     1       0.659   9.711  20.706  0.00  0.00    +0.000 OA
ENDBRANCH  19  26
ENDBRANCH   1  22
TORSDOF 3
ENDMDL
MODEL 7
REMARK VINA RESULT:      -6.8      7.688     10.940
REMARK  Name = 
REMARK  4 active torsions:
REMARK  status: ('A' for Active; 'I' for Inactive)
REMARK    1  A    between atoms: C_1  and  O_2
REMARK    2  A    between atoms: O_2  and  C_3
REMARK    3  A    between atoms: C_6  and  C_7
REMARK    4  A    between atoms: N_15  and  C_16
REMARK                            x       y       z     vdW  Elec       q    Type
REMARK                         _______ _______ _______ _____ _____    ______ ____
ROOT
ATOM      1  C   UNL     1      -2.063  13.646  23.343  0.00  0.00    +0.000 A 
ATOM      2  C   UNL     1      -1.334  14.473  24.185  0.00  0.00    +0.000 A 
ATOM      3  S   UNL     1      -2.269  15.695  24.910  0.00  0.00    +0.000 S 
ATOM      4  C   UNL     1      -3.663  15.186  24.084  0.00  0.00    +0.000 A 
ATOM      5  N   UNL     1      -4.797  15.885  24.244  0.00  0.00    +0.000 NA
ATOM      6  C   UNL     1      -5.800  15.398  23.529  0.00  0.00    +0.000 A 
ATOM      7  N   UNL     1      -5.776  14.319  22.745  0.00  0.00    +0.000 NA
ATOM      8  C   UNL     1      -4.633  13.596  22.622  0.00  0.00    +0.000 A 
ATOM      9  N   UNL     1      -4.695  12.423  21.856  0.00  0.00    +0.000 N 
ATOM     10  C   UNL     1      -3.469  14.053  23.298  0.00  0.00    +0.000 A 
ATOM     11  H   UNL     1      -4.029  11.707  22.110  0.00  0.00    +0.000 HD
ENDROOT
BRANCH   9  12
ATOM     12  C   UNL     1      -5.445  12.187  20.690  0.00  0.00    +0.000 A 
ATOM     13  C   UNL     1      -6.760  11.710  20.797  0.00  0.00    +0.000 A 
ATOM     14  C   UNL     1      -7.557  11.530  19.658  0.00  0.00    +0.000 A 
ATOM     15  C   UNL     1      -7.047  11.825  18.396  0.00  0.00    +0.000 A 
ATOM     16  C   UNL     1      -5.746  12.295  18.286  0.00  0.00    +0.000 A 
ATOM     17  F   UNL     1      -5.246  12.567  17.072  0.00  0.00    +0.000 F 
ATOM     18  C   UNL     1      -4.953  12.483  19.411  0.00  0.00    +0.000 A 
ENDBRANCH   9  12
BRANCH   1  22
ATOM     19  C   UNL     1      -0.026  10.545  21.168  0.00  0.00    +0.000 A 
ATOM     20  C   UNL     1      -0.523  10.300  22.446  0.00  0.00    +0.000 A 
ATOM     21  C   UNL     1      -1.208  11.299  23.148  0.00  0.00    +0.000 A 
ATOM     22  C   UNL     1      -1.360  12.584  22.605  0.00  0.00    +0.000 A 
ATOM     23  C   UNL     1      -0.775  12.838  21.359  0.00  0.00    +0.000 A 
ATOM     24  C   UNL     1      -0.150  11.822  20.626  0.00  0.00    +0.000 A 
BRANCH  19  26
ATOM     25  C   UNL     1       1.096   8.486  21.454  0.00  0.00    +0.000 C 
ATOM     26  O   UNL     1       0.609   9.492  20.571  0.00  0.00    +0.000 OA
ENDBRANCH  19  26
ENDBRANCH   1  22
TORSDOF 3
ENDMDL
MODEL 8
REMARK VINA RESULT:      -6.7      8.002     10.223
REMARK  Name = 
REMARK  4 active torsions:
REMARK  status: ('A' for Active; 'I' for Inactive)
REMARK    1  A    between atoms: C_1  and  O_2
REMARK    2  A    between atoms: O_2  and  C_3
REMARK    3  A    between atoms: C_6  and  C_7
REMARK    4  A    between atoms: N_15  and  C_16
REMARK                            x       y       z     vdW  Elec       q    Type
REMARK                         _______ _______ _______ _____ _____    ______ ____
ROOT
ATOM      1  C   UNL     1      -5.154  11.435  18.919  0.00  0.00    +0.000 A 
ATOM      2  C   UNL     1      -6.466  11.016  19.094  0.00  0.00    +0.000 A 
ATOM      3  S   UNL     1      -7.140  11.502  20.577  0.00  0.00    +0.000 S 
ATOM      4  C   UNL     1      -5.688  12.244  21.051  0.00  0.00    +0.000 A 
ATOM      5  N   UNL     1      -5.616  12.796  22.272  0.00  0.00    +0.000 NA
ATOM      6  C   UNL     1      -4.425  13.320  22.524  0.00  0.00    +0.000 A 
ATOM      7  N   UNL     1      -3.379  13.366  21.698  0.00  0.00    +0.000 NA
ATOM      8  C   UNL     1      -3.477  12.839  20.450  0.00  0.00    +0.000 A 
ATOM      9  N   UNL     1      -2.374  12.998  19.598  0.00  0.00    +0.000 N 
ATOM     10  C   UNL     1      -4.689  12.196  20.081  0.00  0.00    +0.000 A 
ATOM     11  H   UNL     1      -2.590  13.007  18.611  0.00  0.00    +0.000 HD
ENDROOT
BRANCH   9  12
ATOM     12  C   UNL     1      -1.008  12.979  19.934  0.00  0.00    +0.000 A 
ATOM     13  C   UNL     1      -0.417  11.780  20.361  0.00  0.00    +0.000 A 
ATOM     14  C   UNL     1       0.955  11.711  20.638  0.00  0.00    +0.000 A 
ATOM     15  C   UNL     1       1.754  12.842  20.490  0.00  0.00    +0.000 A 
ATOM     16  C   UNL     1       1.174  14.030  20.070  0.00  0.00    +0.000 A 
ATOM     17  F   UNL     1       1.936  15.125  19.940  0.00  0.00    +0.000 F 
ATOM     18  C   UNL     1      -0.185  14.103  19.786  0.00  0.00    +0.000 A 
ENDBRANCH   9  12
BRANCH   1  22
ATOM     19  C   UNL     1      -3.025  10.255  15.375  0.00  0.00    +0.000 A 
ATOM     20  C   UNL     1      -4.063  11.180  15.298  0.00  0.00    +0.000 A 
ATOM     21  C   UNL     1      -4.743  11.585  16.453  0.00  0.00    +0.000 A 
ATOM     22  C   UNL     1      -4.433  11.028  17.703  0.00  0.00    +0.000 A 
ATOM     23  C   UNL     1      -3.449  10.034  17.747  0.00  0.00    +0.000 A 
ATOM     24  C   UNL     1      -2.721   9.677  16.605  0.00  0.00    +0.000 A 
BRANCH  19  26
ATOM     25  C   UNL     1      -3.297   9.782  13.077  0.00  0.00    +0.000 C 
ATOM     26  O   UNL     1      -2.421   9.947  14.188  0.00  0.00    +0.000 OA
ENDBRANCH  19  26
ENDBRANCH   1  22
TORSDOF 3
ENDMDL
MODEL 9
REMARK VINA RESULT:      -6.7      7.300      9.883
REMARK  Name = 
REMARK  4 active torsions:
REMARK  status: ('A' for Active; 'I' for Inactive)
REMARK    1  A    between atoms: C_1  and  O_2
REMARK    2  A    between atoms: O_2  and  C_3
REMARK    3  A    between atoms: C_6  and  C_7
REMARK    4  A    between atoms: N_15  and  C_16
REMARK                            x       y       z     vdW  Elec       q    Type
REMARK                         _______ _______ _______ _____ _____    ______ ____
ROOT
ATOM      1  C   UNL     1      -0.665  11.643  20.110  0.00  0.00    +0.000 A 
ATOM      2  C   UNL     1       0.548  10.987  19.954  0.00  0.00    +0.000 A 
ATOM      3  S   UNL     1       0.605   9.987  18.580  0.00  0.00    +0.000 S 
ATOM      4  C   UNL     1      -1.002  10.361  18.179  0.00  0.00    +0.000 A 
ATOM      5  N   UNL     1      -1.558   9.758  17.117  0.00  0.00    +0.000 NA
ATOM      6  C   UNL     1      -2.818  10.120  16.928  0.00  0.00    +0.000 A 
ATOM      7  N   UNL     1      -3.514  11.004  17.645  0.00  0.00    +0.000 NA
ATOM      8  C   UNL     1      -2.928  11.638  18.693  0.00  0.00    +0.000 A 
ATOM      9  N   UNL     1      -3.682  12.621  19.351  0.00  0.00    +0.000 N 
ATOM     10  C   UNL     1      -1.593  11.291  19.032  0.00  0.00    +0.000 A 
ATOM     11  H   UNL     1      -3.143  13.348  19.801  0.00  0.00    +0.000 HD
ENDROOT
BRANCH   9  12
ATOM     12  C   UNL     1      -5.066  12.631  19.600  0.00  0.00    +0.000 A 
ATOM     13  C   UNL     1      -5.953  12.969  18.567  0.00  0.00    +0.000 A 
ATOM     14  C   UNL     1      -7.341  12.922  18.763  0.00  0.00    +0.000 A 
ATOM     15  C   UNL     1      -7.857  12.535  19.997  0.00  0.00    +0.000 A 
ATOM     16  C   UNL     1      -6.984  12.201  21.021  0.00  0.00    +0.000 A 
ATOM     17  F   UNL     1      -7.477  11.842  22.215  0.00  0.00    +0.000 F 
ATOM     18  C   UNL     1      -5.608  12.238  20.831  0.00  0.00    +0.000 A 
ENDBRANCH   9  12
BRANCH   1  22
ATOM     19  C   UNL     1      -1.234  14.122  23.577  0.00  0.00    +0.000 A 
ATOM     20  C   UNL     1      -1.998  12.971  23.401  0.00  0.00    +0.000 A 
ATOM     21  C   UNL     1      -1.799  12.148  22.285  0.00  0.00    +0.000 A 
ATOM     22  C   UNL     1      -0.868  12.493  21.294  0.00  0.00    +0.000 A 
ATOM     23  C   UNL     1      -0.175  13.700  21.443  0.00  0.00    +0.000 A 
ATOM     24  C   UNL     1      -0.322  14.488  22.590  0.00  0.00    +0.000 A 
BRANCH  19  26
ATOM     25  C   UNL     1      -2.861  14.836  25.133  0.00  0.00    +0.000 C 
ATOM     26  O   UNL     1      -1.501  14.838  24.709  0.00  0.00    +0.000 OA
ENDBRANCH  19  26
ENDBRANCH   1  22
TORSDOF 3
ENDMDL
