MODEL 1
REMARK VINA RESULT:      -7.8      0.000      0.000
REMARK  Name = 
REMARK  10 active torsions:
REMARK  status: ('A' for Active; 'I' for Inactive)
REMARK    1  A    between atoms: C_1  and  C_2
REMARK    2  A    between atoms: C_2  and  C_3
REMARK    3  A    between atoms: C_8  and  N_9
REMARK    4  A    between atoms: C_10  and  C_12
REMARK    5  A    between atoms: C_12  and  N_13
REMARK    6  A    between atoms: N_13  and  C_14
REMARK    7  A    between atoms: N_13  and  C_15
REMARK    8  A    between atoms: C_15  and  C_16
REMARK    9  A    between atoms: N_22  and  C_23
REMARK   10  A    between atoms: C_28  and  C_29
REMARK                            x       y       z     vdW  Elec       q    Type
REMARK                         _______ _______ _______ _____ _____    ______ ____
ROOT
ATOM      1  C   UNL     1       2.044   6.359  20.266  0.00  0.00    +0.000 A 
ATOM      2  N   UNL     1       2.741   6.383  19.127  0.00  0.00    +0.000 NA
ATOM      3  C   UNL     1       2.724   7.541  18.490  0.00  0.00    +0.000 A 
ATOM      4  N   UNL     1       3.417   7.635  17.301  0.00  0.00    +0.000 N 
ATOM      5  N   UNL     1       2.049   8.607  18.873  0.00  0.00    +0.000 NA
ATOM      6  C   UNL     1       1.356   8.494  20.003  0.00  0.00    +0.000 A 
ATOM      7  N   UNL     1       0.604   9.588  20.458  0.00  0.00    +0.000 N 
ATOM      8  N   UNL     1       1.336   7.390  20.741  0.00  0.00    +0.000 NA
ATOM      9  H   UNL     1       3.537   6.725  16.882  0.00  0.00    +0.000 HD
ATOM     10  H   UNL     1       3.013   8.365  16.728  0.00  0.00    +0.000 HD
ATOM     11  H   UNL     1      -0.007   9.254  21.197  0.00  0.00    +0.000 HD
ENDROOT
BRANCH   7  12
ATOM     12  C   UNL     1      -0.000  10.570  19.640  0.00  0.00    +0.000 A 
ATOM     13  C   UNL     1      -1.097  10.247  18.821  0.00  0.00    +0.000 A 
ATOM     14  C   UNL     1      -1.713  11.206  18.018  0.00  0.00    +0.000 A 
ATOM     15  C   UNL     1      -1.264  12.520  18.045  0.00  0.00    +0.000 A 
ATOM     16  C   UNL     1      -0.204  12.871  18.878  0.00  0.00    +0.000 A 
ATOM     17  C   UNL     1       0.436  11.909  19.681  0.00  0.00    +0.000 A 
ATOM     18  C   UNL     1       1.601  12.333  20.533  0.00  0.00    +0.000 C 
ENDBRANCH   7  12
BRANCH   1  19
ATOM     19  C   UNL     1       2.056   5.069  21.080  0.00  0.00    +0.000 C 
BRANCH  19  20
ATOM     20  N   UNL     1       2.089   3.762  20.359  0.00  0.00    +0.000 NA
ATOM     21  C   UNL     1       0.852   3.009  20.597  0.00  0.00    +0.000 C 
BRANCH  20  22
ATOM     22  C   UNL     1       3.254   2.927  20.723  0.00  0.00    +0.000 C 
BRANCH  22  24
ATOM     23  N   UNL     1       4.218   3.886  18.672  0.00  0.00    +0.000 N 
ATOM     24  C   UNL     1       4.321   2.877  19.623  0.00  0.00    +0.000 C 
ATOM     25  O   UNL     1       5.132   1.951  19.605  0.00  0.00    +0.000 OA
ATOM     26  H   UNL     1       3.372   4.440  18.702  0.00  0.00    +0.000 HD
BRANCH  23  32
ATOM     27  C   UNL     1       6.357   4.804  17.860  0.00  0.00    +0.000 A 
ATOM     28  C   UNL     1       7.230   5.042  16.774  0.00  0.00    +0.000 A 
ATOM     29  C   UNL     1       6.932   4.601  15.488  0.00  0.00    +0.000 A 
ATOM     30  C   UNL     1       5.755   3.905  15.264  0.00  0.00    +0.000 A 
ATOM     31  C   UNL     1       4.875   3.669  16.322  0.00  0.00    +0.000 A 
ATOM     32  C   UNL     1       5.142   4.128  17.624  0.00  0.00    +0.000 A 
BRANCH  27  34
ATOM     33  C   UNL     1       7.966   6.317  19.058  0.00  0.00    +0.000 C 
ATOM     34  C   UNL     1       6.773   5.382  19.193  0.00  0.00    +0.000 C 
ENDBRANCH  27  34
ENDBRANCH  23  32
ENDBRANCH  22  24
ENDBRANCH  20  22
ENDBRANCH  19  20
ENDBRANCH   1  19
TORSDOF 7
ENDMDL
MODEL 2
REMARK VINA RESULT:      -7.6      1.367      2.327
REMARK  Name = 
REMARK  10 active torsions:
REMARK  status: ('A' for Active; 'I' for Inactive)
REMARK    1  A    between atoms: C_1  and  C_2
REMARK    2  A    between atoms: C_2  and  C_3
REMARK    3  A    between atoms: C_8  and  N_9
REMARK    4  A    between atoms: C_10  and  C_12
REMARK    5  A    between atoms: C_12  and  N_13
REMARK    6  A    between atoms: N_13  and  C_14
REMARK    7  A    between atoms: N_13  and  C_15
REMARK    8  A    between atoms: C_15  and  C_16
REMARK    9  A    between atoms: N_22  and  C_23
REMARK   10  A    between atoms: C_28  and  C_29
REMARK                            x       y       z     vdW  Elec       q    Type
REMARK                         _______ _______ _______ _____ _____    ______ ____
ROOT
ATOM      1  C   UNL     1       1.897   5.432  19.893  0.00  0.00    +0.000 A 
ATOM      2  N   UNL     1       2.583   5.822  18.816  0.00  0.00    +0.000 NA
ATOM      3  C   UNL     1       2.689   7.131  18.668  0.00  0.00    +0.000 A 
ATOM      4  N   UNL     1       3.378   7.606  17.572  0.00  0.00    +0.000 N 
ATOM      5  N   UNL     1       2.138   8.030  19.460  0.00  0.00    +0.000 NA
ATOM      6  C   UNL     1       1.446   7.561  20.495  0.00  0.00    +0.000 A 
ATOM      7  N   UNL     1       0.822   8.465  21.369  0.00  0.00    +0.000 N 
ATOM      8  N   UNL     1       1.311   6.266  20.758  0.00  0.00    +0.000 NA
ATOM      9  H   UNL     1       3.394   6.918  16.833  0.00  0.00    +0.000 HD
ATOM     10  H   UNL     1       3.052   8.535  17.340  0.00  0.00    +0.000 HD
ATOM     11  H   UNL     1       0.183   7.935  21.955  0.00  0.00    +0.000 HD
ENDROOT
BRANCH   7  12
ATOM     12  C   UNL     1       0.322   9.740  21.016  0.00  0.00    +0.000 A 
ATOM     13  C   UNL     1       0.476  10.236  19.709  0.00  0.00    +0.000 A 
ATOM     14  C   UNL     1      -0.023  11.485  19.341  0.00  0.00    +0.000 A 
ATOM     15  C   UNL     1      -0.718  12.250  20.268  0.00  0.00    +0.000 A 
ATOM     16  C   UNL     1      -0.917  11.763  21.558  0.00  0.00    +0.000 A 
ATOM     17  C   UNL     1      -0.405  10.510  21.946  0.00  0.00    +0.000 A 
ATOM     18  C   UNL     1      -0.614  10.047  23.362  0.00  0.00    +0.000 C 
ENDBRANCH   7  12
BRANCH   1  19
ATOM     19  C   UNL     1       1.774   3.934  20.154  0.00  0.00    +0.000 C 
BRANCH  19  20
ATOM     20  N   UNL     1       1.868   2.991  18.999  0.00  0.00    +0.000 NA
ATOM     21  C   UNL     1       0.644   2.190  18.886  0.00  0.00    +0.000 C 
BRANCH  20  22
ATOM     22  C   UNL     1       3.042   2.095  19.076  0.00  0.00    +0.000 C 
BRANCH  22  24
ATOM     23  N   UNL     1       4.566   3.795  18.162  0.00  0.00    +0.000 N 
ATOM     24  C   UNL     1       4.371   2.854  19.166  0.00  0.00    +0.000 C 
ATOM     25  O   UNL     1       5.182   2.557  20.042  0.00  0.00    +0.000 OA
ATOM     26  H   UNL     1       3.908   3.770  17.394  0.00  0.00    +0.000 HD
BRANCH  23  32
ATOM     27  C   UNL     1       6.048   5.268  16.853  0.00  0.00    +0.000 A 
ATOM     28  C   UNL     1       7.156   6.147  16.828  0.00  0.00    +0.000 A 
ATOM     29  C   UNL     1       7.844   6.487  17.988  0.00  0.00    +0.000 A 
ATOM     30  C   UNL     1       7.433   5.959  19.202  0.00  0.00    +0.000 A 
ATOM     31  C   UNL     1       6.347   5.081  19.246  0.00  0.00    +0.000 A 
ATOM     32  C   UNL     1       5.654   4.703  18.083  0.00  0.00    +0.000 A 
BRANCH  27  34
ATOM     33  C   UNL     1       6.350   4.101  14.649  0.00  0.00    +0.000 C 
ATOM     34  C   UNL     1       5.423   4.940  15.517  0.00  0.00    +0.000 C 
ENDBRANCH  27  34
ENDBRANCH  23  32
ENDBRANCH  22  24
ENDBRANCH  20  22
ENDBRANCH  19  20
ENDBRANCH   1  19
TORSDOF 7
ENDMDL
MODEL 3
REMARK VINA RESULT:      -7.5      3.380      5.626
REMARK  Name = 
REMARK  10 active torsions:
REMARK  status: ('A' for Active; 'I' for Inactive)
REMARK    1  A    between atoms: C_1  and  C_2
REMARK    2  A    between atoms: C_2  and  C_3
REMARK    3  A    between atoms: C_8  and  N_9
REMARK    4  A    between atoms: C_10  and  C_12
REMARK    5  A    between atoms: C_12  and  N_13
REMARK    6  A    between atoms: N_13  and  C_14
REMARK    7  A    between atoms: N_13  and  C_15
REMARK    8  A    between atoms: C_15  and  C_16
REMARK    9  A    between atoms: N_22  and  C_23
REMARK   10  A    between atoms: C_28  and  C_29
REMARK                            x       y       z     vdW  Elec       q    Type
REMARK                         _______ _______ _______ _____ _____    ______ ____
ROOT
ATOM      1  C   UNL     1      -0.388  11.656  20.155  0.00  0.00    +0.000 A 
ATOM      2  N   UNL     1      -1.182  11.348  19.127  0.00  0.00    +0.000 NA
ATOM      3  C   UNL     1      -1.156  12.212  18.127  0.00  0.00    +0.000 A 
ATOM      4  N   UNL     1      -1.959  11.961  17.034  0.00  0.00    +0.000 N 
ATOM      5  N   UNL     1      -0.461  13.332  18.111  0.00  0.00    +0.000 NA
ATOM      6  C   UNL     1       0.284  13.582  19.185  0.00  0.00    +0.000 A 
ATOM      7  N   UNL     1       1.037  14.765  19.238  0.00  0.00    +0.000 N 
ATOM      8  N   UNL     1       0.361  12.762  20.227  0.00  0.00    +0.000 NA
ATOM      9  H   UNL     1      -2.731  11.362  17.286  0.00  0.00    +0.000 HD
ATOM     10  H   UNL     1      -2.174  12.829  16.562  0.00  0.00    +0.000 HD
ATOM     11  H   UNL     1       1.361  14.880  20.193  0.00  0.00    +0.000 HD
ENDROOT
BRANCH   7  12
ATOM     12  C   UNL     1       0.693  15.988  18.617  0.00  0.00    +0.000 A 
ATOM     13  C   UNL     1      -0.608  16.510  18.727  0.00  0.00    +0.000 A 
ATOM     14  C   UNL     1      -0.959  17.721  18.133  0.00  0.00    +0.000 A 
ATOM     15  C   UNL     1      -0.003  18.454  17.443  0.00  0.00    +0.000 A 
ATOM     16  C   UNL     1       1.303  17.976  17.353  0.00  0.00    +0.000 A 
ATOM     17  C   UNL     1       1.666  16.747  17.935  0.00  0.00    +0.000 A 
ATOM     18  C   UNL     1       3.080  16.257  17.776  0.00  0.00    +0.000 C 
ENDBRANCH   7  12
BRANCH   1  19
ATOM     19  C   UNL     1      -0.330  10.680  21.327  0.00  0.00    +0.000 C 
BRANCH  19  20
ATOM     20  N   UNL     1       0.016   9.253  21.059  0.00  0.00    +0.000 NA
ATOM     21  C   UNL     1      -0.542   8.382  22.100  0.00  0.00    +0.000 C 
BRANCH  20  22
ATOM     22  C   UNL     1       1.473   9.020  20.947  0.00  0.00    +0.000 C 
BRANCH  22  24
ATOM     23  N   UNL     1       2.357   6.891  20.089  0.00  0.00    +0.000 N 
ATOM     24  C   UNL     1       1.848   8.139  19.750  0.00  0.00    +0.000 C 
ATOM     25  O   UNL     1       1.745   8.589  18.609  0.00  0.00    +0.000 OA
ATOM     26  H   UNL     1       2.583   6.753  21.065  0.00  0.00    +0.000 HD
BRANCH  23  32
ATOM     27  C   UNL     1       1.987   4.621  19.202  0.00  0.00    +0.000 A 
ATOM     28  C   UNL     1       2.359   3.611  18.284  0.00  0.00    +0.000 A 
ATOM     29  C   UNL     1       3.361   3.815  17.341  0.00  0.00    +0.000 A 
ATOM     30  C   UNL     1       4.008   5.040  17.291  0.00  0.00    +0.000 A 
ATOM     31  C   UNL     1       3.662   6.046  18.195  0.00  0.00    +0.000 A 
ATOM     32  C   UNL     1       2.672   5.853  19.174  0.00  0.00    +0.000 A 
BRANCH  27  34
ATOM     33  C   UNL     1       1.383   3.135  21.136  0.00  0.00    +0.000 C 
ATOM     34  C   UNL     1       0.923   4.252  20.209  0.00  0.00    +0.000 C 
ENDBRANCH  27  34
ENDBRANCH  23  32
ENDBRANCH  22  24
ENDBRANCH  20  22
ENDBRANCH  19  20
ENDBRANCH   1  19
TORSDOF 7
ENDMDL
MODEL 4
REMARK VINA RESULT:      -7.3      1.381      1.448
REMARK  Name = 
REMARK  10 active torsions:
REMARK  status: ('A' for Active; 'I' for Inactive)
REMARK    1  A    between atoms: C_1  and  C_2
REMARK    2  A    between atoms: C_2  and  C_3
REMARK    3  A    between atoms: C_8  and  N_9
REMARK    4  A    between atoms: C_10  and  C_12
REMARK    5  A    between atoms: C_12  and  N_13
REMARK    6  A    between atoms: N_13  and  C_14
REMARK    7  A    between atoms: N_13  and  C_15
REMARK    8  A    between atoms: C_15  and  C_16
REMARK    9  A    between atoms: N_22  and  C_23
REMARK   10  A    between atoms: C_28  and  C_29
REMARK                            x       y       z     vdW  Elec       q    Type
REMARK                         _______ _______ _______ _____ _____    ______ ____
ROOT
ATOM      1  C   UNL     1       2.410   5.945  20.048  0.00  0.00    +0.000 A 
ATOM      2  N   UNL     1       2.930   6.258  18.858  0.00  0.00    +0.000 NA
ATOM      3  C   UNL     1       2.716   7.503  18.470  0.00  0.00    +0.000 A 
ATOM      4  N   UNL     1       3.217   7.894  17.245  0.00  0.00    +0.000 N 
ATOM      5  N   UNL     1       2.008   8.394  19.136  0.00  0.00    +0.000 NA
ATOM      6  C   UNL     1       1.500   7.996  20.299  0.00  0.00    +0.000 A 
ATOM      7  N   UNL     1       0.725   8.892  21.052  0.00  0.00    +0.000 N 
ATOM      8  N   UNL     1       1.688   6.781  20.801  0.00  0.00    +0.000 NA
ATOM      9  H   UNL     1       3.358   7.096  16.644  0.00  0.00    +0.000 HD
ATOM     10  H   UNL     1       2.670   8.664  16.883  0.00  0.00    +0.000 HD
ATOM     11  H   UNL     1       0.260   8.358  21.780  0.00  0.00    +0.000 HD
ENDROOT
BRANCH   7  12
ATOM     12  C   UNL     1      -0.079   9.929  20.525  0.00  0.00    +0.000 A 
ATOM     13  C   UNL     1      -0.266  10.059  19.137  0.00  0.00    +0.000 A 
ATOM     14  C   UNL     1      -1.066  11.068  18.602  0.00  0.00    +0.000 A 
ATOM     15  C   UNL     1      -1.726  11.948  19.450  0.00  0.00    +0.000 A 
ATOM     16  C   UNL     1      -1.587  11.814  20.829  0.00  0.00    +0.000 A 
ATOM     17  C   UNL     1      -0.769  10.810  21.381  0.00  0.00    +0.000 A 
ATOM     18  C   UNL     1      -0.623  10.733  22.876  0.00  0.00    +0.000 C 
ENDBRANCH   7  12
BRANCH   1  19
ATOM     19  C   UNL     1       2.658   4.538  20.583  0.00  0.00    +0.000 C 
BRANCH  19  20
ATOM     20  N   UNL     1       1.867   3.403  20.021  0.00  0.00    +0.000 NA
ATOM     21  C   UNL     1       1.195   2.660  21.093  0.00  0.00    +0.000 C 
BRANCH  20  22
ATOM     22  C   UNL     1       2.683   2.473  19.209  0.00  0.00    +0.000 C 
BRANCH  22  24
ATOM     23  N   UNL     1       4.599   3.483  18.044  0.00  0.00    +0.000 N 
ATOM     24  C   UNL     1       3.258   3.126  17.947  0.00  0.00    +0.000 C 
ATOM     25  O   UNL     1       2.521   3.348  16.988  0.00  0.00    +0.000 OA
ATOM     26  H   UNL     1       5.007   3.434  18.968  0.00  0.00    +0.000 HD
BRANCH  23  32
ATOM     27  C   UNL     1       6.237   5.109  17.178  0.00  0.00    +0.000 A 
ATOM     28  C   UNL     1       6.986   5.597  16.081  0.00  0.00    +0.000 A 
ATOM     29  C   UNL     1       6.930   4.988  14.831  0.00  0.00    +0.000 A 
ATOM     30  C   UNL     1       6.127   3.872  14.654  0.00  0.00    +0.000 A 
ATOM     31  C   UNL     1       5.372   3.383  15.721  0.00  0.00    +0.000 A 
ATOM     32  C   UNL     1       5.392   3.997  16.985  0.00  0.00    +0.000 A 
BRANCH  27  34
ATOM     33  C   UNL     1       7.732   5.777  19.083  0.00  0.00    +0.000 C 
ATOM     34  C   UNL     1       6.346   5.893  18.465  0.00  0.00    +0.000 C 
ENDBRANCH  27  34
ENDBRANCH  23  32
ENDBRANCH  22  24
ENDBRANCH  20  22
ENDBRANCH  19  20
ENDBRANCH   1  19
TORSDOF 7
ENDMDL
MODEL 5
REMARK VINA RESULT:      -7.3      0.779      1.432
REMARK  Name = 
REMARK  10 active torsions:
REMARK  status: ('A' for Active; 'I' for Inactive)
REMARK    1  A    between atoms: C_1  and  C_2
REMARK    2  A    between atoms: C_2  and  C_3
REMARK    3  A    between atoms: C_8  and  N_9
REMARK    4  A    between atoms: C_10  and  C_12
REMARK    5  A    between atoms: C_12  and  N_13
REMARK    6  A    between atoms: N_13  and  C_14
REMARK    7  A    between atoms: N_13  and  C_15
REMARK    8  A    between atoms: C_15  and  C_16
REMARK    9  A    between atoms: N_22  and  C_23
REMARK   10  A    between atoms: C_28  and  C_29
REMARK                            x       y       z     vdW  Elec       q    Type
REMARK                         _______ _______ _______ _____ _____    ______ ____
ROOT
ATOM      1  C   UNL     1       1.901   6.634  20.073  0.00  0.00    +0.000 A 
ATOM      2  N   UNL     1       2.548   6.608  18.906  0.00  0.00    +0.000 NA
ATOM      3  C   UNL     1       2.691   7.787  18.325  0.00  0.00    +0.000 A 
ATOM      4  N   UNL     1       3.344   7.835  17.111  0.00  0.00    +0.000 N 
ATOM      5  N   UNL     1       2.208   8.923  18.787  0.00  0.00    +0.000 NA
ATOM      6  C   UNL     1       1.550   8.861  19.942  0.00  0.00    +0.000 A 
ATOM      7  N   UNL     1       0.999  10.033  20.482  0.00  0.00    +0.000 N 
ATOM      8  N   UNL     1       1.384   7.735  20.628  0.00  0.00    +0.000 NA
ATOM      9  H   UNL     1       3.302   6.940  16.645  0.00  0.00    +0.000 HD
ATOM     10  H   UNL     1       3.039   8.648  16.592  0.00  0.00    +0.000 HD
ATOM     11  H   UNL     1       0.371   9.759  21.232  0.00  0.00    +0.000 HD
ENDROOT
BRANCH   7  12
ATOM     12  C   UNL     1       0.526  11.139  19.738  0.00  0.00    +0.000 A 
ATOM     13  C   UNL     1       1.284  12.320  19.646  0.00  0.00    +0.000 A 
ATOM     14  C   UNL     1       0.839  13.415  18.906  0.00  0.00    +0.000 A 
ATOM     15  C   UNL     1      -0.361  13.336  18.212  0.00  0.00    +0.000 A 
ATOM     16  C   UNL     1      -1.110  12.162  18.256  0.00  0.00    +0.000 A 
ATOM     17  C   UNL     1      -0.679  11.056  19.013  0.00  0.00    +0.000 A 
ATOM     18  C   UNL     1      -1.544   9.826  19.058  0.00  0.00    +0.000 C 
ENDBRANCH   7  12
BRANCH   1  19
ATOM     19  C   UNL     1       1.739   5.316  20.825  0.00  0.00    +0.000 C 
BRANCH  19  20
ATOM     20  N   UNL     1       1.963   4.035  20.091  0.00  0.00    +0.000 NA
ATOM     21  C   UNL     1       1.063   2.989  20.590  0.00  0.00    +0.000 C 
BRANCH  20  22
ATOM     22  C   UNL     1       3.362   3.560  20.166  0.00  0.00    +0.000 C 
BRANCH  22  24
ATOM     23  N   UNL     1       4.605   4.487  18.256  0.00  0.00    +0.000 N 
ATOM     24  C   UNL     1       3.999   3.354  18.787  0.00  0.00    +0.000 C 
ATOM     25  O   UNL     1       3.886   2.266  18.222  0.00  0.00    +0.000 OA
ATOM     26  H   UNL     1       4.426   5.356  18.741  0.00  0.00    +0.000 HD
BRANCH  23  32
ATOM     27  C   UNL     1       6.751   4.747  17.071  0.00  0.00    +0.000 A 
ATOM     28  C   UNL     1       7.449   4.810  15.842  0.00  0.00    +0.000 A 
ATOM     29  C   UNL     1       6.799   4.636  14.624  0.00  0.00    +0.000 A 
ATOM     30  C   UNL     1       5.435   4.387  14.611  0.00  0.00    +0.000 A 
ATOM     31  C   UNL     1       4.727   4.333  15.814  0.00  0.00    +0.000 A 
ATOM     32  C   UNL     1       5.358   4.532  17.054  0.00  0.00    +0.000 A 
BRANCH  27  34
ATOM     33  C   UNL     1       7.798   6.494  18.543  0.00  0.00    +0.000 C 
ATOM     34  C   UNL     1       7.565   5.007  18.318  0.00  0.00    +0.000 C 
ENDBRANCH  27  34
ENDBRANCH  23  32
ENDBRANCH  22  24
ENDBRANCH  20  22
ENDBRANCH  19  20
ENDBRANCH   1  19
TORSDOF 7
ENDMDL
MODEL 6
REMARK VINA RESULT:      -7.2      3.792      5.963
REMARK  Name = 
REMARK  10 active torsions:
REMARK  status: ('A' for Active; 'I' for Inactive)
REMARK    1  A    between atoms: C_1  and  C_2
REMARK    2  A    between atoms: C_2  and  C_3
REMARK    3  A    between atoms: C_8  and  N_9
REMARK    4  A    between atoms: C_10  and  C_12
REMARK    5  A    between atoms: C_12  and  N_13
REMARK    6  A    between atoms: N_13  and  C_14
REMARK    7  A    between atoms: N_13  and  C_15
REMARK    8  A    between atoms: C_15  and  C_16
REMARK    9  A    between atoms: N_22  and  C_23
REMARK   10  A    between atoms: C_28  and  C_29
REMARK                            x       y       z     vdW  Elec       q    Type
REMARK                         _______ _______ _______ _____ _____    ______ ____
ROOT
ATOM      1  C   UNL     1      -0.456  10.666  20.476  0.00  0.00    +0.000 A 
ATOM      2  N   UNL     1      -0.137   9.806  21.445  0.00  0.00    +0.000 NA
ATOM      3  C   UNL     1      -0.576  10.136  22.647  0.00  0.00    +0.000 A 
ATOM      4  N   UNL     1      -0.276   9.297  23.700  0.00  0.00    +0.000 N 
ATOM      5  N   UNL     1      -1.236  11.241  22.936  0.00  0.00    +0.000 NA
ATOM      6  C   UNL     1      -1.491  12.061  21.920  0.00  0.00    +0.000 A 
ATOM      7  N   UNL     1      -2.177  13.261  22.161  0.00  0.00    +0.000 N 
ATOM      8  N   UNL     1      -1.129  11.806  20.667  0.00  0.00    +0.000 NA
ATOM      9  H   UNL     1       0.542   8.742  23.494  0.00  0.00    +0.000 HD
ATOM     10  H   UNL     1      -0.282   9.819  24.565  0.00  0.00    +0.000 HD
ATOM     11  H   UNL     1      -2.092  13.836  21.329  0.00  0.00    +0.000 HD
ENDROOT
BRANCH   7  12
ATOM     12  C   UNL     1      -2.131  14.008  23.361  0.00  0.00    +0.000 A 
ATOM     13  C   UNL     1      -1.047  14.861  23.635  0.00  0.00    +0.000 A 
ATOM     14  C   UNL     1      -0.992  15.615  24.806  0.00  0.00    +0.000 A 
ATOM     15  C   UNL     1      -2.042  15.558  25.713  0.00  0.00    +0.000 A 
ATOM     16  C   UNL     1      -3.145  14.750  25.444  0.00  0.00    +0.000 A 
ATOM     17  C   UNL     1      -3.205  13.972  24.273  0.00  0.00    +0.000 A 
ATOM     18  C   UNL     1      -4.401  13.088  24.049  0.00  0.00    +0.000 C 
ENDBRANCH   7  12
BRANCH   1  19
ATOM     19  C   UNL     1      -0.023  10.326  19.053  0.00  0.00    +0.000 C 
BRANCH  19  20
ATOM     20  N   UNL     1       1.435  10.205  18.753  0.00  0.00    +0.000 NA
ATOM     21  C   UNL     1       1.949  11.452  18.174  0.00  0.00    +0.000 C 
BRANCH  20  22
ATOM     22  C   UNL     1       1.750   9.074  17.852  0.00  0.00    +0.000 C 
BRANCH  22  24
ATOM     23  N   UNL     1       2.919   6.911  17.791  0.00  0.00    +0.000 N 
ATOM     24  C   UNL     1       2.279   7.844  18.599  0.00  0.00    +0.000 C 
ATOM     25  O   UNL     1       2.061   7.724  19.803  0.00  0.00    +0.000 OA
ATOM     26  H   UNL     1       2.828   7.048  16.793  0.00  0.00    +0.000 HD
BRANCH  23  32
ATOM     27  C   UNL     1       2.929   4.508  18.341  0.00  0.00    +0.000 A 
ATOM     28  C   UNL     1       3.640   3.387  18.830  0.00  0.00    +0.000 A 
ATOM     29  C   UNL     1       4.980   3.474  19.192  0.00  0.00    +0.000 A 
ATOM     30  C   UNL     1       5.641   4.686  19.066  0.00  0.00    +0.000 A 
ATOM     31  C   UNL     1       4.953   5.807  18.596  0.00  0.00    +0.000 A 
ATOM     32  C   UNL     1       3.592   5.748  18.249  0.00  0.00    +0.000 A 
BRANCH  27  34
ATOM     33  C   UNL     1       0.975   2.940  18.536  0.00  0.00    +0.000 C 
ATOM     34  C   UNL     1       1.465   4.291  18.034  0.00  0.00    +0.000 C 
ENDBRANCH  27  34
ENDBRANCH  23  32
ENDBRANCH  22  24
ENDBRANCH  20  22
ENDBRANCH  19  20
ENDBRANCH   1  19
TORSDOF 7
ENDMDL
MODEL 7
REMARK VINA RESULT:      -7.2      1.073      1.325
REMARK  Name = 
REMARK  10 active torsions:
REMARK  status: ('A' for Active; 'I' for Inactive)
REMARK    1  A    between atoms: C_1  and  C_2
REMARK    2  A    between atoms: C_2  and  C_3
REMARK    3  A    between atoms: C_8  and  N_9
REMARK    4  A    between atoms: C_10  and  C_12
REMARK    5  A    between atoms: C_12  and  N_13
REMARK    6  A    between atoms: N_13  and  C_14
REMARK    7  A    between atoms: N_13  and  C_15
REMARK    8  A    between atoms: C_15  and  C_16
REMARK    9  A    between atoms: N_22  and  C_23
REMARK   10  A    between atoms: C_28  and  C_29
REMARK                            x       y       z     vdW  Elec       q    Type
REMARK                         _______ _______ _______ _____ _____    ______ ____
ROOT
ATOM      1  C   UNL     1       1.705   6.002  20.389  0.00  0.00    +0.000 A 
ATOM      2  N   UNL     1       2.345   6.208  19.236  0.00  0.00    +0.000 NA
ATOM      3  C   UNL     1       2.502   7.478  18.907  0.00  0.00    +0.000 A 
ATOM      4  N   UNL     1       3.148   7.765  17.722  0.00  0.00    +0.000 N 
ATOM      5  N   UNL     1       2.038   8.502  19.596  0.00  0.00    +0.000 NA
ATOM      6  C   UNL     1       1.386   8.213  20.719  0.00  0.00    +0.000 A 
ATOM      7  N   UNL     1       0.854   9.257  21.492  0.00  0.00    +0.000 N 
ATOM      8  N   UNL     1       1.207   6.973  21.161  0.00  0.00    +0.000 NA
ATOM      9  H   UNL     1       3.091   6.985  17.084  0.00  0.00    +0.000 HD
ATOM     10  H   UNL     1       2.852   8.671  17.383  0.00  0.00    +0.000 HD
ATOM     11  H   UNL     1       0.227   8.844  22.176  0.00  0.00    +0.000 HD
ENDROOT
BRANCH   7  12
ATOM     12  C   UNL     1       0.394  10.498  20.995  0.00  0.00    +0.000 A 
ATOM     13  C   UNL     1       0.803  10.963  19.732  0.00  0.00    +0.000 A 
ATOM     14  C   UNL     1       0.348  12.178  19.221  0.00  0.00    +0.000 A 
ATOM     15  C   UNL     1      -0.556  12.937  19.952  0.00  0.00    +0.000 A 
ATOM     16  C   UNL     1      -1.006  12.479  21.188  0.00  0.00    +0.000 A 
ATOM     17  C   UNL     1      -0.542  11.261  21.721  0.00  0.00    +0.000 A 
ATOM     18  C   UNL     1      -1.029  10.830  23.077  0.00  0.00    +0.000 C 
ENDBRANCH   7  12
BRANCH   1  19
ATOM     19  C   UNL     1       1.528   4.560  20.857  0.00  0.00    +0.000 C 
BRANCH  19  20
ATOM     20  N   UNL     1       1.868   3.451  19.916  0.00  0.00    +0.000 NA
ATOM     21  C   UNL     1       0.708   2.576  19.709  0.00  0.00    +0.000 C 
BRANCH  20  22
ATOM     22  C   UNL     1       3.023   2.643  20.365  0.00  0.00    +0.000 C 
BRANCH  22  24
ATOM     23  N   UNL     1       4.060   3.641  18.370  0.00  0.00    +0.000 N 
ATOM     24  C   UNL     1       4.255   2.810  19.467  0.00  0.00    +0.000 C 
ATOM     25  O   UNL     1       5.279   2.177  19.719  0.00  0.00    +0.000 OA
ATOM     26  H   UNL     1       3.104   3.912  18.181  0.00  0.00    +0.000 HD
BRANCH  23  32
ATOM     27  C   UNL     1       6.132   4.876  17.861  0.00  0.00    +0.000 A 
ATOM     28  C   UNL     1       7.093   5.273  16.902  0.00  0.00    +0.000 A 
ATOM     29  C   UNL     1       7.026   4.842  15.580  0.00  0.00    +0.000 A 
ATOM     30  C   UNL     1       5.998   3.997  15.192  0.00  0.00    +0.000 A 
ATOM     31  C   UNL     1       5.034   3.603  16.122  0.00  0.00    +0.000 A 
ATOM     32  C   UNL     1       5.066   4.047  17.455  0.00  0.00    +0.000 A 
BRANCH  27  34
ATOM     33  C   UNL     1       7.745   5.762  19.571  0.00  0.00    +0.000 C 
ATOM     34  C   UNL     1       6.289   5.457  19.247  0.00  0.00    +0.000 C 
ENDBRANCH  27  34
ENDBRANCH  23  32
ENDBRANCH  22  24
ENDBRANCH  20  22
ENDBRANCH  19  20
ENDBRANCH   1  19
TORSDOF 7
ENDMDL
MODEL 8
REMARK VINA RESULT:      -7.1      5.582      9.319
REMARK  Name = 
REMARK  10 active torsions:
REMARK  status: ('A' for Active; 'I' for Inactive)
REMARK    1  A    between atoms: C_1  and  C_2
REMARK    2  A    between atoms: C_2  and  C_3
REMARK    3  A    between atoms: C_8  and  N_9
REMARK    4  A    between atoms: C_10  and  C_12
REMARK    5  A    between atoms: C_12  and  N_13
REMARK    6  A    between atoms: N_13  and  C_14
REMARK    7  A    between atoms: N_13  and  C_15
REMARK    8  A    between atoms: C_15  and  C_16
REMARK    9  A    between atoms: N_22  and  C_23
REMARK   10  A    between atoms: C_28  and  C_29
REMARK                            x       y       z     vdW  Elec       q    Type
REMARK                         _______ _______ _______ _____ _____    ______ ____
ROOT
ATOM      1  C   UNL     1       7.967   8.244  17.874  0.00  0.00    +0.000 A 
ATOM      2  N   UNL     1       8.489   7.473  18.831  0.00  0.00    +0.000 NA
ATOM      3  C   UNL     1       7.885   6.310  18.997  0.00  0.00    +0.000 A 
ATOM      4  N   UNL     1       8.366   5.464  19.975  0.00  0.00    +0.000 N 
ATOM      5  N   UNL     1       6.817   5.909  18.336  0.00  0.00    +0.000 NA
ATOM      6  C   UNL     1       6.340   6.746  17.419  0.00  0.00    +0.000 A 
ATOM      7  N   UNL     1       5.196   6.387  16.690  0.00  0.00    +0.000 N 
ATOM      8  N   UNL     1       6.894   7.922  17.145  0.00  0.00    +0.000 NA
ATOM      9  H   UNL     1       8.871   5.982  20.680  0.00  0.00    +0.000 HD
ATOM     10  H   UNL     1       7.628   4.847  20.286  0.00  0.00    +0.000 HD
ATOM     11  H   UNL     1       4.868   7.216  16.205  0.00  0.00    +0.000 HD
ENDROOT
BRANCH   7  12
ATOM     12  C   UNL     1       4.145   5.566  17.159  0.00  0.00    +0.000 A 
ATOM     13  C   UNL     1       3.089   6.109  17.912  0.00  0.00    +0.000 A 
ATOM     14  C   UNL     1       2.038   5.317  18.371  0.00  0.00    +0.000 A 
ATOM     15  C   UNL     1       2.005   3.965  18.055  0.00  0.00    +0.000 A 
ATOM     16  C   UNL     1       3.020   3.411  17.278  0.00  0.00    +0.000 A 
ATOM     17  C   UNL     1       4.094   4.198  16.821  0.00  0.00    +0.000 A 
ATOM     18  C   UNL     1       5.184   3.544  16.017  0.00  0.00    +0.000 C 
ENDBRANCH   7  12
BRANCH   1  19
ATOM     19  C   UNL     1       8.642   9.584  17.594  0.00  0.00    +0.000 C 
BRANCH  19  20
ATOM     20  N   UNL     1       8.651  10.625  18.664  0.00  0.00    +0.000 NA
ATOM     21  C   UNL     1       9.008  11.935  18.108  0.00  0.00    +0.000 C 
BRANCH  20  22
ATOM     22  C   UNL     1       9.561  10.298  19.784  0.00  0.00    +0.000 C 
BRANCH  22  24
ATOM     23  N   UNL     1       8.808  12.028  21.363  0.00  0.00    +0.000 N 
ATOM     24  C   UNL     1       9.891  11.512  20.661  0.00  0.00    +0.000 C 
ATOM     25  O   UNL     1      11.028  11.981  20.644  0.00  0.00    +0.000 OA
ATOM     26  H   UNL     1       7.898  11.669  21.104  0.00  0.00    +0.000 HD
BRANCH  23  32
ATOM     27  C   UNL     1       8.421  12.875  23.645  0.00  0.00    +0.000 A 
ATOM     28  C   UNL     1       8.480  13.956  24.555  0.00  0.00    +0.000 A 
ATOM     29  C   UNL     1       8.996  15.194  24.184  0.00  0.00    +0.000 A 
ATOM     30  C   UNL     1       9.471  15.374  22.894  0.00  0.00    +0.000 A 
ATOM     31  C   UNL     1       9.411  14.321  21.979  0.00  0.00    +0.000 A 
ATOM     32  C   UNL     1       8.870  13.070  22.323  0.00  0.00    +0.000 A 
BRANCH  27  34
ATOM     33  C   UNL     1       6.271  11.636  24.042  0.00  0.00    +0.000 C 
ATOM     34  C   UNL     1       7.789  11.602  24.159  0.00  0.00    +0.000 C 
ENDBRANCH  27  34
ENDBRANCH  23  32
ENDBRANCH  22  24
ENDBRANCH  20  22
ENDBRANCH  19  20
ENDBRANCH   1  19
TORSDOF 7
ENDMDL
MODEL 9
REMARK VINA RESULT:      -7.1      6.397      9.800
REMARK  Name = 
REMARK  10 active torsions:
REMARK  status: ('A' for Active; 'I' for Inactive)
REMARK    1  A    between atoms: C_1  and  C_2
REMARK    2  A    between atoms: C_2  and  C_3
REMARK    3  A    between atoms: C_8  and  N_9
REMARK    4  A    between atoms: C_10  and  C_12
REMARK    5  A    between atoms: C_12  and  N_13
REMARK    6  A    between atoms: N_13  and  C_14
REMARK    7  A    between atoms: N_13  and  C_15
REMARK    8  A    between atoms: C_15  and  C_16
REMARK    9  A    between atoms: N_22  and  C_23
REMARK   10  A    between atoms: C_28  and  C_29
REMARK                            x       y       z     vdW  Elec       q    Type
REMARK                         _______ _______ _______ _____ _____    ______ ____
ROOT
ATOM      1  C   UNL     1       7.929   8.428  17.980  0.00  0.00    +0.000 A 
ATOM      2  N   UNL     1       8.503   7.621  18.876  0.00  0.00    +0.000 NA
ATOM      3  C   UNL     1       7.984   6.408  18.943  0.00  0.00    +0.000 A 
ATOM      4  N   UNL     1       8.522   5.523  19.854  0.00  0.00    +0.000 N 
ATOM      5  N   UNL     1       6.948   5.987  18.244  0.00  0.00    +0.000 NA
ATOM      6  C   UNL     1       6.415   6.859  17.393  0.00  0.00    +0.000 A 
ATOM      7  N   UNL     1       5.301   6.479  16.628  0.00  0.00    +0.000 N 
ATOM      8  N   UNL     1       6.883   8.090  17.219  0.00  0.00    +0.000 NA
ATOM      9  H   UNL     1       8.987   6.016  20.602  0.00  0.00    +0.000 HD
ATOM     10  H   UNL     1       7.829   4.831  20.108  0.00  0.00    +0.000 HD
ATOM     11  H   UNL     1       4.915   7.320  16.209  0.00  0.00    +0.000 HD
ENDROOT
BRANCH   7  12
ATOM     12  C   UNL     1       4.310   5.550  17.022  0.00  0.00    +0.000 A 
ATOM     13  C   UNL     1       3.204   5.959  17.788  0.00  0.00    +0.000 A 
ATOM     14  C   UNL     1       2.212   5.059  18.173  0.00  0.00    +0.000 A 
ATOM     15  C   UNL     1       2.290   3.733  17.769  0.00  0.00    +0.000 A 
ATOM     16  C   UNL     1       3.356   3.312  16.977  0.00  0.00    +0.000 A 
ATOM     17  C   UNL     1       4.372   4.208  16.595  0.00  0.00    +0.000 A 
ATOM     18  C   UNL     1       5.521   3.695  15.771  0.00  0.00    +0.000 C 
ENDBRANCH   7  12
BRANCH   1  19
ATOM     19  C   UNL     1       8.507   9.830  17.813  0.00  0.00    +0.000 C 
BRANCH  19  20
ATOM     20  N   UNL     1       9.668  10.237  18.660  0.00  0.00    +0.000 NA
ATOM     21  C   UNL     1       9.205  10.814  19.928  0.00  0.00    +0.000 C 
BRANCH  20  22
ATOM     22  C   UNL     1      10.574  11.191  17.984  0.00  0.00    +0.000 C 
BRANCH  22  24
ATOM     23  N   UNL     1      10.779  13.600  18.439  0.00  0.00    +0.000 N 
ATOM     24  C   UNL     1       9.987  12.603  17.879  0.00  0.00    +0.000 C 
ATOM     25  O   UNL     1       8.870  12.761  17.388  0.00  0.00    +0.000 OA
ATOM     26  H   UNL     1      11.563  13.285  18.995  0.00  0.00    +0.000 HD
BRANCH  23  32
ATOM     27  C   UNL     1       9.852  15.662  19.421  0.00  0.00    +0.000 A 
ATOM     28  C   UNL     1       9.593  17.047  19.293  0.00  0.00    +0.000 A 
ATOM     29  C   UNL     1      10.005  17.765  18.175  0.00  0.00    +0.000 A 
ATOM     30  C   UNL     1      10.692  17.113  17.163  0.00  0.00    +0.000 A 
ATOM     31  C   UNL     1      10.947  15.744  17.267  0.00  0.00    +0.000 A 
ATOM     32  C   UNL     1      10.518  14.993  18.374  0.00  0.00    +0.000 A 
BRANCH  27  34
ATOM     33  C   UNL     1      10.275  15.079  21.828  0.00  0.00    +0.000 C 
ATOM     34  C   UNL     1       9.304  14.990  20.659  0.00  0.00    +0.000 C 
ENDBRANCH  27  34
ENDBRANCH  23  32
ENDBRANCH  22  24
ENDBRANCH  20  22
ENDBRANCH  19  20
ENDBRANCH   1  19
TORSDOF 7
ENDMDL
