MODEL 1
REMARK VINA RESULT:      -7.0      0.000      0.000
REMARK  Name = 
REMARK  9 active torsions:
REMARK  status: ('A' for Active; 'I' for Inactive)
REMARK    1  A    between atoms: C_1  and  C_2
REMARK    2  A    between atoms: C_2  and  C_3
REMARK    3  A    between atoms: C_3  and  C_4
REMARK    4  A    between atoms: C_9  and  C_10
REMARK    5  A    between atoms: C_13  and  S_14
REMARK    6  A    between atoms: S_14  and  C_15
REMARK    7  A    between atoms: C_19  and  C_20
REMARK    8  A    between atoms: C_23  and  S_24
REMARK    9  A    between atoms: S_24  and  C_25
REMARK                            x       y       z     vdW  Elec       q    Type
REMARK                         _______ _______ _______ _____ _____    ______ ____
ROOT
ATOM      1  C   UNL     1       2.888  14.260  18.333  0.00  0.00    +0.000 C 
ATOM      2  O   UNL     1       2.692  14.597  19.498  0.00  0.00    +0.000 OA
ATOM      3  N   UNL     1       2.423  13.099  17.754  0.00  0.00    +0.000 N 
ATOM      4  C   UNL     1       1.620  12.194  18.454  0.00  0.00    +0.000 A 
ATOM      5  C   UNL     1       0.560  12.627  19.216  0.00  0.00    +0.000 A 
ATOM      6  C   UNL     1      -0.155  11.663  19.893  0.00  0.00    +0.000 A 
ATOM      7  N   UNL     1       0.195  10.360  19.825  0.00  0.00    +0.000 NA
ATOM      8  C   UNL     1       1.253  10.038  19.052  0.00  0.00    +0.000 A 
ATOM      9  N   UNL     1       1.947  10.912  18.303  0.00  0.00    +0.000 NA
ATOM     10  H   UNL     1       2.993  12.674  17.034  0.00  0.00    +0.000 HD
ENDROOT
BRANCH   6  11
ATOM     11  C   UNL     1      -1.337  11.991  20.724  0.00  0.00    +0.000 A 
ATOM     12  C   UNL     1      -2.521  12.480  20.148  0.00  0.00    +0.000 A 
ATOM     13  C   UNL     1      -3.631  12.825  20.942  0.00  0.00    +0.000 A 
ATOM     14  C   UNL     1      -3.593  12.674  22.330  0.00  0.00    +0.000 A 
ATOM     15  C   UNL     1      -2.424  12.205  22.914  0.00  0.00    +0.000 A 
ATOM     16  C   UNL     1      -1.317  11.854  22.124  0.00  0.00    +0.000 A 
BRANCH  14  17
ATOM     17  S   UNL     1      -5.034  13.149  23.274  0.00  0.00    +0.000 S 
ATOM     18  C   UNL     1      -4.720  12.339  24.868  0.00  0.00    +0.000 C 
ENDBRANCH  14  17
ENDBRANCH   6  11
BRANCH   8  19
ATOM     19  C   UNL     1       1.746   8.645  19.086  0.00  0.00    +0.000 A 
ATOM     20  C   UNL     1       1.649   7.856  20.244  0.00  0.00    +0.000 A 
ATOM     21  C   UNL     1       2.153   6.549  20.282  0.00  0.00    +0.000 A 
ATOM     22  C   UNL     1       2.767   5.983  19.162  0.00  0.00    +0.000 A 
ATOM     23  C   UNL     1       2.885   6.755  18.007  0.00  0.00    +0.000 A 
ATOM     24  C   UNL     1       2.378   8.062  17.972  0.00  0.00    +0.000 A 
BRANCH  22  25
ATOM     25  S   UNL     1       3.429   4.331  19.325  0.00  0.00    +0.000 S 
ATOM     26  C   UNL     1       4.475   4.184  17.852  0.00  0.00    +0.000 C 
ENDBRANCH  22  25
ENDBRANCH   8  19
BRANCH   1  27
ATOM     27  C   UNL     1       3.668  15.139  17.381  0.00  0.00    +0.000 C 
BRANCH  27  29
ATOM     28  C   UNL     1       2.346  17.284  17.103  0.00  0.00    +0.000 C 
ATOM     29  C   UNL     1       3.539  16.610  17.768  0.00  0.00    +0.000 C 
ENDBRANCH  27  29
ENDBRANCH   1  27
TORSDOF 6
ENDMDL
MODEL 2
REMARK VINA RESULT:      -7.0      0.657      1.085
REMARK  Name = 
REMARK  9 active torsions:
REMARK  status: ('A' for Active; 'I' for Inactive)
REMARK    1  A    between atoms: C_1  and  C_2
REMARK    2  A    between atoms: C_2  and  C_3
REMARK    3  A    between atoms: C_3  and  C_4
REMARK    4  A    between atoms: C_9  and  C_10
REMARK    5  A    between atoms: C_13  and  S_14
REMARK    6  A    between atoms: S_14  and  C_15
REMARK    7  A    between atoms: C_19  and  C_20
REMARK    8  A    between atoms: C_23  and  S_24
REMARK    9  A    between atoms: S_24  and  C_25
REMARK                            x       y       z     vdW  Elec       q    Type
REMARK                         _______ _______ _______ _____ _____    ______ ____
ROOT
ATOM      1  C   UNL     1       2.946  14.274  18.331  0.00  0.00    +0.000 C 
ATOM      2  O   UNL     1       2.903  14.569  19.523  0.00  0.00    +0.000 OA
ATOM      3  N   UNL     1       2.403  13.136  17.775  0.00  0.00    +0.000 N 
ATOM      4  C   UNL     1       1.691  12.207  18.539  0.00  0.00    +0.000 A 
ATOM      5  C   UNL     1       0.742  12.613  19.447  0.00  0.00    +0.000 A 
ATOM      6  C   UNL     1       0.114  11.624  20.175  0.00  0.00    +0.000 A 
ATOM      7  N   UNL     1       0.445  10.325  20.015  0.00  0.00    +0.000 NA
ATOM      8  C   UNL     1       1.393  10.030  19.100  0.00  0.00    +0.000 A 
ATOM      9  N   UNL     1       1.989  10.930  18.300  0.00  0.00    +0.000 NA
ATOM     10  H   UNL     1       2.873  12.738  16.972  0.00  0.00    +0.000 HD
ENDROOT
BRANCH   6  11
ATOM     11  C   UNL     1      -0.948  11.923  21.163  0.00  0.00    +0.000 A 
ATOM     12  C   UNL     1      -1.005  11.255  22.398  0.00  0.00    +0.000 A 
ATOM     13  C   UNL     1      -2.035  11.515  23.322  0.00  0.00    +0.000 A 
ATOM     14  C   UNL     1      -3.026  12.459  23.042  0.00  0.00    +0.000 A 
ATOM     15  C   UNL     1      -2.990  13.116  21.820  0.00  0.00    +0.000 A 
ATOM     16  C   UNL     1      -1.960  12.864  20.899  0.00  0.00    +0.000 A 
BRANCH  14  17
ATOM     17  S   UNL     1      -4.312  12.723  24.256  0.00  0.00    +0.000 S 
ATOM     18  C   UNL     1      -5.747  13.088  23.206  0.00  0.00    +0.000 C 
ENDBRANCH  14  17
ENDBRANCH   6  11
BRANCH   8  19
ATOM     19  C   UNL     1       1.877   8.637  19.020  0.00  0.00    +0.000 A 
ATOM     20  C   UNL     1       1.744   7.746  20.097  0.00  0.00    +0.000 A 
ATOM     21  C   UNL     1       2.240   6.437  20.029  0.00  0.00    +0.000 A 
ATOM     22  C   UNL     1       2.884   5.971  18.879  0.00  0.00    +0.000 A 
ATOM     23  C   UNL     1       3.038   6.845  17.803  0.00  0.00    +0.000 A 
ATOM     24  C   UNL     1       2.539   8.154  17.875  0.00  0.00    +0.000 A 
BRANCH  22  25
ATOM     25  S   UNL     1       3.533   4.307  18.907  0.00  0.00    +0.000 S 
ATOM     26  C   UNL     1       4.085   4.075  17.196  0.00  0.00    +0.000 C 
ENDBRANCH  22  25
ENDBRANCH   8  19
BRANCH   1  27
ATOM     27  C   UNL     1       3.602  15.187  17.319  0.00  0.00    +0.000 C 
BRANCH  27  29
ATOM     28  C   UNL     1       2.327  17.360  17.033  0.00  0.00    +0.000 C 
ATOM     29  C   UNL     1       3.473  16.649  17.741  0.00  0.00    +0.000 C 
ENDBRANCH  27  29
ENDBRANCH   1  27
TORSDOF 6
ENDMDL
MODEL 3
REMARK VINA RESULT:      -7.0      0.650      1.130
REMARK  Name = 
REMARK  9 active torsions:
REMARK  status: ('A' for Active; 'I' for Inactive)
REMARK    1  A    between atoms: C_1  and  C_2
REMARK    2  A    between atoms: C_2  and  C_3
REMARK    3  A    between atoms: C_3  and  C_4
REMARK    4  A    between atoms: C_9  and  C_10
REMARK    5  A    between atoms: C_13  and  S_14
REMARK    6  A    between atoms: S_14  and  C_15
REMARK    7  A    between atoms: C_19  and  C_20
REMARK    8  A    between atoms: C_23  and  S_24
REMARK    9  A    between atoms: S_24  and  C_25
REMARK                            x       y       z     vdW  Elec       q    Type
REMARK                         _______ _______ _______ _____ _____    ______ ____
ROOT
ATOM      1  C   UNL     1       2.877  14.223  18.383  0.00  0.00    +0.000 C 
ATOM      2  O   UNL     1       2.770  14.530  19.567  0.00  0.00    +0.000 OA
ATOM      3  N   UNL     1       2.382  13.068  17.814  0.00  0.00    +0.000 N 
ATOM      4  C   UNL     1       1.650  12.135  18.554  0.00  0.00    +0.000 A 
ATOM      5  C   UNL     1       0.650  12.533  19.409  0.00  0.00    +0.000 A 
ATOM      6  C   UNL     1       0.005  11.542  20.117  0.00  0.00    +0.000 A 
ATOM      7  N   UNL     1       0.366  10.247  19.989  0.00  0.00    +0.000 NA
ATOM      8  C   UNL     1       1.363   9.960  19.126  0.00  0.00    +0.000 A 
ATOM      9  N   UNL     1       1.982  10.861  18.345  0.00  0.00    +0.000 NA
ATOM     10  H   UNL     1       2.898  12.670  17.041  0.00  0.00    +0.000 HD
ENDROOT
BRANCH   6  11
ATOM     11  C   UNL     1      -1.110  11.832  21.048  0.00  0.00    +0.000 A 
ATOM     12  C   UNL     1      -2.255  12.526  20.622  0.00  0.00    +0.000 A 
ATOM     13  C   UNL     1      -3.299  12.831  21.516  0.00  0.00    +0.000 A 
ATOM     14  C   UNL     1      -3.233  12.438  22.855  0.00  0.00    +0.000 A 
ATOM     15  C   UNL     1      -2.100  11.764  23.293  0.00  0.00    +0.000 A 
ATOM     16  C   UNL     1      -1.061  11.452  22.402  0.00  0.00    +0.000 A 
BRANCH  14  17
ATOM     17  S   UNL     1      -4.587  12.876  23.935  0.00  0.00    +0.000 S 
ATOM     18  C   UNL     1      -5.123  14.464  23.238  0.00  0.00    +0.000 C 
ENDBRANCH  14  17
ENDBRANCH   6  11
BRANCH   8  19
ATOM     19  C   UNL     1       1.876   8.575  19.086  0.00  0.00    +0.000 A 
ATOM     20  C   UNL     1       2.499   8.051  17.942  0.00  0.00    +0.000 A 
ATOM     21  C   UNL     1       2.949   6.724  17.897  0.00  0.00    +0.000 A 
ATOM     22  C   UNL     1       2.794   5.875  18.997  0.00  0.00    +0.000 A 
ATOM     23  C   UNL     1       2.165   6.373  20.137  0.00  0.00    +0.000 A 
ATOM     24  C   UNL     1       1.719   7.701  20.179  0.00  0.00    +0.000 A 
BRANCH  22  25
ATOM     25  S   UNL     1       3.347   4.185  18.824  0.00  0.00    +0.000 S 
ATOM     26  C   UNL     1       5.149   4.352  18.941  0.00  0.00    +0.000 C 
ENDBRANCH  22  25
ENDBRANCH   8  19
BRANCH   1  27
ATOM     27  C   UNL     1       3.565  15.135  17.393  0.00  0.00    +0.000 C 
BRANCH  27  29
ATOM     28  C   UNL     1       2.103  17.206  17.452  0.00  0.00    +0.000 C 
ATOM     29  C   UNL     1       3.448  16.596  17.826  0.00  0.00    +0.000 C 
ENDBRANCH  27  29
ENDBRANCH   1  27
TORSDOF 6
ENDMDL
MODEL 4
REMARK VINA RESULT:      -7.0      2.055      2.460
REMARK  Name = 
REMARK  9 active torsions:
REMARK  status: ('A' for Active; 'I' for Inactive)
REMARK    1  A    between atoms: C_1  and  C_2
REMARK    2  A    between atoms: C_2  and  C_3
REMARK    3  A    between atoms: C_3  and  C_4
REMARK    4  A    between atoms: C_9  and  C_10
REMARK    5  A    between atoms: C_13  and  S_14
REMARK    6  A    between atoms: S_14  and  C_15
REMARK    7  A    between atoms: C_19  and  C_20
REMARK    8  A    between atoms: C_23  and  S_24
REMARK    9  A    between atoms: S_24  and  C_25
REMARK                            x       y       z     vdW  Elec       q    Type
REMARK                         _______ _______ _______ _____ _____    ______ ____
ROOT
ATOM      1  C   UNL     1       2.045  14.519  19.502  0.00  0.00    +0.000 C 
ATOM      2  O   UNL     1       1.146  14.586  20.336  0.00  0.00    +0.000 OA
ATOM      3  N   UNL     1       2.237  13.474  18.624  0.00  0.00    +0.000 N 
ATOM      4  C   UNL     1       1.366  12.381  18.575  0.00  0.00    +0.000 A 
ATOM      5  C   UNL     1       0.002  12.558  18.581  0.00  0.00    +0.000 A 
ATOM      6  C   UNL     1      -0.774  11.419  18.560  0.00  0.00    +0.000 A 
ATOM      7  N   UNL     1      -0.209  10.192  18.562  0.00  0.00    +0.000 NA
ATOM      8  C   UNL     1       1.139  10.125  18.560  0.00  0.00    +0.000 A 
ATOM      9  N   UNL     1       1.957  11.189  18.500  0.00  0.00    +0.000 NA
ATOM     10  H   UNL     1       3.187  13.257  18.354  0.00  0.00    +0.000 HD
ENDROOT
BRANCH   6  11
ATOM     11  C   UNL     1      -2.253  11.470  18.533  0.00  0.00    +0.000 A 
ATOM     12  C   UNL     1      -2.975  12.244  19.458  0.00  0.00    +0.000 A 
ATOM     13  C   UNL     1      -4.382  12.264  19.453  0.00  0.00    +0.000 A 
ATOM     14  C   UNL     1      -5.106  11.524  18.515  0.00  0.00    +0.000 A 
ATOM     15  C   UNL     1      -4.406  10.743  17.604  0.00  0.00    +0.000 A 
ATOM     16  C   UNL     1      -3.002  10.727  17.602  0.00  0.00    +0.000 A 
BRANCH  14  17
ATOM     17  S   UNL     1      -6.891  11.585  18.581  0.00  0.00    +0.000 S 
ATOM     18  C   UNL     1      -7.235  10.766  20.164  0.00  0.00    +0.000 C 
ENDBRANCH  14  17
ENDBRANCH   6  11
BRANCH   8  19
ATOM     19  C   UNL     1       1.773   8.800  18.718  0.00  0.00    +0.000 A 
ATOM     20  C   UNL     1       1.624   8.045  19.893  0.00  0.00    +0.000 A 
ATOM     21  C   UNL     1       2.259   6.807  20.052  0.00  0.00    +0.000 A 
ATOM     22  C   UNL     1       3.063   6.276  19.040  0.00  0.00    +0.000 A 
ATOM     23  C   UNL     1       3.235   7.017  17.871  0.00  0.00    +0.000 A 
ATOM     24  C   UNL     1       2.596   8.255  17.714  0.00  0.00    +0.000 A 
BRANCH  22  25
ATOM     25  S   UNL     1       3.877   4.718  19.357  0.00  0.00    +0.000 S 
ATOM     26  C   UNL     1       5.630   5.163  19.236  0.00  0.00    +0.000 C 
ENDBRANCH  22  25
ENDBRANCH   8  19
BRANCH   1  27
ATOM     27  C   UNL     1       3.048  15.638  19.336  0.00  0.00    +0.000 C 
BRANCH  27  29
ATOM     28  C   UNL     1       3.043  16.840  17.103  0.00  0.00    +0.000 C 
ATOM     29  C   UNL     1       2.460  16.779  18.509  0.00  0.00    +0.000 C 
ENDBRANCH  27  29
ENDBRANCH   1  27
TORSDOF 6
ENDMDL
MODEL 5
REMARK VINA RESULT:      -6.9      2.107      2.615
REMARK  Name = 
REMARK  9 active torsions:
REMARK  status: ('A' for Active; 'I' for Inactive)
REMARK    1  A    between atoms: C_1  and  C_2
REMARK    2  A    between atoms: C_2  and  C_3
REMARK    3  A    between atoms: C_3  and  C_4
REMARK    4  A    between atoms: C_9  and  C_10
REMARK    5  A    between atoms: C_13  and  S_14
REMARK    6  A    between atoms: S_14  and  C_15
REMARK    7  A    between atoms: C_19  and  C_20
REMARK    8  A    between atoms: C_23  and  S_24
REMARK    9  A    between atoms: S_24  and  C_25
REMARK                            x       y       z     vdW  Elec       q    Type
REMARK                         _______ _______ _______ _____ _____    ______ ____
ROOT
ATOM      1  C   UNL     1       2.415  14.120  19.410  0.00  0.00    +0.000 C 
ATOM      2  O   UNL     1       1.521  14.191  20.250  0.00  0.00    +0.000 OA
ATOM      3  N   UNL     1       2.603  13.070  18.537  0.00  0.00    +0.000 N 
ATOM      4  C   UNL     1       1.733  11.976  18.499  0.00  0.00    +0.000 A 
ATOM      5  C   UNL     1       0.369  12.152  18.511  0.00  0.00    +0.000 A 
ATOM      6  C   UNL     1      -0.406  11.012  18.501  0.00  0.00    +0.000 A 
ATOM      7  N   UNL     1       0.160   9.786  18.507  0.00  0.00    +0.000 NA
ATOM      8  C   UNL     1       1.508   9.720  18.498  0.00  0.00    +0.000 A 
ATOM      9  N   UNL     1       2.325  10.785  18.428  0.00  0.00    +0.000 NA
ATOM     10  H   UNL     1       3.552  12.853  18.264  0.00  0.00    +0.000 HD
ENDROOT
BRANCH   6  11
ATOM     11  C   UNL     1      -1.885  11.061  18.482  0.00  0.00    +0.000 A 
ATOM     12  C   UNL     1      -2.637  10.140  17.732  0.00  0.00    +0.000 A 
ATOM     13  C   UNL     1      -4.042  10.209  17.687  0.00  0.00    +0.000 A 
ATOM     14  C   UNL     1      -4.734  11.190  18.402  0.00  0.00    +0.000 A 
ATOM     15  C   UNL     1      -4.004  12.115  19.135  0.00  0.00    +0.000 A 
ATOM     16  C   UNL     1      -2.602  12.045  19.188  0.00  0.00    +0.000 A 
BRANCH  14  17
ATOM     17  S   UNL     1      -6.517  11.227  18.282  0.00  0.00    +0.000 S 
ATOM     18  C   UNL     1      -7.009  11.244  20.029  0.00  0.00    +0.000 C 
ENDBRANCH  14  17
ENDBRANCH   6  11
BRANCH   8  19
ATOM     19  C   UNL     1       2.145   8.396  18.659  0.00  0.00    +0.000 A 
ATOM     20  C   UNL     1       2.978   7.852  17.669  0.00  0.00    +0.000 A 
ATOM     21  C   UNL     1       3.547   6.579  17.811  0.00  0.00    +0.000 A 
ATOM     22  C   UNL     1       3.308   5.808  18.951  0.00  0.00    +0.000 A 
ATOM     23  C   UNL     1       2.472   6.325  19.940  0.00  0.00    +0.000 A 
ATOM     24  C   UNL     1       1.905   7.600  19.796  0.00  0.00    +0.000 A 
BRANCH  22  25
ATOM     25  S   UNL     1       4.031   4.176  19.016  0.00  0.00    +0.000 S 
ATOM     26  C   UNL     1       2.901   3.293  20.124  0.00  0.00    +0.000 C 
ENDBRANCH  22  25
ENDBRANCH   8  19
BRANCH   1  27
ATOM     27  C   UNL     1       3.416  15.239  19.233  0.00  0.00    +0.000 C 
BRANCH  27  29
ATOM     28  C   UNL     1       3.044  16.760  17.239  0.00  0.00    +0.000 C 
ATOM     29  C   UNL     1       3.701  15.486  17.753  0.00  0.00    +0.000 C 
ENDBRANCH  27  29
ENDBRANCH   1  27
TORSDOF 6
ENDMDL
MODEL 6
REMARK VINA RESULT:      -6.9      1.548      2.293
REMARK  Name = 
REMARK  9 active torsions:
REMARK  status: ('A' for Active; 'I' for Inactive)
REMARK    1  A    between atoms: C_1  and  C_2
REMARK    2  A    between atoms: C_2  and  C_3
REMARK    3  A    between atoms: C_3  and  C_4
REMARK    4  A    between atoms: C_9  and  C_10
REMARK    5  A    between atoms: C_13  and  S_14
REMARK    6  A    between atoms: S_14  and  C_15
REMARK    7  A    between atoms: C_19  and  C_20
REMARK    8  A    between atoms: C_23  and  S_24
REMARK    9  A    between atoms: S_24  and  C_25
REMARK                            x       y       z     vdW  Elec       q    Type
REMARK                         _______ _______ _______ _____ _____    ______ ____
ROOT
ATOM      1  C   UNL     1       2.838  14.267  18.535  0.00  0.00    +0.000 C 
ATOM      2  O   UNL     1       2.169  14.622  19.502  0.00  0.00    +0.000 OA
ATOM      3  N   UNL     1       2.695  13.069  17.868  0.00  0.00    +0.000 N 
ATOM      4  C   UNL     1       1.711  12.141  18.219  0.00  0.00    +0.000 A 
ATOM      5  C   UNL     1       0.416  12.535  18.464  0.00  0.00    +0.000 A 
ATOM      6  C   UNL     1      -0.476  11.551  18.832  0.00  0.00    +0.000 A 
ATOM      7  N   UNL     1      -0.078  10.268  18.970  0.00  0.00    +0.000 NA
ATOM      8  C   UNL     1       1.215   9.983  18.710  0.00  0.00    +0.000 A 
ATOM      9  N   UNL     1       2.121  10.873  18.271  0.00  0.00    +0.000 NA
ATOM     10  H   UNL     1       3.525  12.658  17.462  0.00  0.00    +0.000 HD
ENDROOT
BRANCH   6  11
ATOM     11  C   UNL     1      -1.905  11.836  19.094  0.00  0.00    +0.000 A 
ATOM     12  C   UNL     1      -2.911  11.385  18.224  0.00  0.00    +0.000 A 
ATOM     13  C   UNL     1      -4.267  11.686  18.455  0.00  0.00    +0.000 A 
ATOM     14  C   UNL     1      -4.653  12.432  19.571  0.00  0.00    +0.000 A 
ATOM     15  C   UNL     1      -3.668  12.897  20.432  0.00  0.00    +0.000 A 
ATOM     16  C   UNL     1      -2.316  12.592  20.208  0.00  0.00    +0.000 A 
BRANCH  14  17
ATOM     17  S   UNL     1      -6.391  12.791  19.790  0.00  0.00    +0.000 S 
ATOM     18  C   UNL     1      -7.083  12.280  18.192  0.00  0.00    +0.000 C 
ENDBRANCH  14  17
ENDBRANCH   6  11
BRANCH   8  19
ATOM     19  C   UNL     1       1.703   8.620  19.003  0.00  0.00    +0.000 A 
ATOM     20  C   UNL     1       2.302   7.821  18.015  0.00  0.00    +0.000 A 
ATOM     21  C   UNL     1       2.729   6.515  18.290  0.00  0.00    +0.000 A 
ATOM     22  C   UNL     1       2.575   5.961  19.564  0.00  0.00    +0.000 A 
ATOM     23  C   UNL     1       1.970   6.733  20.555  0.00  0.00    +0.000 A 
ATOM     24  C   UNL     1       1.546   8.041  20.277  0.00  0.00    +0.000 A 
BRANCH  22  25
ATOM     25  S   UNL     1       3.096   4.270  19.802  0.00  0.00    +0.000 S 
ATOM     26  C   UNL     1       2.188   3.789  21.295  0.00  0.00    +0.000 C 
ENDBRANCH  22  25
ENDBRANCH   8  19
BRANCH   1  27
ATOM     27  C   UNL     1       3.904  15.162  17.946  0.00  0.00    +0.000 C 
BRANCH  27  29
ATOM     28  C   UNL     1       2.747  17.155  16.889  0.00  0.00    +0.000 C 
ATOM     29  C   UNL     1       3.522  16.634  18.092  0.00  0.00    +0.000 C 
ENDBRANCH  27  29
ENDBRANCH   1  27
TORSDOF 6
ENDMDL
MODEL 7
REMARK VINA RESULT:      -6.9      0.622      1.417
REMARK  Name = 
REMARK  9 active torsions:
REMARK  status: ('A' for Active; 'I' for Inactive)
REMARK    1  A    between atoms: C_1  and  C_2
REMARK    2  A    between atoms: C_2  and  C_3
REMARK    3  A    between atoms: C_3  and  C_4
REMARK    4  A    between atoms: C_9  and  C_10
REMARK    5  A    between atoms: C_13  and  S_14
REMARK    6  A    between atoms: S_14  and  C_15
REMARK    7  A    between atoms: C_19  and  C_20
REMARK    8  A    between atoms: C_23  and  S_24
REMARK    9  A    between atoms: S_24  and  C_25
REMARK                            x       y       z     vdW  Elec       q    Type
REMARK                         _______ _______ _______ _____ _____    ______ ____
ROOT
ATOM      1  C   UNL     1       3.036  14.035  18.323  0.00  0.00    +0.000 C 
ATOM      2  O   UNL     1       2.917  14.384  19.494  0.00  0.00    +0.000 OA
ATOM      3  N   UNL     1       2.513  12.879  17.782  0.00  0.00    +0.000 N 
ATOM      4  C   UNL     1       1.735  11.997  18.536  0.00  0.00    +0.000 A 
ATOM      5  C   UNL     1       0.733  12.456  19.358  0.00  0.00    +0.000 A 
ATOM      6  C   UNL     1       0.040  11.511  20.084  0.00  0.00    +0.000 A 
ATOM      7  N   UNL     1       0.360  10.202  20.005  0.00  0.00    +0.000 NA
ATOM      8  C   UNL     1       1.362   9.852  19.172  0.00  0.00    +0.000 A 
ATOM      9  N   UNL     1       2.027  10.706  18.376  0.00  0.00    +0.000 NA
ATOM     10  H   UNL     1       3.030  12.438  17.033  0.00  0.00    +0.000 HD
ENDROOT
BRANCH   6  11
ATOM     11  C   UNL     1      -1.082  11.869  20.982  0.00  0.00    +0.000 A 
ATOM     12  C   UNL     1      -1.089  11.481  22.332  0.00  0.00    +0.000 A 
ATOM     13  C   UNL     1      -2.172  11.792  23.176  0.00  0.00    +0.000 A 
ATOM     14  C   UNL     1      -3.269  12.512  22.697  0.00  0.00    +0.000 A 
ATOM     15  C   UNL     1      -3.282  12.889  21.361  0.00  0.00    +0.000 A 
ATOM     16  C   UNL     1      -2.200  12.587  20.518  0.00  0.00    +0.000 A 
BRANCH  14  17
ATOM     17  S   UNL     1      -4.615  12.854  23.822  0.00  0.00    +0.000 S 
ATOM     18  C   UNL     1      -4.451  14.645  24.067  0.00  0.00    +0.000 C 
ENDBRANCH  14  17
ENDBRANCH   6  11
BRANCH   8  19
ATOM     19  C   UNL     1       1.828   8.450  19.188  0.00  0.00    +0.000 A 
ATOM     20  C   UNL     1       2.457   7.868  18.075  0.00  0.00    +0.000 A 
ATOM     21  C   UNL     1       2.861   6.527  18.082  0.00  0.00    +0.000 A 
ATOM     22  C   UNL     1       2.655   5.720  19.205  0.00  0.00    +0.000 A 
ATOM     23  C   UNL     1       2.019   6.275  20.315  0.00  0.00    +0.000 A 
ATOM     24  C   UNL     1       1.618   7.618  20.305  0.00  0.00    +0.000 A 
BRANCH  22  25
ATOM     25  S   UNL     1       3.153   4.007  19.098  0.00  0.00    +0.000 S 
ATOM     26  C   UNL     1       3.619   3.846  17.354  0.00  0.00    +0.000 C 
ENDBRANCH  22  25
ENDBRANCH   8  19
BRANCH   1  27
ATOM     27  C   UNL     1       3.774  14.891  17.319  0.00  0.00    +0.000 C 
BRANCH  27  29
ATOM     28  C   UNL     1       2.691  17.151  16.939  0.00  0.00    +0.000 C 
ATOM     29  C   UNL     1       3.732  16.363  17.722  0.00  0.00    +0.000 C 
ENDBRANCH  27  29
ENDBRANCH   1  27
TORSDOF 6
ENDMDL
MODEL 8
REMARK VINA RESULT:      -6.9      2.068      2.950
REMARK  Name = 
REMARK  9 active torsions:
REMARK  status: ('A' for Active; 'I' for Inactive)
REMARK    1  A    between atoms: C_1  and  C_2
REMARK    2  A    between atoms: C_2  and  C_3
REMARK    3  A    between atoms: C_3  and  C_4
REMARK    4  A    between atoms: C_9  and  C_10
REMARK    5  A    between atoms: C_13  and  S_14
REMARK    6  A    between atoms: S_14  and  C_15
REMARK    7  A    between atoms: C_19  and  C_20
REMARK    8  A    between atoms: C_23  and  S_24
REMARK    9  A    between atoms: S_24  and  C_25
REMARK                            x       y       z     vdW  Elec       q    Type
REMARK                         _______ _______ _______ _____ _____    ______ ____
ROOT
ATOM      1  C   UNL     1       1.962  14.811  19.208  0.00  0.00    +0.000 C 
ATOM      2  O   UNL     1       1.069  14.986  20.032  0.00  0.00    +0.000 OA
ATOM      3  N   UNL     1       2.116  13.684  18.430  0.00  0.00    +0.000 N 
ATOM      4  C   UNL     1       1.209  12.622  18.481  0.00  0.00    +0.000 A 
ATOM      5  C   UNL     1      -0.148  12.845  18.470  0.00  0.00    +0.000 A 
ATOM      6  C   UNL     1      -0.963  11.736  18.553  0.00  0.00    +0.000 A 
ATOM      7  N   UNL     1      -0.440  10.496  18.669  0.00  0.00    +0.000 NA
ATOM      8  C   UNL     1       0.905  10.383  18.674  0.00  0.00    +0.000 A 
ATOM      9  N   UNL     1       1.759  11.408  18.517  0.00  0.00    +0.000 NA
ATOM     10  H   UNL     1       3.058  13.411  18.182  0.00  0.00    +0.000 HD
ENDROOT
BRANCH   6  11
ATOM     11  C   UNL     1      -2.440  11.834  18.520  0.00  0.00    +0.000 A 
ATOM     12  C   UNL     1      -3.163  12.328  19.619  0.00  0.00    +0.000 A 
ATOM     13  C   UNL     1      -4.569  12.389  19.600  0.00  0.00    +0.000 A 
ATOM     14  C   UNL     1      -5.289  11.973  18.478  0.00  0.00    +0.000 A 
ATOM     15  C   UNL     1      -4.588  11.470  17.390  0.00  0.00    +0.000 A 
ATOM     16  C   UNL     1      -3.185  11.414  17.403  0.00  0.00    +0.000 A 
BRANCH  14  17
ATOM     17  S   UNL     1      -7.073  12.064  18.533  0.00  0.00    +0.000 S 
ATOM     18  C   UNL     1      -7.414  13.430  17.387  0.00  0.00    +0.000 C 
ENDBRANCH  14  17
ENDBRANCH   6  11
BRANCH   8  19
ATOM     19  C   UNL     1       1.494   9.057  18.954  0.00  0.00    +0.000 A 
ATOM     20  C   UNL     1       2.148   8.315  17.957  0.00  0.00    +0.000 A 
ATOM     21  C   UNL     1       2.671   7.041  18.219  0.00  0.00    +0.000 A 
ATOM     22  C   UNL     1       2.561   6.466  19.488  0.00  0.00    +0.000 A 
ATOM     23  C   UNL     1       1.903   7.182  20.487  0.00  0.00    +0.000 A 
ATOM     24  C   UNL     1       1.383   8.456  20.222  0.00  0.00    +0.000 A 
BRANCH  22  25
ATOM     25  S   UNL     1       3.208   4.815  19.709  0.00  0.00    +0.000 S 
ATOM     26  C   UNL     1       2.087   3.819  18.691  0.00  0.00    +0.000 C 
ENDBRANCH  22  25
ENDBRANCH   8  19
BRANCH   1  27
ATOM     27  C   UNL     1       3.003  15.875  18.940  0.00  0.00    +0.000 C 
BRANCH  27  29
ATOM     28  C   UNL     1       5.213  15.159  17.923  0.00  0.00    +0.000 C 
ATOM     29  C   UNL     1       3.772  15.574  17.655  0.00  0.00    +0.000 C 
ENDBRANCH  27  29
ENDBRANCH   1  27
TORSDOF 6
ENDMDL
MODEL 9
REMARK VINA RESULT:      -6.9      2.235      2.736
REMARK  Name = 
REMARK  9 active torsions:
REMARK  status: ('A' for Active; 'I' for Inactive)
REMARK    1  A    between atoms: C_1  and  C_2
REMARK    2  A    between atoms: C_2  and  C_3
REMARK    3  A    between atoms: C_3  and  C_4
REMARK    4  A    between atoms: C_9  and  C_10
REMARK    5  A    between atoms: C_13  and  S_14
REMARK    6  A    between atoms: S_14  and  C_15
REMARK    7  A    between atoms: C_19  and  C_20
REMARK    8  A    between atoms: C_23  and  S_24
REMARK    9  A    between atoms: S_24  and  C_25
REMARK                            x       y       z     vdW  Elec       q    Type
REMARK                         _______ _______ _______ _____ _____    ______ ____
ROOT
ATOM      1  C   UNL     1       2.350  14.099  19.442  0.00  0.00    +0.000 C 
ATOM      2  O   UNL     1       1.432  14.161  20.255  0.00  0.00    +0.000 OA
ATOM      3  N   UNL     1       2.560  13.061  18.558  0.00  0.00    +0.000 N 
ATOM      4  C   UNL     1       1.688  11.972  18.478  0.00  0.00    +0.000 A 
ATOM      5  C   UNL     1       0.325  12.153  18.453  0.00  0.00    +0.000 A 
ATOM      6  C   UNL     1      -0.454  11.016  18.403  0.00  0.00    +0.000 A 
ATOM      7  N   UNL     1       0.107   9.788  18.406  0.00  0.00    +0.000 NA
ATOM      8  C   UNL     1       1.454   9.717  18.436  0.00  0.00    +0.000 A 
ATOM      9  N   UNL     1       2.277  10.779  18.406  0.00  0.00    +0.000 NA
ATOM     10  H   UNL     1       3.516  12.845  18.310  0.00  0.00    +0.000 HD
ENDROOT
BRANCH   6  11
ATOM     11  C   UNL     1      -1.932  11.072  18.341  0.00  0.00    +0.000 A 
ATOM     12  C   UNL     1      -2.662  11.981  19.126  0.00  0.00    +0.000 A 
ATOM     13  C   UNL     1      -4.069  12.009  19.092  0.00  0.00    +0.000 A 
ATOM     14  C   UNL     1      -4.783  11.141  18.262  0.00  0.00    +0.000 A 
ATOM     15  C   UNL     1      -4.075  10.228  17.492  0.00  0.00    +0.000 A 
ATOM     16  C   UNL     1      -2.671  10.203  17.518  0.00  0.00    +0.000 A 
BRANCH  14  17
ATOM     17  S   UNL     1      -6.568  11.223  18.286  0.00  0.00    +0.000 S 
ATOM     18  C   UNL     1      -6.987   9.920  19.478  0.00  0.00    +0.000 C 
ENDBRANCH  14  17
ENDBRANCH   6  11
BRANCH   8  19
ATOM     19  C   UNL     1       2.081   8.388  18.596  0.00  0.00    +0.000 A 
ATOM     20  C   UNL     1       1.879   7.611  19.748  0.00  0.00    +0.000 A 
ATOM     21  C   UNL     1       2.507   6.368  19.911  0.00  0.00    +0.000 A 
ATOM     22  C   UNL     1       3.356   5.857  18.925  0.00  0.00    +0.000 A 
ATOM     23  C   UNL     1       3.580   6.621  17.780  0.00  0.00    +0.000 A 
ATOM     24  C   UNL     1       2.949   7.863  17.620  0.00  0.00    +0.000 A 
BRANCH  22  25
ATOM     25  S   UNL     1       4.155   4.293  19.248  0.00  0.00    +0.000 S 
ATOM     26  C   UNL     1       2.913   3.419  20.239  0.00  0.00    +0.000 C 
ENDBRANCH  22  25
ENDBRANCH   8  19
BRANCH   1  27
ATOM     27  C   UNL     1       3.361  15.216  19.310  0.00  0.00    +0.000 C 
BRANCH  27  29
ATOM     28  C   UNL     1       5.422  14.986  17.852  0.00  0.00    +0.000 C 
ATOM     29  C   UNL     1       3.927  15.275  17.893  0.00  0.00    +0.000 C 
ENDBRANCH  27  29
ENDBRANCH   1  27
TORSDOF 6
ENDMDL
