MODEL 1
REMARK VINA RESULT:      -6.2      0.000      0.000
REMARK  Name = 
REMARK  18 active torsions:
REMARK  status: ('A' for Active; 'I' for Inactive)
REMARK    1  A    between atoms: C_1  and  C_2
REMARK    2  A    between atoms: C_2  and  C_3
REMARK    3  A    between atoms: C_3  and  C_4
REMARK    4  A    between atoms: C_4  and  C_5
REMARK    5  A    between atoms: C_5  and  C_6
REMARK    6  A    between atoms: C_6  and  C_7
REMARK    7  A    between atoms: C_7  and  C_8
REMARK    8  A    between atoms: C_8  and  C_9
REMARK    9  A    between atoms: C_9  and  C_10
REMARK   10  A    between atoms: C_10  and  C_11
REMARK   11  A    between atoms: C_11  and  C_12
REMARK   12  A    between atoms: C_12  and  C_13
REMARK   13  A    between atoms: C_13  and  C_14
REMARK   14  A    between atoms: C_14  and  N_15
REMARK   15  A    between atoms: N_15  and  C_16
REMARK   16  A    between atoms: N_15  and  C_17
REMARK   17  A    between atoms: N_15  and  C_18
REMARK   18  A    between atoms: C_18  and  C_19
REMARK                            x       y       z     vdW  Elec       q    Type
REMARK                         _______ _______ _______ _____ _____    ______ ____
ROOT
ATOM      1  C   UNL     1       7.462   6.807  17.540  0.00  0.00    +0.000 C 
ENDROOT
BRANCH   1   2
ATOM      2  C   UNL     1       8.280   7.855  18.303  0.00  0.00    +0.000 C 
BRANCH   2   3
ATOM      3  C   UNL     1       7.934   9.271  17.862  0.00  0.00    +0.000 C 
BRANCH   3   4
ATOM      4  C   UNL     1       9.084  10.240  18.097  0.00  0.00    +0.000 C 
BRANCH   4   5
ATOM      5  C   UNL     1       9.255  10.464  19.595  0.00  0.00    +0.000 C 
BRANCH   5   6
ATOM      6  C   UNL     1      10.454  11.348  19.882  0.00  0.00    +0.000 C 
BRANCH   6   7
ATOM      7  C   UNL     1      10.221  12.160  21.148  0.00  0.00    +0.000 C 
BRANCH   7   8
ATOM      8  C   UNL     1      10.317  13.648  20.849  0.00  0.00    +0.000 C 
BRANCH   8   9
ATOM      9  C   UNL     1      10.568  13.888  19.365  0.00  0.00    +0.000 C 
BRANCH   9  10
ATOM     10  C   UNL     1       9.531  14.850  18.800  0.00  0.00    +0.000 C 
BRANCH  10  12
ATOM     11  C   UNL     1       7.708  13.593  17.627  0.00  0.00    +0.000 C 
ATOM     12  C   UNL     1       8.125  14.275  18.918  0.00  0.00    +0.000 C 
ENDBRANCH  10  12
ENDBRANCH   9  10
ENDBRANCH   8   9
ENDBRANCH   7   8
ENDBRANCH   6   7
ENDBRANCH   5   6
ENDBRANCH   4   5
ENDBRANCH   3   4
ENDBRANCH   2   3
ENDBRANCH   1   2
BRANCH   1  13
ATOM     13  C   UNL     1       5.974   7.155  17.364  0.00  0.00    +0.000 C 
BRANCH  13  14
ATOM     14  C   UNL     1       5.215   6.013  16.690  0.00  0.00    +0.000 C 
BRANCH  14  15
ATOM     15  N   UNL     1       4.461   5.077  17.646  0.00  0.00    +0.000 N 
ATOM     16  C   UNL     1       4.440   3.651  17.112  0.00  0.00    +0.000 C 
ATOM     17  C   UNL     1       5.106   5.083  19.031  0.00  0.00    +0.000 C 
BRANCH  15  18
ATOM     18  C   UNL     1       2.994   5.605  17.817  0.00  0.00    +0.000 C 
BRANCH  18  19
ATOM     19  C   UNL     1       2.116   4.748  18.700  0.00  0.00    +0.000 A 
ATOM     20  C   UNL     1       2.073   4.970  20.085  0.00  0.00    +0.000 A 
ATOM     21  C   UNL     1       1.467   4.039  20.928  0.00  0.00    +0.000 A 
ATOM     22  C   UNL     1       0.885   2.889  20.397  0.00  0.00    +0.000 A 
ATOM     23  C   UNL     1       0.850   2.700  19.018  0.00  0.00    +0.000 A 
ATOM     24  C   UNL     1       1.436   3.638  18.170  0.00  0.00    +0.000 A 
ENDBRANCH  18  19
ENDBRANCH  15  18
ENDBRANCH  14  15
ENDBRANCH  13  14
ENDBRANCH   1  13
TORSDOF 15
ENDMDL
MODEL 2
REMARK VINA RESULT:      -6.2      5.707      9.356
REMARK  Name = 
REMARK  18 active torsions:
REMARK  status: ('A' for Active; 'I' for Inactive)
REMARK    1  A    between atoms: C_1  and  C_2
REMARK    2  A    between atoms: C_2  and  C_3
REMARK    3  A    between atoms: C_3  and  C_4
REMARK    4  A    between atoms: C_4  and  C_5
REMARK    5  A    between atoms: C_5  and  C_6
REMARK    6  A    between atoms: C_6  and  C_7
REMARK    7  A    between atoms: C_7  and  C_8
REMARK    8  A    between atoms: C_8  and  C_9
REMARK    9  A    between atoms: C_9  and  C_10
REMARK   10  A    between atoms: C_10  and  C_11
REMARK   11  A    between atoms: C_11  and  C_12
REMARK   12  A    between atoms: C_12  and  C_13
REMARK   13  A    between atoms: C_13  and  C_14
REMARK   14  A    between atoms: C_14  and  N_15
REMARK   15  A    between atoms: N_15  and  C_16
REMARK   16  A    between atoms: N_15  and  C_17
REMARK   17  A    between atoms: N_15  and  C_18
REMARK   18  A    between atoms: C_18  and  C_19
REMARK                            x       y       z     vdW  Elec       q    Type
REMARK                         _______ _______ _______ _____ _____    ______ ____
ROOT
ATOM      1  C   UNL     1       2.195   8.998  17.968  0.00  0.00    +0.000 C 
ENDROOT
BRANCH   1   2
ATOM      2  C   UNL     1       2.222   7.721  18.814  0.00  0.00    +0.000 C 
BRANCH   2   3
ATOM      3  C   UNL     1       2.539   6.492  17.971  0.00  0.00    +0.000 C 
BRANCH   3   4
ATOM      4  C   UNL     1       3.998   6.077  18.091  0.00  0.00    +0.000 C 
BRANCH   4   5
ATOM      5  C   UNL     1       4.183   5.249  19.358  0.00  0.00    +0.000 C 
BRANCH   5   6
ATOM      6  C   UNL     1       4.521   3.808  19.024  0.00  0.00    +0.000 C 
BRANCH   6   7
ATOM      7  C   UNL     1       3.838   3.392  17.729  0.00  0.00    +0.000 C 
BRANCH   7   8
ATOM      8  C   UNL     1       3.159   2.041  17.897  0.00  0.00    +0.000 C 
BRANCH   8   9
ATOM      9  C   UNL     1       2.308   2.015  19.162  0.00  0.00    +0.000 C 
BRANCH   9  10
ATOM     10  C   UNL     1       1.019   2.798  18.950  0.00  0.00    +0.000 C 
BRANCH  10  12
ATOM     11  C   UNL     1       1.554   3.459  21.307  0.00  0.00    +0.000 C 
ATOM     12  C   UNL     1       0.833   3.855  20.032  0.00  0.00    +0.000 C 
ENDBRANCH  10  12
ENDBRANCH   9  10
ENDBRANCH   8   9
ENDBRANCH   7   8
ENDBRANCH   6   7
ENDBRANCH   5   6
ENDBRANCH   4   5
ENDBRANCH   3   4
ENDBRANCH   2   3
ENDBRANCH   1   2
BRANCH   1  13
ATOM     13  C   UNL     1       0.879   9.790  18.038  0.00  0.00    +0.000 C 
BRANCH  13  14
ATOM     14  C   UNL     1       1.141  11.287  18.194  0.00  0.00    +0.000 C 
BRANCH  14  15
ATOM     15  N   UNL     1       0.087  12.053  19.005  0.00  0.00    +0.000 N 
ATOM     16  C   UNL     1      -0.327  13.334  18.295  0.00  0.00    +0.000 C 
ATOM     17  C   UNL     1      -1.152  11.189  19.238  0.00  0.00    +0.000 C 
BRANCH  15  18
ATOM     18  C   UNL     1       0.683  12.393  20.415  0.00  0.00    +0.000 C 
BRANCH  18  19
ATOM     19  C   UNL     1       0.363  11.386  21.495  0.00  0.00    +0.000 A 
ATOM     20  C   UNL     1       1.021  10.146  21.525  0.00  0.00    +0.000 A 
ATOM     21  C   UNL     1       0.562   9.127  22.357  0.00  0.00    +0.000 A 
ATOM     22  C   UNL     1      -0.546   9.337  23.176  0.00  0.00    +0.000 A 
ATOM     23  C   UNL     1      -1.156  10.588  23.214  0.00  0.00    +0.000 A 
ATOM     24  C   UNL     1      -0.687  11.617  22.400  0.00  0.00    +0.000 A 
ENDBRANCH  18  19
ENDBRANCH  15  18
ENDBRANCH  14  15
ENDBRANCH  13  14
ENDBRANCH   1  13
TORSDOF 15
ENDMDL
MODEL 3
REMARK VINA RESULT:      -6.1      1.609      2.621
REMARK  Name = 
REMARK  18 active torsions:
REMARK  status: ('A' for Active; 'I' for Inactive)
REMARK    1  A    between atoms: C_1  and  C_2
REMARK    2  A    between atoms: C_2  and  C_3
REMARK    3  A    between atoms: C_3  and  C_4
REMARK    4  A    between atoms: C_4  and  C_5
REMARK    5  A    between atoms: C_5  and  C_6
REMARK    6  A    between atoms: C_6  and  C_7
REMARK    7  A    between atoms: C_7  and  C_8
REMARK    8  A    between atoms: C_8  and  C_9
REMARK    9  A    between atoms: C_9  and  C_10
REMARK   10  A    between atoms: C_10  and  C_11
REMARK   11  A    between atoms: C_11  and  C_12
REMARK   12  A    between atoms: C_12  and  C_13
REMARK   13  A    between atoms: C_13  and  C_14
REMARK   14  A    between atoms: C_14  and  N_15
REMARK   15  A    between atoms: N_15  and  C_16
REMARK   16  A    between atoms: N_15  and  C_17
REMARK   17  A    between atoms: N_15  and  C_18
REMARK   18  A    between atoms: C_18  and  C_19
REMARK                            x       y       z     vdW  Elec       q    Type
REMARK                         _______ _______ _______ _____ _____    ______ ____
ROOT
ATOM      1  C   UNL     1       7.693   5.866  18.324  0.00  0.00    +0.000 C 
ENDROOT
BRANCH   1   2
ATOM      2  C   UNL     1       8.199   7.274  18.654  0.00  0.00    +0.000 C 
BRANCH   2   3
ATOM      3  C   UNL     1       7.631   8.316  17.700  0.00  0.00    +0.000 C 
BRANCH   3   4
ATOM      4  C   UNL     1       8.442   9.603  17.709  0.00  0.00    +0.000 C 
BRANCH   4   5
ATOM      5  C   UNL     1       9.018   9.825  19.103  0.00  0.00    +0.000 C 
BRANCH   5   6
ATOM      6  C   UNL     1      10.003  10.979  19.110  0.00  0.00    +0.000 C 
BRANCH   6   7
ATOM      7  C   UNL     1       9.262  12.305  19.011  0.00  0.00    +0.000 C 
BRANCH   7   8
ATOM      8  C   UNL     1       9.463  13.122  20.279  0.00  0.00    +0.000 C 
BRANCH   8   9
ATOM      9  C   UNL     1       9.789  12.216  21.461  0.00  0.00    +0.000 C 
BRANCH   9  10
ATOM     10  C   UNL     1       8.552  12.002  22.323  0.00  0.00    +0.000 C 
BRANCH  10  12
ATOM     11  C   UNL     1       8.372  12.493  24.774  0.00  0.00    +0.000 C 
ATOM     12  C   UNL     1       8.424  13.092  23.381  0.00  0.00    +0.000 C 
ENDBRANCH  10  12
ENDBRANCH   9  10
ENDBRANCH   8   9
ENDBRANCH   7   8
ENDBRANCH   6   7
ENDBRANCH   5   6
ENDBRANCH   4   5
ENDBRANCH   3   4
ENDBRANCH   2   3
ENDBRANCH   1   2
BRANCH   1  13
ATOM     13  C   UNL     1       6.366   5.483  19.000  0.00  0.00    +0.000 C 
BRANCH  13  14
ATOM     14  C   UNL     1       5.737   4.261  18.335  0.00  0.00    +0.000 C 
BRANCH  14  15
ATOM     15  N   UNL     1       4.533   4.557  17.430  0.00  0.00    +0.000 N 
ATOM     16  C   UNL     1       3.916   5.908  17.765  0.00  0.00    +0.000 C 
ATOM     17  C   UNL     1       4.944   4.547  15.959  0.00  0.00    +0.000 C 
BRANCH  15  18
ATOM     18  C   UNL     1       3.467   3.422  17.619  0.00  0.00    +0.000 C 
BRANCH  18  19
ATOM     19  C   UNL     1       2.772   3.427  18.961  0.00  0.00    +0.000 A 
ATOM     20  C   UNL     1       3.390   2.848  20.081  0.00  0.00    +0.000 A 
ATOM     21  C   UNL     1       2.663   2.630  21.250  0.00  0.00    +0.000 A 
ATOM     22  C   UNL     1       1.320   2.999  21.318  0.00  0.00    +0.000 A 
ATOM     23  C   UNL     1       0.721   3.648  20.242  0.00  0.00    +0.000 A 
ATOM     24  C   UNL     1       1.450   3.888  19.079  0.00  0.00    +0.000 A 
ENDBRANCH  18  19
ENDBRANCH  15  18
ENDBRANCH  14  15
ENDBRANCH  13  14
ENDBRANCH   1  13
TORSDOF 15
ENDMDL
MODEL 4
REMARK VINA RESULT:      -6.1      1.084      1.397
REMARK  Name = 
REMARK  18 active torsions:
REMARK  status: ('A' for Active; 'I' for Inactive)
REMARK    1  A    between atoms: C_1  and  C_2
REMARK    2  A    between atoms: C_2  and  C_3
REMARK    3  A    between atoms: C_3  and  C_4
REMARK    4  A    between atoms: C_4  and  C_5
REMARK    5  A    between atoms: C_5  and  C_6
REMARK    6  A    between atoms: C_6  and  C_7
REMARK    7  A    between atoms: C_7  and  C_8
REMARK    8  A    between atoms: C_8  and  C_9
REMARK    9  A    between atoms: C_9  and  C_10
REMARK   10  A    between atoms: C_10  and  C_11
REMARK   11  A    between atoms: C_11  and  C_12
REMARK   12  A    between atoms: C_12  and  C_13
REMARK   13  A    between atoms: C_13  and  C_14
REMARK   14  A    between atoms: C_14  and  N_15
REMARK   15  A    between atoms: N_15  and  C_16
REMARK   16  A    between atoms: N_15  and  C_17
REMARK   17  A    between atoms: N_15  and  C_18
REMARK   18  A    between atoms: C_18  and  C_19
REMARK                            x       y       z     vdW  Elec       q    Type
REMARK                         _______ _______ _______ _____ _____    ______ ____
ROOT
ATOM      1  C   UNL     1       7.751   7.062  17.440  0.00  0.00    +0.000 C 
ENDROOT
BRANCH   1   2
ATOM      2  C   UNL     1       7.583   8.561  17.711  0.00  0.00    +0.000 C 
BRANCH   2   3
ATOM      3  C   UNL     1       8.707   9.106  18.583  0.00  0.00    +0.000 C 
BRANCH   3   4
ATOM      4  C   UNL     1       8.968  10.582  18.323  0.00  0.00    +0.000 C 
BRANCH   4   5
ATOM      5  C   UNL     1      10.203  11.020  19.103  0.00  0.00    +0.000 C 
BRANCH   5   6
ATOM      6  C   UNL     1      11.245  11.625  18.182  0.00  0.00    +0.000 C 
BRANCH   6   7
ATOM      7  C   UNL     1      12.025  12.712  18.909  0.00  0.00    +0.000 C 
BRANCH   7   8
ATOM      8  C   UNL     1      11.225  13.238  20.091  0.00  0.00    +0.000 C 
BRANCH   8   9
ATOM      9  C   UNL     1      10.736  14.658  19.826  0.00  0.00    +0.000 C 
BRANCH   9  10
ATOM     10  C   UNL     1       9.322  14.635  19.261  0.00  0.00    +0.000 C 
BRANCH  10  12
ATOM     11  C   UNL     1      10.590  15.733  17.399  0.00  0.00    +0.000 C 
ATOM     12  C   UNL     1       9.219  15.489  18.003  0.00  0.00    +0.000 C 
ENDBRANCH  10  12
ENDBRANCH   9  10
ENDBRANCH   8   9
ENDBRANCH   7   8
ENDBRANCH   6   7
ENDBRANCH   5   6
ENDBRANCH   4   5
ENDBRANCH   3   4
ENDBRANCH   2   3
ENDBRANCH   1   2
BRANCH   1  13
ATOM     13  C   UNL     1       6.982   6.143  18.403  0.00  0.00    +0.000 C 
BRANCH  13  14
ATOM     14  C   UNL     1       5.482   6.169  18.114  0.00  0.00    +0.000 C 
BRANCH  14  15
ATOM     15  N   UNL     1       4.866   4.814  17.741  0.00  0.00    +0.000 N 
ATOM     16  C   UNL     1       5.602   4.181  16.569  0.00  0.00    +0.000 C 
ATOM     17  C   UNL     1       4.904   3.855  18.931  0.00  0.00    +0.000 C 
BRANCH  15  18
ATOM     18  C   UNL     1       3.357   5.029  17.371  0.00  0.00    +0.000 C 
BRANCH  18  19
ATOM     19  C   UNL     1       2.376   4.535  18.409  0.00  0.00    +0.000 A 
ATOM     20  C   UNL     1       2.187   5.251  19.602  0.00  0.00    +0.000 A 
ATOM     21  C   UNL     1       1.481   4.681  20.659  0.00  0.00    +0.000 A 
ATOM     22  C   UNL     1       0.943   3.401  20.533  0.00  0.00    +0.000 A 
ATOM     23  C   UNL     1       1.054   2.716  19.326  0.00  0.00    +0.000 A 
ATOM     24  C   UNL     1       1.742   3.290  18.259  0.00  0.00    +0.000 A 
ENDBRANCH  18  19
ENDBRANCH  15  18
ENDBRANCH  14  15
ENDBRANCH  13  14
ENDBRANCH   1  13
TORSDOF 15
ENDMDL
MODEL 5
REMARK VINA RESULT:      -6.1      1.023      2.245
REMARK  Name = 
REMARK  18 active torsions:
REMARK  status: ('A' for Active; 'I' for Inactive)
REMARK    1  A    between atoms: C_1  and  C_2
REMARK    2  A    between atoms: C_2  and  C_3
REMARK    3  A    between atoms: C_3  and  C_4
REMARK    4  A    between atoms: C_4  and  C_5
REMARK    5  A    between atoms: C_5  and  C_6
REMARK    6  A    between atoms: C_6  and  C_7
REMARK    7  A    between atoms: C_7  and  C_8
REMARK    8  A    between atoms: C_8  and  C_9
REMARK    9  A    between atoms: C_9  and  C_10
REMARK   10  A    between atoms: C_10  and  C_11
REMARK   11  A    between atoms: C_11  and  C_12
REMARK   12  A    between atoms: C_12  and  C_13
REMARK   13  A    between atoms: C_13  and  C_14
REMARK   14  A    between atoms: C_14  and  N_15
REMARK   15  A    between atoms: N_15  and  C_16
REMARK   16  A    between atoms: N_15  and  C_17
REMARK   17  A    between atoms: N_15  and  C_18
REMARK   18  A    between atoms: C_18  and  C_19
REMARK                            x       y       z     vdW  Elec       q    Type
REMARK                         _______ _______ _______ _____ _____    ______ ____
ROOT
ATOM      1  C   UNL     1       7.940   6.716  18.628  0.00  0.00    +0.000 C 
ENDROOT
BRANCH   1   2
ATOM      2  C   UNL     1       7.797   7.604  17.388  0.00  0.00    +0.000 C 
BRANCH   2   3
ATOM      3  C   UNL     1       7.805   9.084  17.750  0.00  0.00    +0.000 C 
BRANCH   3   4
ATOM      4  C   UNL     1       8.846   9.408  18.810  0.00  0.00    +0.000 C 
BRANCH   4   5
ATOM      5  C   UNL     1       9.738  10.539  18.310  0.00  0.00    +0.000 C 
BRANCH   5   6
ATOM      6  C   UNL     1       8.928  11.793  18.034  0.00  0.00    +0.000 C 
BRANCH   6   7
ATOM      7  C   UNL     1       9.843  12.925  17.589  0.00  0.00    +0.000 C 
BRANCH   7   8
ATOM      8  C   UNL     1       9.699  14.120  18.519  0.00  0.00    +0.000 C 
BRANCH   8   9
ATOM      9  C   UNL     1      10.895  14.222  19.460  0.00  0.00    +0.000 C 
BRANCH   9  10
ATOM     10  C   UNL     1      10.705  13.304  20.660  0.00  0.00    +0.000 C 
BRANCH  10  12
ATOM     11  C   UNL     1      10.226  15.304  22.093  0.00  0.00    +0.000 C 
ATOM     12  C   UNL     1       9.755  13.921  21.679  0.00  0.00    +0.000 C 
ENDBRANCH  10  12
ENDBRANCH   9  10
ENDBRANCH   8   9
ENDBRANCH   7   8
ENDBRANCH   6   7
ENDBRANCH   5   6
ENDBRANCH   4   5
ENDBRANCH   3   4
ENDBRANCH   2   3
ENDBRANCH   1   2
BRANCH   1  13
ATOM     13  C   UNL     1       6.945   5.546  18.700  0.00  0.00    +0.000 C 
BRANCH  13  14
ATOM     14  C   UNL     1       5.504   6.034  18.563  0.00  0.00    +0.000 C 
BRANCH  14  15
ATOM     15  N   UNL     1       4.659   5.291  17.519  0.00  0.00    +0.000 N 
ATOM     16  C   UNL     1       4.986   5.766  16.110  0.00  0.00    +0.000 C 
ATOM     17  C   UNL     1       4.895   3.783  17.605  0.00  0.00    +0.000 C 
BRANCH  15  18
ATOM     18  C   UNL     1       3.142   5.538  17.828  0.00  0.00    +0.000 C 
BRANCH  18  19
ATOM     19  C   UNL     1       2.532   4.567  18.813  0.00  0.00    +0.000 A 
ATOM     20  C   UNL     1       1.658   3.563  18.369  0.00  0.00    +0.000 A 
ATOM     21  C   UNL     1       0.907   2.829  19.286  0.00  0.00    +0.000 A 
ATOM     22  C   UNL     1       1.031   3.079  20.652  0.00  0.00    +0.000 A 
ATOM     23  C   UNL     1       1.956   4.016  21.107  0.00  0.00    +0.000 A 
ATOM     24  C   UNL     1       2.724   4.737  20.195  0.00  0.00    +0.000 A 
ENDBRANCH  18  19
ENDBRANCH  15  18
ENDBRANCH  14  15
ENDBRANCH  13  14
ENDBRANCH   1  13
TORSDOF 15
ENDMDL
MODEL 6
REMARK VINA RESULT:      -6.1      1.731      2.880
REMARK  Name = 
REMARK  18 active torsions:
REMARK  status: ('A' for Active; 'I' for Inactive)
REMARK    1  A    between atoms: C_1  and  C_2
REMARK    2  A    between atoms: C_2  and  C_3
REMARK    3  A    between atoms: C_3  and  C_4
REMARK    4  A    between atoms: C_4  and  C_5
REMARK    5  A    between atoms: C_5  and  C_6
REMARK    6  A    between atoms: C_6  and  C_7
REMARK    7  A    between atoms: C_7  and  C_8
REMARK    8  A    between atoms: C_8  and  C_9
REMARK    9  A    between atoms: C_9  and  C_10
REMARK   10  A    between atoms: C_10  and  C_11
REMARK   11  A    between atoms: C_11  and  C_12
REMARK   12  A    between atoms: C_12  and  C_13
REMARK   13  A    between atoms: C_13  and  C_14
REMARK   14  A    between atoms: C_14  and  N_15
REMARK   15  A    between atoms: N_15  and  C_16
REMARK   16  A    between atoms: N_15  and  C_17
REMARK   17  A    between atoms: N_15  and  C_18
REMARK   18  A    between atoms: C_18  and  C_19
REMARK                            x       y       z     vdW  Elec       q    Type
REMARK                         _______ _______ _______ _____ _____    ______ ____
ROOT
ATOM      1  C   UNL     1       8.037   8.693  17.489  0.00  0.00    +0.000 C 
ENDROOT
BRANCH   1   2
ATOM      2  C   UNL     1       8.817   9.551  18.491  0.00  0.00    +0.000 C 
BRANCH   2   3
ATOM      3  C   UNL     1       8.655  11.039  18.206  0.00  0.00    +0.000 C 
BRANCH   3   4
ATOM      4  C   UNL     1       9.996  11.744  18.069  0.00  0.00    +0.000 C 
BRANCH   4   5
ATOM      5  C   UNL     1      11.018  11.061  18.971  0.00  0.00    +0.000 C 
BRANCH   5   6
ATOM      6  C   UNL     1      11.543  12.018  20.024  0.00  0.00    +0.000 C 
BRANCH   6   7
ATOM      7  C   UNL     1      10.803  13.346  19.947  0.00  0.00    +0.000 C 
BRANCH   7   8
ATOM      8  C   UNL     1      10.159  13.673  21.286  0.00  0.00    +0.000 C 
BRANCH   8   9
ATOM      9  C   UNL     1       9.254  12.535  21.745  0.00  0.00    +0.000 C 
BRANCH   9  10
ATOM     10  C   UNL     1       8.614  12.873  23.085  0.00  0.00    +0.000 C 
BRANCH  10  12
ATOM     11  C   UNL     1       7.556  11.923  25.149  0.00  0.00    +0.000 C 
ATOM     12  C   UNL     1       7.978  11.641  23.718  0.00  0.00    +0.000 C 
ENDBRANCH  10  12
ENDBRANCH   9  10
ENDBRANCH   8   9
ENDBRANCH   7   8
ENDBRANCH   6   7
ENDBRANCH   5   6
ENDBRANCH   4   5
ENDBRANCH   3   4
ENDBRANCH   2   3
ENDBRANCH   1   2
BRANCH   1  13
ATOM     13  C   UNL     1       7.636   7.302  18.008  0.00  0.00    +0.000 C 
BRANCH  13  14
ATOM     14  C   UNL     1       6.276   6.877  17.457  0.00  0.00    +0.000 C 
BRANCH  14  15
ATOM     15  N   UNL     1       5.879   5.423  17.749  0.00  0.00    +0.000 N 
ATOM     16  C   UNL     1       7.079   4.493  17.629  0.00  0.00    +0.000 C 
ATOM     17  C   UNL     1       5.286   5.294  19.151  0.00  0.00    +0.000 C 
BRANCH  15  18
ATOM     18  C   UNL     1       4.764   4.990  16.734  0.00  0.00    +0.000 C 
BRANCH  18  19
ATOM     19  C   UNL     1       3.695   4.095  17.317  0.00  0.00    +0.000 A 
ATOM     20  C   UNL     1       2.453   4.627  17.694  0.00  0.00    +0.000 A 
ATOM     21  C   UNL     1       1.563   3.868  18.452  0.00  0.00    +0.000 A 
ATOM     22  C   UNL     1       1.896   2.568  18.827  0.00  0.00    +0.000 A 
ATOM     23  C   UNL     1       3.090   2.001  18.390  0.00  0.00    +0.000 A 
ATOM     24  C   UNL     1       3.974   2.749  17.614  0.00  0.00    +0.000 A 
ENDBRANCH  18  19
ENDBRANCH  15  18
ENDBRANCH  14  15
ENDBRANCH  13  14
ENDBRANCH   1  13
TORSDOF 15
ENDMDL
MODEL 7
REMARK VINA RESULT:      -6.0      5.397      7.436
REMARK  Name = 
REMARK  18 active torsions:
REMARK  status: ('A' for Active; 'I' for Inactive)
REMARK    1  A    between atoms: C_1  and  C_2
REMARK    2  A    between atoms: C_2  and  C_3
REMARK    3  A    between atoms: C_3  and  C_4
REMARK    4  A    between atoms: C_4  and  C_5
REMARK    5  A    between atoms: C_5  and  C_6
REMARK    6  A    between atoms: C_6  and  C_7
REMARK    7  A    between atoms: C_7  and  C_8
REMARK    8  A    between atoms: C_8  and  C_9
REMARK    9  A    between atoms: C_9  and  C_10
REMARK   10  A    between atoms: C_10  and  C_11
REMARK   11  A    between atoms: C_11  and  C_12
REMARK   12  A    between atoms: C_12  and  C_13
REMARK   13  A    between atoms: C_13  and  C_14
REMARK   14  A    between atoms: C_14  and  N_15
REMARK   15  A    between atoms: N_15  and  C_16
REMARK   16  A    between atoms: N_15  and  C_17
REMARK   17  A    between atoms: N_15  and  C_18
REMARK   18  A    between atoms: C_18  and  C_19
REMARK                            x       y       z     vdW  Elec       q    Type
REMARK                         _______ _______ _______ _____ _____    ______ ____
ROOT
ATOM      1  C   UNL     1       3.282   7.801  17.665  0.00  0.00    +0.000 C 
ENDROOT
BRANCH   1   2
ATOM      2  C   UNL     1       1.804   7.882  18.062  0.00  0.00    +0.000 C 
BRANCH   2   3
ATOM      3  C   UNL     1       1.502   9.146  18.857  0.00  0.00    +0.000 C 
BRANCH   3   4
ATOM      4  C   UNL     1       1.157   8.842  20.307  0.00  0.00    +0.000 C 
BRANCH   4   5
ATOM      5  C   UNL     1       0.155   9.873  20.813  0.00  0.00    +0.000 C 
BRANCH   5   6
ATOM      6  C   UNL     1       0.035  11.038  19.849  0.00  0.00    +0.000 C 
BRANCH   6   7
ATOM      7  C   UNL     1      -1.231  11.833  20.135  0.00  0.00    +0.000 C 
BRANCH   7   8
ATOM      8  C   UNL     1      -2.023  12.048  18.854  0.00  0.00    +0.000 C 
BRANCH   8   9
ATOM      9  C   UNL     1      -1.930  10.826  17.947  0.00  0.00    +0.000 C 
BRANCH   9  10
ATOM     10  C   UNL     1      -2.955  10.920  16.824  0.00  0.00    +0.000 C 
BRANCH  10  12
ATOM     11  C   UNL     1      -3.244  10.153  14.456  0.00  0.00    +0.000 C 
ATOM     12  C   UNL     1      -2.819   9.750  15.857  0.00  0.00    +0.000 C 
ENDBRANCH  10  12
ENDBRANCH   9  10
ENDBRANCH   8   9
ENDBRANCH   7   8
ENDBRANCH   6   7
ENDBRANCH   5   6
ENDBRANCH   4   5
ENDBRANCH   3   4
ENDBRANCH   2   3
ENDBRANCH   1   2
BRANCH   1  13
ATOM     13  C   UNL     1       4.016   6.548  18.169  0.00  0.00    +0.000 C 
BRANCH  13  14
ATOM     14  C   UNL     1       3.755   5.348  17.260  0.00  0.00    +0.000 C 
BRANCH  14  15
ATOM     15  N   UNL     1       4.766   4.201  17.386  0.00  0.00    +0.000 N 
ATOM     16  C   UNL     1       5.504   3.975  16.074  0.00  0.00    +0.000 C 
ATOM     17  C   UNL     1       5.785   4.494  18.487  0.00  0.00    +0.000 C 
BRANCH  15  18
ATOM     18  C   UNL     1       4.002   2.896  17.800  0.00  0.00    +0.000 C 
BRANCH  18  19
ATOM     19  C   UNL     1       3.056   3.062  18.967  0.00  0.00    +0.000 A 
ATOM     20  C   UNL     1       3.503   2.841  20.279  0.00  0.00    +0.000 A 
ATOM     21  C   UNL     1       2.589   2.751  21.327  0.00  0.00    +0.000 A 
ATOM     22  C   UNL     1       1.225   2.896  21.080  0.00  0.00    +0.000 A 
ATOM     23  C   UNL     1       0.777   3.197  19.797  0.00  0.00    +0.000 A 
ATOM     24  C   UNL     1       1.690   3.308  18.749  0.00  0.00    +0.000 A 
ENDBRANCH  18  19
ENDBRANCH  15  18
ENDBRANCH  14  15
ENDBRANCH  13  14
ENDBRANCH   1  13
TORSDOF 15
ENDMDL
MODEL 8
REMARK VINA RESULT:      -6.0      4.697      6.402
REMARK  Name = 
REMARK  18 active torsions:
REMARK  status: ('A' for Active; 'I' for Inactive)
REMARK    1  A    between atoms: C_1  and  C_2
REMARK    2  A    between atoms: C_2  and  C_3
REMARK    3  A    between atoms: C_3  and  C_4
REMARK    4  A    between atoms: C_4  and  C_5
REMARK    5  A    between atoms: C_5  and  C_6
REMARK    6  A    between atoms: C_6  and  C_7
REMARK    7  A    between atoms: C_7  and  C_8
REMARK    8  A    between atoms: C_8  and  C_9
REMARK    9  A    between atoms: C_9  and  C_10
REMARK   10  A    between atoms: C_10  and  C_11
REMARK   11  A    between atoms: C_11  and  C_12
REMARK   12  A    between atoms: C_12  and  C_13
REMARK   13  A    between atoms: C_13  and  C_14
REMARK   14  A    between atoms: C_14  and  N_15
REMARK   15  A    between atoms: N_15  and  C_16
REMARK   16  A    between atoms: N_15  and  C_17
REMARK   17  A    between atoms: N_15  and  C_18
REMARK   18  A    between atoms: C_18  and  C_19
REMARK                            x       y       z     vdW  Elec       q    Type
REMARK                         _______ _______ _______ _____ _____    ______ ____
ROOT
ATOM      1  C   UNL     1       2.651   7.580  18.100  0.00  0.00    +0.000 C 
ENDROOT
BRANCH   1   2
ATOM      2  C   UNL     1       2.556   7.087  19.548  0.00  0.00    +0.000 C 
BRANCH   2   3
ATOM      3  C   UNL     1       1.721   8.025  20.410  0.00  0.00    +0.000 C 
BRANCH   3   4
ATOM      4  C   UNL     1       0.626   7.287  21.165  0.00  0.00    +0.000 C 
BRANCH   4   5
ATOM      5  C   UNL     1      -0.331   8.300  21.784  0.00  0.00    +0.000 C 
BRANCH   5   6
ATOM      6  C   UNL     1       0.429   9.421  22.469  0.00  0.00    +0.000 C 
BRANCH   6   7
ATOM      7  C   UNL     1      -0.508  10.577  22.785  0.00  0.00    +0.000 C 
BRANCH   7   8
ATOM      8  C   UNL     1      -0.857  11.340  21.516  0.00  0.00    +0.000 C 
BRANCH   8   9
ATOM      9  C   UNL     1       0.406  11.756  20.769  0.00  0.00    +0.000 C 
BRANCH   9  10
ATOM     10  C   UNL     1       0.391  11.201  19.351  0.00  0.00    +0.000 C 
BRANCH  10  12
ATOM     11  C   UNL     1       2.207  12.909  19.090  0.00  0.00    +0.000 C 
ATOM     12  C   UNL     1       1.661  11.580  18.598  0.00  0.00    +0.000 C 
ENDBRANCH  10  12
ENDBRANCH   9  10
ENDBRANCH   8   9
ENDBRANCH   7   8
ENDBRANCH   6   7
ENDBRANCH   5   6
ENDBRANCH   4   5
ENDBRANCH   3   4
ENDBRANCH   2   3
ENDBRANCH   1   2
BRANCH   1  13
ATOM     13  C   UNL     1       3.952   7.200  17.375  0.00  0.00    +0.000 C 
BRANCH  13  14
ATOM     14  C   UNL     1       4.696   6.090  18.116  0.00  0.00    +0.000 C 
BRANCH  14  15
ATOM     15  N   UNL     1       5.368   5.042  17.219  0.00  0.00    +0.000 N 
ATOM     16  C   UNL     1       5.328   5.466  15.757  0.00  0.00    +0.000 C 
ATOM     17  C   UNL     1       6.822   4.824  17.635  0.00  0.00    +0.000 C 
BRANCH  15  18
ATOM     18  C   UNL     1       4.627   3.672  17.398  0.00  0.00    +0.000 C 
BRANCH  18  19
ATOM     19  C   UNL     1       3.406   3.728  18.286  0.00  0.00    +0.000 A 
ATOM     20  C   UNL     1       3.523   3.513  19.668  0.00  0.00    +0.000 A 
ATOM     21  C   UNL     1       2.386   3.318  20.449  0.00  0.00    +0.000 A 
ATOM     22  C   UNL     1       1.121   3.351  19.863  0.00  0.00    +0.000 A 
ATOM     23  C   UNL     1       0.988   3.645  18.509  0.00  0.00    +0.000 A 
ATOM     24  C   UNL     1       2.122   3.861  17.728  0.00  0.00    +0.000 A 
ENDBRANCH  18  19
ENDBRANCH  15  18
ENDBRANCH  14  15
ENDBRANCH  13  14
ENDBRANCH   1  13
TORSDOF 15
ENDMDL
MODEL 9
REMARK VINA RESULT:      -6.0      5.285      7.988
REMARK  Name = 
REMARK  18 active torsions:
REMARK  status: ('A' for Active; 'I' for Inactive)
REMARK    1  A    between atoms: C_1  and  C_2
REMARK    2  A    between atoms: C_2  and  C_3
REMARK    3  A    between atoms: C_3  and  C_4
REMARK    4  A    between atoms: C_4  and  C_5
REMARK    5  A    between atoms: C_5  and  C_6
REMARK    6  A    between atoms: C_6  and  C_7
REMARK    7  A    between atoms: C_7  and  C_8
REMARK    8  A    between atoms: C_8  and  C_9
REMARK    9  A    between atoms: C_9  and  C_10
REMARK   10  A    between atoms: C_10  and  C_11
REMARK   11  A    between atoms: C_11  and  C_12
REMARK   12  A    between atoms: C_12  and  C_13
REMARK   13  A    between atoms: C_13  and  C_14
REMARK   14  A    between atoms: C_14  and  N_15
REMARK   15  A    between atoms: N_15  and  C_16
REMARK   16  A    between atoms: N_15  and  C_17
REMARK   17  A    between atoms: N_15  and  C_18
REMARK   18  A    between atoms: C_18  and  C_19
REMARK                            x       y       z     vdW  Elec       q    Type
REMARK                         _______ _______ _______ _____ _____    ______ ____
ROOT
ATOM      1  C   UNL     1       2.537   7.836  18.086  0.00  0.00    +0.000 C 
ENDROOT
BRANCH   1   2
ATOM      2  C   UNL     1       2.119   7.393  19.492  0.00  0.00    +0.000 C 
BRANCH   2   3
ATOM      3  C   UNL     1       1.353   8.487  20.225  0.00  0.00    +0.000 C 
BRANCH   3   4
ATOM      4  C   UNL     1       1.101   9.699  19.340  0.00  0.00    +0.000 C 
BRANCH   4   5
ATOM      5  C   UNL     1       0.087  10.614  20.018  0.00  0.00    +0.000 C 
BRANCH   5   6
ATOM      6  C   UNL     1      -0.903  11.172  19.012  0.00  0.00    +0.000 C 
BRANCH   6   7
ATOM      7  C   UNL     1      -1.818  10.068  18.503  0.00  0.00    +0.000 C 
BRANCH   7   8
ATOM      8  C   UNL     1      -1.763   9.991  16.984  0.00  0.00    +0.000 C 
BRANCH   8   9
ATOM      9  C   UNL     1      -3.153  10.167  16.382  0.00  0.00    +0.000 C 
BRANCH   9  10
ATOM     10  C   UNL     1      -4.174  10.450  17.477  0.00  0.00    +0.000 C 
BRANCH  10  12
ATOM     11  C   UNL     1      -5.602  12.242  18.489  0.00  0.00    +0.000 C 
ATOM     12  C   UNL     1      -4.888  11.774  17.234  0.00  0.00    +0.000 C 
ENDBRANCH  10  12
ENDBRANCH   9  10
ENDBRANCH   8   9
ENDBRANCH   7   8
ENDBRANCH   6   7
ENDBRANCH   5   6
ENDBRANCH   4   5
ENDBRANCH   3   4
ENDBRANCH   2   3
ENDBRANCH   1   2
BRANCH   1  13
ATOM     13  C   UNL     1       3.591   6.940  17.415  0.00  0.00    +0.000 C 
BRANCH  13  14
ATOM     14  C   UNL     1       4.400   6.164  18.453  0.00  0.00    +0.000 C 
BRANCH  14  15
ATOM     15  N   UNL     1       5.135   4.928  17.916  0.00  0.00    +0.000 N 
ATOM     16  C   UNL     1       4.819   4.699  16.444  0.00  0.00    +0.000 C 
ATOM     17  C   UNL     1       6.646   5.079  18.085  0.00  0.00    +0.000 C 
BRANCH  15  18
ATOM     18  C   UNL     1       4.700   3.677  18.756  0.00  0.00    +0.000 C 
BRANCH  18  19
ATOM     19  C   UNL     1       3.234   3.642  19.123  0.00  0.00    +0.000 A 
ATOM     20  C   UNL     1       2.823   3.945  20.430  0.00  0.00    +0.000 A 
ATOM     21  C   UNL     1       1.518   3.678  20.836  0.00  0.00    +0.000 A 
ATOM     22  C   UNL     1       0.606   3.122  19.940  0.00  0.00    +0.000 A 
ATOM     23  C   UNL     1       0.979   2.894  18.618  0.00  0.00    +0.000 A 
ATOM     24  C   UNL     1       2.279   3.179  18.202  0.00  0.00    +0.000 A 
ENDBRANCH  18  19
ENDBRANCH  15  18
ENDBRANCH  14  15
ENDBRANCH  13  14
ENDBRANCH   1  13
TORSDOF 15
ENDMDL
