MODEL 1
REMARK VINA RESULT:      -8.8      0.000      0.000
REMARK  Name = 
REMARK  9 active torsions:
REMARK  status: ('A' for Active; 'I' for Inactive)
REMARK    1  A    between atoms: C_1  and  C_2
REMARK    2  A    between atoms: C_7  and  O_8
REMARK    3  A    between atoms: O_8  and  C_9
REMARK    4  A    between atoms: C_9  and  C_10
REMARK    5  A    between atoms: C_22  and  O_23
REMARK    6  A    between atoms: C_24  and  C_25
REMARK    7  A    between atoms: C_25  and  C_26
REMARK    8  A    between atoms: C_30  and  C_31
REMARK    9  A    between atoms: C_31  and  O_33
REMARK                            x       y       z     vdW  Elec       q    Type
REMARK                         _______ _______ _______ _____ _____    ______ ____
ROOT
ATOM      1  C   UNL     1       1.416   2.961  20.260  0.00  0.00    +0.000 C 
ATOM      2  C   UNL     1       1.566   4.393  19.761  0.00  0.00    +0.000 C 
ATOM      3  O   UNL     1       1.327   5.217  20.916  0.00  0.00    +0.000 OA
ATOM      4  C   UNL     1       1.388   6.557  20.665  0.00  0.00    +0.000 A 
ATOM      5  C   UNL     1       0.716   7.376  21.566  0.00  0.00    +0.000 A 
ATOM      6  C   UNL     1       0.669   8.752  21.356  0.00  0.00    +0.000 A 
ATOM      7  C   UNL     1       1.278   9.317  20.234  0.00  0.00    +0.000 A 
ATOM      8  C   UNL     1       2.022   8.496  19.374  0.00  0.00    +0.000 A 
ATOM      9  C   UNL     1       2.082   7.101  19.585  0.00  0.00    +0.000 A 
ATOM     10  C   UNL     1       2.839   6.201  18.641  0.00  0.00    +0.000 C 
ATOM     11  C   UNL     1       2.946   4.745  19.162  0.00  0.00    +0.000 C 
ENDROOT
BRANCH  10  12
ATOM     12  O   UNL     1       2.175   6.198  17.373  0.00  0.00    +0.000 OA
ATOM     13  H   UNL     1       2.196   7.106  17.023  0.00  0.00    +0.000 HD
ENDBRANCH  10  12
BRANCH   7  14
ATOM     14  O   UNL     1       1.192  10.640  19.887  0.00  0.00    +0.000 OA
BRANCH  14  15
ATOM     15  C   UNL     1       0.046  11.321  20.425  0.00  0.00    +0.000 C 
BRANCH  15  16
ATOM     16  C   UNL     1      -1.056  11.298  19.411  0.00  0.00    +0.000 A 
ATOM     17  N   UNL     1      -1.017  10.564  18.319  0.00  0.00    +0.000 NA
ATOM     18  C   UNL     1      -2.178  10.731  17.591  0.00  0.00    +0.000 A 
ATOM     19  C   UNL     1      -2.445  10.147  16.341  0.00  0.00    +0.000 A 
ATOM     20  C   UNL     1      -3.644  10.446  15.701  0.00  0.00    +0.000 A 
ATOM     21  F   UNL     1      -3.878   9.941  14.483  0.00  0.00    +0.000 F 
ATOM     22  C   UNL     1      -4.597  11.266  16.291  0.00  0.00    +0.000 A 
ATOM     23  C   UNL     1      -4.367  11.829  17.550  0.00  0.00    +0.000 A 
ATOM     24  C   UNL     1      -3.134  11.566  18.173  0.00  0.00    +0.000 A 
ATOM     25  S   UNL     1      -2.517  12.160  19.672  0.00  0.00    +0.000 S 
ENDBRANCH  15  16
ENDBRANCH  14  15
ENDBRANCH   7  14
BRANCH  11  26
ATOM     26  C   UNL     1       3.417   3.754  18.071  0.00  0.00    +0.000 C 
BRANCH  26  27
ATOM     27  C   UNL     1       4.823   4.038  17.578  0.00  0.00    +0.000 A 
ATOM     28  C   UNL     1       5.836   4.373  18.487  0.00  0.00    +0.000 A 
ATOM     29  C   UNL     1       7.102   4.753  18.037  0.00  0.00    +0.000 A 
ATOM     30  C   UNL     1       7.377   4.791  16.670  0.00  0.00    +0.000 A 
ATOM     31  C   UNL     1       6.395   4.412  15.752  0.00  0.00    +0.000 A 
ATOM     32  C   UNL     1       5.121   4.038  16.203  0.00  0.00    +0.000 A 
BRANCH  31  33
ATOM     33  C   UNL     1       6.729   4.475  14.308  0.00  0.00    +0.000 C 
ATOM     34  O   UNL     1       6.167   3.796  13.466  0.00  0.00    +0.000 OA
BRANCH  33  35
ATOM     35  O   UNL     1       7.663   5.405  14.016  0.00  0.00    +0.000 OA
ATOM     36  H   UNL     1       8.552   5.047  13.832  0.00  0.00    +0.000 HD
ENDBRANCH  33  35
ENDBRANCH  31  33
ENDBRANCH  26  27
ENDBRANCH  11  26
TORSDOF 8
ENDMDL
MODEL 2
REMARK VINA RESULT:      -8.7      1.780      2.243
REMARK  Name = 
REMARK  9 active torsions:
REMARK  status: ('A' for Active; 'I' for Inactive)
REMARK    1  A    between atoms: C_1  and  C_2
REMARK    2  A    between atoms: C_7  and  O_8
REMARK    3  A    between atoms: O_8  and  C_9
REMARK    4  A    between atoms: C_9  and  C_10
REMARK    5  A    between atoms: C_22  and  O_23
REMARK    6  A    between atoms: C_24  and  C_25
REMARK    7  A    between atoms: C_25  and  C_26
REMARK    8  A    between atoms: C_30  and  C_31
REMARK    9  A    between atoms: C_31  and  O_33
REMARK                            x       y       z     vdW  Elec       q    Type
REMARK                         _______ _______ _______ _____ _____    ______ ____
ROOT
ATOM      1  C   UNL     1       1.938   4.297  20.720  0.00  0.00    +0.000 C 
ATOM      2  C   UNL     1       1.706   5.677  20.117  0.00  0.00    +0.000 C 
ATOM      3  O   UNL     1       1.655   6.573  21.242  0.00  0.00    +0.000 OA
ATOM      4  C   UNL     1       1.421   7.874  20.907  0.00  0.00    +0.000 A 
ATOM      5  C   UNL     1       0.892   8.676  21.912  0.00  0.00    +0.000 A 
ATOM      6  C   UNL     1       0.560  10.002  21.645  0.00  0.00    +0.000 A 
ATOM      7  C   UNL     1       0.738  10.531  20.364  0.00  0.00    +0.000 A 
ATOM      8  C   UNL     1       1.346   9.741  19.377  0.00  0.00    +0.000 A 
ATOM      9  C   UNL     1       1.694   8.398  19.644  0.00  0.00    +0.000 A 
ATOM     10  C   UNL     1       2.305   7.525  18.578  0.00  0.00    +0.000 C 
ATOM     11  C   UNL     1       2.791   6.161  19.131  0.00  0.00    +0.000 C 
ENDROOT
BRANCH  10  12
ATOM     12  O   UNL     1       1.331   7.296  17.554  0.00  0.00    +0.000 OA
ATOM     13  H   UNL     1       0.545   6.903  17.972  0.00  0.00    +0.000 HD
ENDBRANCH  10  12
BRANCH   7  14
ATOM     14  O   UNL     1       0.341  11.785  19.980  0.00  0.00    +0.000 OA
BRANCH  14  15
ATOM     15  C   UNL     1      -0.076  11.880  18.608  0.00  0.00    +0.000 C 
BRANCH  15  16
ATOM     16  C   UNL     1      -1.570  11.799  18.545  0.00  0.00    +0.000 A 
ATOM     17  N   UNL     1      -2.359  12.270  19.487  0.00  0.00    +0.000 NA
ATOM     18  C   UNL     1      -3.682  12.072  19.144  0.00  0.00    +0.000 A 
ATOM     19  C   UNL     1      -4.788  12.396  19.949  0.00  0.00    +0.000 A 
ATOM     20  C   UNL     1      -6.065  12.094  19.489  0.00  0.00    +0.000 A 
ATOM     21  F   UNL     1      -7.120  12.345  20.277  0.00  0.00    +0.000 F 
ATOM     22  C   UNL     1      -6.272  11.527  18.238  0.00  0.00    +0.000 A 
ATOM     23  C   UNL     1      -5.189  11.230  17.406  0.00  0.00    +0.000 A 
ATOM     24  C   UNL     1      -3.895  11.489  17.893  0.00  0.00    +0.000 A 
ATOM     25  S   UNL     1      -2.366  11.174  17.158  0.00  0.00    +0.000 S 
ENDBRANCH  15  16
ENDBRANCH  14  15
ENDBRANCH   7  14
BRANCH  11  26
ATOM     26  C   UNL     1       3.106   5.141  18.010  0.00  0.00    +0.000 C 
BRANCH  26  27
ATOM     27  C   UNL     1       4.590   5.024  17.713  0.00  0.00    +0.000 A 
ATOM     28  C   UNL     1       5.530   5.184  18.741  0.00  0.00    +0.000 A 
ATOM     29  C   UNL     1       6.898   5.198  18.461  0.00  0.00    +0.000 A 
ATOM     30  C   UNL     1       7.346   5.041  17.149  0.00  0.00    +0.000 A 
ATOM     31  C   UNL     1       6.425   4.831  16.119  0.00  0.00    +0.000 A 
ATOM     32  C   UNL     1       5.051   4.825  16.399  0.00  0.00    +0.000 A 
BRANCH  31  33
ATOM     33  C   UNL     1       6.946   4.677  14.739  0.00  0.00    +0.000 C 
ATOM     34  O   UNL     1       7.805   5.402  14.269  0.00  0.00    +0.000 OA
BRANCH  33  35
ATOM     35  O   UNL     1       6.424   3.616  14.087  0.00  0.00    +0.000 OA
ATOM     36  H   UNL     1       7.082   3.034  13.662  0.00  0.00    +0.000 HD
ENDBRANCH  33  35
ENDBRANCH  31  33
ENDBRANCH  26  27
ENDBRANCH  11  26
TORSDOF 8
ENDMDL
MODEL 3
REMARK VINA RESULT:      -8.6      1.615      1.949
REMARK  Name = 
REMARK  9 active torsions:
REMARK  status: ('A' for Active; 'I' for Inactive)
REMARK    1  A    between atoms: C_1  and  C_2
REMARK    2  A    between atoms: C_7  and  O_8
REMARK    3  A    between atoms: O_8  and  C_9
REMARK    4  A    between atoms: C_9  and  C_10
REMARK    5  A    between atoms: C_22  and  O_23
REMARK    6  A    between atoms: C_24  and  C_25
REMARK    7  A    between atoms: C_25  and  C_26
REMARK    8  A    between atoms: C_30  and  C_31
REMARK    9  A    between atoms: C_31  and  O_33
REMARK                            x       y       z     vdW  Elec       q    Type
REMARK                         _______ _______ _______ _____ _____    ______ ____
ROOT
ATOM      1  C   UNL     1       1.701   3.007  20.608  0.00  0.00    +0.000 C 
ATOM      2  C   UNL     1       1.749   4.396  19.983  0.00  0.00    +0.000 C 
ATOM      3  O   UNL     1       1.498   5.304  21.071  0.00  0.00    +0.000 OA
ATOM      4  C   UNL     1       1.470   6.618  20.704  0.00  0.00    +0.000 A 
ATOM      5  C   UNL     1       0.780   7.473  21.555  0.00  0.00    +0.000 A 
ATOM      6  C   UNL     1       0.643   8.821  21.230  0.00  0.00    +0.000 A 
ATOM      7  C   UNL     1       1.180   9.319  20.041  0.00  0.00    +0.000 A 
ATOM      8  C   UNL     1       1.944   8.469  19.227  0.00  0.00    +0.000 A 
ATOM      9  C   UNL     1       2.095   7.103  19.555  0.00  0.00    +0.000 A 
ATOM     10  C   UNL     1       2.873   6.168  18.664  0.00  0.00    +0.000 C 
ATOM     11  C   UNL     1       3.084   4.773  19.304  0.00  0.00    +0.000 C 
ENDROOT
BRANCH  10  12
ATOM     12  O   UNL     1       2.168   6.016  17.427  0.00  0.00    +0.000 OA
ATOM     13  H   UNL     1       1.217   5.971  17.629  0.00  0.00    +0.000 HD
ENDBRANCH  10  12
BRANCH   7  14
ATOM     14  O   UNL     1       1.003  10.599  19.585  0.00  0.00    +0.000 OA
BRANCH  14  15
ATOM     15  C   UNL     1       0.426  10.686  18.272  0.00  0.00    +0.000 C 
BRANCH  15  16
ATOM     16  C   UNL     1      -1.036  10.986  18.400  0.00  0.00    +0.000 A 
ATOM     17  N   UNL     1      -1.528  11.806  19.304  0.00  0.00    +0.000 NA
ATOM     18  C   UNL     1      -2.899  11.901  19.166  0.00  0.00    +0.000 A 
ATOM     19  C   UNL     1      -3.752  12.639  20.005  0.00  0.00    +0.000 A 
ATOM     20  C   UNL     1      -5.122  12.602  19.770  0.00  0.00    +0.000 A 
ATOM     21  F   UNL     1      -5.945  13.254  20.602  0.00  0.00    +0.000 F 
ATOM     22  C   UNL     1      -5.657  11.895  18.702  0.00  0.00    +0.000 A 
ATOM     23  C   UNL     1      -4.825  11.183  17.833  0.00  0.00    +0.000 A 
ATOM     24  C   UNL     1      -3.443  11.180  18.101  0.00  0.00    +0.000 A 
ATOM     25  S   UNL     1      -2.172  10.352  17.280  0.00  0.00    +0.000 S 
ENDBRANCH  15  16
ENDBRANCH  14  15
ENDBRANCH   7  14
BRANCH  11  26
ATOM     26  C   UNL     1       3.577   3.717  18.285  0.00  0.00    +0.000 C 
BRANCH  26  27
ATOM     27  C   UNL     1       4.948   4.036  17.716  0.00  0.00    +0.000 A 
ATOM     28  C   UNL     1       5.998   4.402  18.570  0.00  0.00    +0.000 A 
ATOM     29  C   UNL     1       7.228   4.813  18.052  0.00  0.00    +0.000 A 
ATOM     30  C   UNL     1       7.428   4.853  16.672  0.00  0.00    +0.000 A 
ATOM     31  C   UNL     1       6.409   4.444  15.808  0.00  0.00    +0.000 A 
ATOM     32  C   UNL     1       5.171   4.039  16.327  0.00  0.00    +0.000 A 
BRANCH  31  33
ATOM     33  C   UNL     1       6.664   4.511  14.348  0.00  0.00    +0.000 C 
ATOM     34  O   UNL     1       5.996   3.902  13.529  0.00  0.00    +0.000 OA
BRANCH  33  35
ATOM     35  O   UNL     1       7.658   5.361  14.018  0.00  0.00    +0.000 OA
ATOM     36  H   UNL     1       7.360   6.223  13.670  0.00  0.00    +0.000 HD
ENDBRANCH  33  35
ENDBRANCH  31  33
ENDBRANCH  26  27
ENDBRANCH  11  26
TORSDOF 8
ENDMDL
MODEL 4
REMARK VINA RESULT:      -8.6      1.397      1.793
REMARK  Name = 
REMARK  9 active torsions:
REMARK  status: ('A' for Active; 'I' for Inactive)
REMARK    1  A    between atoms: C_1  and  C_2
REMARK    2  A    between atoms: C_7  and  O_8
REMARK    3  A    between atoms: O_8  and  C_9
REMARK    4  A    between atoms: C_9  and  C_10
REMARK    5  A    between atoms: C_22  and  O_23
REMARK    6  A    between atoms: C_24  and  C_25
REMARK    7  A    between atoms: C_25  and  C_26
REMARK    8  A    between atoms: C_30  and  C_31
REMARK    9  A    between atoms: C_31  and  O_33
REMARK                            x       y       z     vdW  Elec       q    Type
REMARK                         _______ _______ _______ _____ _____    ______ ____
ROOT
ATOM      1  C   UNL     1       2.000   3.462  21.198  0.00  0.00    +0.000 C 
ATOM      2  C   UNL     1       1.950   4.766  20.409  0.00  0.00    +0.000 C 
ATOM      3  O   UNL     1       1.529   5.761  21.360  0.00  0.00    +0.000 OA
ATOM      4  C   UNL     1       1.393   7.012  20.832  0.00  0.00    +0.000 A 
ATOM      5  C   UNL     1       0.559   7.879  21.529  0.00  0.00    +0.000 A 
ATOM      6  C   UNL     1       0.308   9.156  21.032  0.00  0.00    +0.000 A 
ATOM      7  C   UNL     1       0.875   9.568  19.824  0.00  0.00    +0.000 A 
ATOM      8  C   UNL     1       1.779   8.719  19.169  0.00  0.00    +0.000 A 
ATOM      9  C   UNL     1       2.045   7.426  19.671  0.00  0.00    +0.000 A 
ATOM     10  C   UNL     1       2.978   6.485  18.951  0.00  0.00    +0.000 C 
ATOM     11  C   UNL     1       3.284   5.206  19.769  0.00  0.00    +0.000 C 
ENDROOT
BRANCH  10  12
ATOM     12  O   UNL     1       2.384   6.113  17.702  0.00  0.00    +0.000 OA
ATOM     13  H   UNL     1       2.535   6.839  17.072  0.00  0.00    +0.000 HD
ENDBRANCH  10  12
BRANCH   7  14
ATOM     14  O   UNL     1       0.601  10.759  19.204  0.00  0.00    +0.000 OA
BRANCH  14  15
ATOM     15  C   UNL     1      -0.200  10.638  18.017  0.00  0.00    +0.000 C 
BRANCH  15  16
ATOM     16  C   UNL     1      -1.588  11.116  18.314  0.00  0.00    +0.000 A 
ATOM     17  N   UNL     1      -2.648  10.717  17.643  0.00  0.00    +0.000 NA
ATOM     18  C   UNL     1      -3.786  11.307  18.155  0.00  0.00    +0.000 A 
ATOM     19  C   UNL     1      -5.085  11.154  17.639  0.00  0.00    +0.000 A 
ATOM     20  C   UNL     1      -6.131  11.851  18.233  0.00  0.00    +0.000 A 
ATOM     21  F   UNL     1      -7.360  11.757  17.708  0.00  0.00    +0.000 F 
ATOM     22  C   UNL     1      -5.929  12.653  19.349  0.00  0.00    +0.000 A 
ATOM     23  C   UNL     1      -4.652  12.792  19.901  0.00  0.00    +0.000 A 
ATOM     24  C   UNL     1      -3.586  12.126  19.269  0.00  0.00    +0.000 A 
ATOM     25  S   UNL     1      -1.903  12.149  19.648  0.00  0.00    +0.000 S 
ENDBRANCH  15  16
ENDBRANCH  14  15
ENDBRANCH   7  14
BRANCH  11  26
ATOM     26  C   UNL     1       3.956   4.100  18.919  0.00  0.00    +0.000 C 
BRANCH  26  27
ATOM     27  C   UNL     1       5.239   4.561  18.253  0.00  0.00    +0.000 A 
ATOM     28  C   UNL     1       6.238   5.194  19.007  0.00  0.00    +0.000 A 
ATOM     29  C   UNL     1       7.369   5.728  18.386  0.00  0.00    +0.000 A 
ATOM     30  C   UNL     1       7.523   5.627  17.003  0.00  0.00    +0.000 A 
ATOM     31  C   UNL     1       6.562   4.956  16.243  0.00  0.00    +0.000 A 
ATOM     32  C   UNL     1       5.422   4.426  16.865  0.00  0.00    +0.000 A 
BRANCH  31  33
ATOM     33  C   UNL     1       6.762   4.880  14.775  0.00  0.00    +0.000 C 
ATOM     34  O   UNL     1       7.736   5.351  14.213  0.00  0.00    +0.000 OA
BRANCH  33  35
ATOM     35  O   UNL     1       5.798   4.180  14.141  0.00  0.00    +0.000 OA
ATOM     36  H   UNL     1       5.415   4.625  13.361  0.00  0.00    +0.000 HD
ENDBRANCH  33  35
ENDBRANCH  31  33
ENDBRANCH  26  27
ENDBRANCH  11  26
TORSDOF 8
ENDMDL
MODEL 5
REMARK VINA RESULT:      -8.5      2.184      2.792
REMARK  Name = 
REMARK  9 active torsions:
REMARK  status: ('A' for Active; 'I' for Inactive)
REMARK    1  A    between atoms: C_1  and  C_2
REMARK    2  A    between atoms: C_7  and  O_8
REMARK    3  A    between atoms: O_8  and  C_9
REMARK    4  A    between atoms: C_9  and  C_10
REMARK    5  A    between atoms: C_22  and  O_23
REMARK    6  A    between atoms: C_24  and  C_25
REMARK    7  A    between atoms: C_25  and  C_26
REMARK    8  A    between atoms: C_30  and  C_31
REMARK    9  A    between atoms: C_31  and  O_33
REMARK                            x       y       z     vdW  Elec       q    Type
REMARK                         _______ _______ _______ _____ _____    ______ ____
ROOT
ATOM      1  C   UNL     1       2.106   4.359  20.570  0.00  0.00    +0.000 C 
ATOM      2  C   UNL     1       1.807   5.735  19.987  0.00  0.00    +0.000 C 
ATOM      3  O   UNL     1       1.789   6.624  21.119  0.00  0.00    +0.000 OA
ATOM      4  C   UNL     1       1.503   7.920  20.803  0.00  0.00    +0.000 A 
ATOM      5  C   UNL     1       1.003   8.703  21.838  0.00  0.00    +0.000 A 
ATOM      6  C   UNL     1       0.622  10.021  21.595  0.00  0.00    +0.000 A 
ATOM      7  C   UNL     1       0.722  10.560  20.310  0.00  0.00    +0.000 A 
ATOM      8  C   UNL     1       1.302   9.791  19.290  0.00  0.00    +0.000 A 
ATOM      9  C   UNL     1       1.699   8.457  19.531  0.00  0.00    +0.000 A 
ATOM     10  C   UNL     1       2.280   7.605  18.431  0.00  0.00    +0.000 C 
ATOM     11  C   UNL     1       2.829   6.253  18.951  0.00  0.00    +0.000 C 
ENDROOT
BRANCH  10  12
ATOM     12  O   UNL     1       1.263   7.355  17.455  0.00  0.00    +0.000 OA
ATOM     13  H   UNL     1       1.515   7.815  16.636  0.00  0.00    +0.000 HD
ENDBRANCH  10  12
BRANCH   7  14
ATOM     14  O   UNL     1       0.273  11.804  19.953  0.00  0.00    +0.000 OA
BRANCH  14  15
ATOM     15  C   UNL     1      -0.391  11.851  18.679  0.00  0.00    +0.000 C 
BRANCH  15  16
ATOM     16  C   UNL     1      -1.861  12.032  18.901  0.00  0.00    +0.000 A 
ATOM     17  N   UNL     1      -2.773  11.658  18.029  0.00  0.00    +0.000 NA
ATOM     18  C   UNL     1      -4.037  11.931  18.515  0.00  0.00    +0.000 A 
ATOM     19  C   UNL     1      -5.240  11.719  17.819  0.00  0.00    +0.000 A 
ATOM     20  C   UNL     1      -6.438  12.089  18.421  0.00  0.00    +0.000 A 
ATOM     21  F   UNL     1      -7.582  11.945  17.738  0.00  0.00    +0.000 F 
ATOM     22  C   UNL     1      -6.475  12.614  19.705  0.00  0.00    +0.000 A 
ATOM     23  C   UNL     1      -5.294  12.799  20.430  0.00  0.00    +0.000 A 
ATOM     24  C   UNL     1      -4.078  12.472  19.802  0.00  0.00    +0.000 A 
ATOM     25  S   UNL     1      -2.464  12.650  20.385  0.00  0.00    +0.000 S 
ENDBRANCH  15  16
ENDBRANCH  14  15
ENDBRANCH   7  14
BRANCH  11  26
ATOM     26  C   UNL     1       3.116   5.247  17.810  0.00  0.00    +0.000 C 
BRANCH  26  27
ATOM     27  C   UNL     1       4.591   5.135  17.474  0.00  0.00    +0.000 A 
ATOM     28  C   UNL     1       5.014   4.320  16.415  0.00  0.00    +0.000 A 
ATOM     29  C   UNL     1       6.374   4.115  16.171  0.00  0.00    +0.000 A 
ATOM     30  C   UNL     1       7.331   4.731  16.978  0.00  0.00    +0.000 A 
ATOM     31  C   UNL     1       6.927   5.586  18.007  0.00  0.00    +0.000 A 
ATOM     32  C   UNL     1       5.562   5.786  18.257  0.00  0.00    +0.000 A 
BRANCH  31  33
ATOM     33  C   UNL     1       7.979   6.214  18.844  0.00  0.00    +0.000 C 
ATOM     34  O   UNL     1       8.412   7.335  18.636  0.00  0.00    +0.000 OA
BRANCH  33  35
ATOM     35  O   UNL     1       8.352   5.451  19.893  0.00  0.00    +0.000 OA
ATOM     36  H   UNL     1       7.880   4.600  19.968  0.00  0.00    +0.000 HD
ENDBRANCH  33  35
ENDBRANCH  31  33
ENDBRANCH  26  27
ENDBRANCH  11  26
TORSDOF 8
ENDMDL
MODEL 6
REMARK VINA RESULT:      -8.5      1.745      2.293
REMARK  Name = 
REMARK  9 active torsions:
REMARK  status: ('A' for Active; 'I' for Inactive)
REMARK    1  A    between atoms: C_1  and  C_2
REMARK    2  A    between atoms: C_7  and  O_8
REMARK    3  A    between atoms: O_8  and  C_9
REMARK    4  A    between atoms: C_9  and  C_10
REMARK    5  A    between atoms: C_22  and  O_23
REMARK    6  A    between atoms: C_24  and  C_25
REMARK    7  A    between atoms: C_25  and  C_26
REMARK    8  A    between atoms: C_30  and  C_31
REMARK    9  A    between atoms: C_31  and  O_33
REMARK                            x       y       z     vdW  Elec       q    Type
REMARK                         _______ _______ _______ _____ _____    ______ ____
ROOT
ATOM      1  C   UNL     1       1.765   4.771  20.344  0.00  0.00    +0.000 C 
ATOM      2  C   UNL     1       1.539   6.215  19.914  0.00  0.00    +0.000 C 
ATOM      3  O   UNL     1       1.519   6.971  21.140  0.00  0.00    +0.000 OA
ATOM      4  C   UNL     1       1.294   8.305  20.966  0.00  0.00    +0.000 A 
ATOM      5  C   UNL     1       0.792   8.986  22.070  0.00  0.00    +0.000 A 
ATOM      6  C   UNL     1       0.471  10.338  21.969  0.00  0.00    +0.000 A 
ATOM      7  C   UNL     1       0.633  11.014  20.758  0.00  0.00    +0.000 A 
ATOM      8  C   UNL     1       1.216  10.343  19.673  0.00  0.00    +0.000 A 
ATOM      9  C   UNL     1       1.552   8.974  19.770  0.00  0.00    +0.000 A 
ATOM     10  C   UNL     1       2.135   8.228  18.597  0.00  0.00    +0.000 C 
ATOM     11  C   UNL     1       2.614   6.804  18.974  0.00  0.00    +0.000 C 
ENDROOT
BRANCH  10  12
ATOM     12  O   UNL     1       1.142   8.133  17.570  0.00  0.00    +0.000 OA
ATOM     13  H   UNL     1       1.209   7.248  17.171  0.00  0.00    +0.000 HD
ENDBRANCH  10  12
BRANCH   7  14
ATOM     14  O   UNL     1       0.246  12.309  20.534  0.00  0.00    +0.000 OA
BRANCH  14  15
ATOM     15  C   UNL     1      -0.356  12.533  19.248  0.00  0.00    +0.000 C 
BRANCH  15  16
ATOM     16  C   UNL     1      -1.845  12.431  19.381  0.00  0.00    +0.000 A 
ATOM     17  N   UNL     1      -2.597  11.734  18.556  0.00  0.00    +0.000 NA
ATOM     18  C   UNL     1      -3.921  11.809  18.941  0.00  0.00    +0.000 A 
ATOM     19  C   UNL     1      -5.003  11.235  18.249  0.00  0.00    +0.000 A 
ATOM     20  C   UNL     1      -6.291  11.435  18.733  0.00  0.00    +0.000 A 
ATOM     21  F   UNL     1      -7.331  10.942  18.045  0.00  0.00    +0.000 F 
ATOM     22  C   UNL     1      -6.527  12.144  19.903  0.00  0.00    +0.000 A 
ATOM     23  C   UNL     1      -5.463  12.692  20.627  0.00  0.00    +0.000 A 
ATOM     24  C   UNL     1      -4.164  12.532  20.110  0.00  0.00    +0.000 A 
ATOM     25  S   UNL     1      -2.666  13.142  20.711  0.00  0.00    +0.000 S 
ENDBRANCH  15  16
ENDBRANCH  14  15
ENDBRANCH   7  14
BRANCH  11  26
ATOM     26  C   UNL     1       2.898   5.922  17.733  0.00  0.00    +0.000 C 
BRANCH  26  27
ATOM     27  C   UNL     1       4.354   5.508  17.620  0.00  0.00    +0.000 A 
ATOM     28  C   UNL     1       5.166   5.464  18.762  0.00  0.00    +0.000 A 
ATOM     29  C   UNL     1       6.533   5.201  18.655  0.00  0.00    +0.000 A 
ATOM     30  C   UNL     1       7.106   4.968  17.405  0.00  0.00    +0.000 A 
ATOM     31  C   UNL     1       6.303   4.958  16.262  0.00  0.00    +0.000 A 
ATOM     32  C   UNL     1       4.931   5.230  16.368  0.00  0.00    +0.000 A 
BRANCH  31  33
ATOM     33  C   UNL     1       6.955   4.713  14.953  0.00  0.00    +0.000 C 
ATOM     34  O   UNL     1       7.859   5.409  14.521  0.00  0.00    +0.000 OA
BRANCH  33  35
ATOM     35  O   UNL     1       6.498   3.609  14.327  0.00  0.00    +0.000 OA
ATOM     36  H   UNL     1       5.880   3.782  13.591  0.00  0.00    +0.000 HD
ENDBRANCH  33  35
ENDBRANCH  31  33
ENDBRANCH  26  27
ENDBRANCH  11  26
TORSDOF 8
ENDMDL
MODEL 7
REMARK VINA RESULT:      -8.5      2.836      3.279
REMARK  Name = 
REMARK  9 active torsions:
REMARK  status: ('A' for Active; 'I' for Inactive)
REMARK    1  A    between atoms: C_1  and  C_2
REMARK    2  A    between atoms: C_7  and  O_8
REMARK    3  A    between atoms: O_8  and  C_9
REMARK    4  A    between atoms: C_9  and  C_10
REMARK    5  A    between atoms: C_22  and  O_23
REMARK    6  A    between atoms: C_24  and  C_25
REMARK    7  A    between atoms: C_25  and  C_26
REMARK    8  A    between atoms: C_30  and  C_31
REMARK    9  A    between atoms: C_31  and  O_33
REMARK                            x       y       z     vdW  Elec       q    Type
REMARK                         _______ _______ _______ _____ _____    ______ ____
ROOT
ATOM      1  C   UNL     1       2.045   3.422  21.222  0.00  0.00    +0.000 C 
ATOM      2  C   UNL     1       1.964   4.708  20.407  0.00  0.00    +0.000 C 
ATOM      3  O   UNL     1       1.644   5.736  21.364  0.00  0.00    +0.000 OA
ATOM      4  C   UNL     1       1.496   6.977  20.817  0.00  0.00    +0.000 A 
ATOM      5  C   UNL     1       0.742   7.881  21.555  0.00  0.00    +0.000 A 
ATOM      6  C   UNL     1       0.482   9.152  21.048  0.00  0.00    +0.000 A 
ATOM      7  C   UNL     1       0.961   9.522  19.789  0.00  0.00    +0.000 A 
ATOM      8  C   UNL     1       1.789   8.635  19.086  0.00  0.00    +0.000 A 
ATOM      9  C   UNL     1       2.064   7.347  19.598  0.00  0.00    +0.000 A 
ATOM     10  C   UNL     1       2.914   6.367  18.830  0.00  0.00    +0.000 C 
ATOM     11  C   UNL     1       3.254   5.099  19.653  0.00  0.00    +0.000 C 
ENDROOT
BRANCH  10  12
ATOM     12  O   UNL     1       2.214   5.981  17.642  0.00  0.00    +0.000 OA
ATOM     13  H   UNL     1       1.508   6.632  17.487  0.00  0.00    +0.000 HD
ENDBRANCH  10  12
BRANCH   7  14
ATOM     14  O   UNL     1       0.668  10.704  19.163  0.00  0.00    +0.000 OA
BRANCH  14  15
ATOM     15  C   UNL     1       0.771  11.863  20.007  0.00  0.00    +0.000 C 
BRANCH  15  16
ATOM     16  C   UNL     1      -0.553  12.113  20.659  0.00  0.00    +0.000 A 
ATOM     17  N   UNL     1      -0.728  12.105  21.964  0.00  0.00    +0.000 NA
ATOM     18  C   UNL     1      -2.045  12.388  22.270  0.00  0.00    +0.000 A 
ATOM     19  C   UNL     1      -2.595  12.399  23.563  0.00  0.00    +0.000 A 
ATOM     20  C   UNL     1      -3.954  12.655  23.713  0.00  0.00    +0.000 A 
ATOM     21  F   UNL     1      -4.496  12.607  24.938  0.00  0.00    +0.000 F 
ATOM     22  C   UNL     1      -4.763  12.946  22.623  0.00  0.00    +0.000 A 
ATOM     23  C   UNL     1      -4.230  12.976  21.331  0.00  0.00    +0.000 A 
ATOM     24  C   UNL     1      -2.866  12.668  21.175  0.00  0.00    +0.000 A 
ATOM     25  S   UNL     1      -1.931  12.544  19.731  0.00  0.00    +0.000 S 
ENDBRANCH  15  16
ENDBRANCH  14  15
ENDBRANCH   7  14
BRANCH  11  26
ATOM     26  C   UNL     1       3.829   3.957  18.781  0.00  0.00    +0.000 C 
BRANCH  26  27
ATOM     27  C   UNL     1       5.163   4.308  18.148  0.00  0.00    +0.000 A 
ATOM     28  C   UNL     1       6.196   4.844  18.929  0.00  0.00    +0.000 A 
ATOM     29  C   UNL     1       7.383   5.281  18.339  0.00  0.00    +0.000 A 
ATOM     30  C   UNL     1       7.559   5.178  16.959  0.00  0.00    +0.000 A 
ATOM     31  C   UNL     1       6.560   4.601  16.171  0.00  0.00    +0.000 A 
ATOM     32  C   UNL     1       5.364   4.169  16.762  0.00  0.00    +0.000 A 
BRANCH  31  33
ATOM     33  C   UNL     1       6.786   4.519  14.707  0.00  0.00    +0.000 C 
ATOM     34  O   UNL     1       6.130   3.799  13.974  0.00  0.00    +0.000 OA
BRANCH  33  35
ATOM     35  O   UNL     1       7.737   5.369  14.266  0.00  0.00    +0.000 OA
ATOM     36  H   UNL     1       7.538   6.314  14.408  0.00  0.00    +0.000 HD
ENDBRANCH  33  35
ENDBRANCH  31  33
ENDBRANCH  26  27
ENDBRANCH  11  26
TORSDOF 8
ENDMDL
MODEL 8
REMARK VINA RESULT:      -8.5      3.121      3.772
REMARK  Name = 
REMARK  9 active torsions:
REMARK  status: ('A' for Active; 'I' for Inactive)
REMARK    1  A    between atoms: C_1  and  C_2
REMARK    2  A    between atoms: C_7  and  O_8
REMARK    3  A    between atoms: O_8  and  C_9
REMARK    4  A    between atoms: C_9  and  C_10
REMARK    5  A    between atoms: C_22  and  O_23
REMARK    6  A    between atoms: C_24  and  C_25
REMARK    7  A    between atoms: C_25  and  C_26
REMARK    8  A    between atoms: C_30  and  C_31
REMARK    9  A    between atoms: C_31  and  O_33
REMARK                            x       y       z     vdW  Elec       q    Type
REMARK                         _______ _______ _______ _____ _____    ______ ____
ROOT
ATOM      1  C   UNL     1       1.883   3.336  20.908  0.00  0.00    +0.000 C 
ATOM      2  C   UNL     1       1.897   4.652  20.139  0.00  0.00    +0.000 C 
ATOM      3  O   UNL     1       1.636   5.665  21.128  0.00  0.00    +0.000 OA
ATOM      4  C   UNL     1       1.578   6.931  20.624  0.00  0.00    +0.000 A 
ATOM      5  C   UNL     1       0.877   7.858  21.387  0.00  0.00    +0.000 A 
ATOM      6  C   UNL     1       0.709   9.161  20.923  0.00  0.00    +0.000 A 
ATOM      7  C   UNL     1       1.227   9.541  19.682  0.00  0.00    +0.000 A 
ATOM      8  C   UNL     1       2.002   8.625  18.956  0.00  0.00    +0.000 A 
ATOM      9  C   UNL     1       2.183   7.305  19.424  0.00  0.00    +0.000 A 
ATOM     10  C   UNL     1       2.974   6.296  18.630  0.00  0.00    +0.000 C 
ATOM     11  C   UNL     1       3.219   4.981  19.411  0.00  0.00    +0.000 C 
ENDROOT
BRANCH  10  12
ATOM     12  O   UNL     1       2.264   6.000  17.423  0.00  0.00    +0.000 OA
ATOM     13  H   UNL     1       2.156   5.034  17.369  0.00  0.00    +0.000 HD
ENDBRANCH  10  12
BRANCH   7  14
ATOM     14  O   UNL     1       1.020  10.762  19.096  0.00  0.00    +0.000 OA
BRANCH  14  15
ATOM     15  C   UNL     1       0.245  11.676  19.888  0.00  0.00    +0.000 C 
BRANCH  15  16
ATOM     16  C   UNL     1       0.536  13.076  19.444  0.00  0.00    +0.000 A 
ATOM     17  N   UNL     1      -0.384  14.013  19.361  0.00  0.00    +0.000 NA
ATOM     18  C   UNL     1       0.183  15.202  18.946  0.00  0.00    +0.000 A 
ATOM     19  C   UNL     1      -0.520  16.393  18.691  0.00  0.00    +0.000 A 
ATOM     20  C   UNL     1       0.182  17.502  18.230  0.00  0.00    +0.000 A 
ATOM     21  F   UNL     1      -0.491  18.621  17.927  0.00  0.00    +0.000 F 
ATOM     22  C   UNL     1       1.560  17.472  18.065  0.00  0.00    +0.000 A 
ATOM     23  C   UNL     1       2.284  16.310  18.347  0.00  0.00    +0.000 A 
ATOM     24  C   UNL     1       1.567  15.174  18.765  0.00  0.00    +0.000 A 
ATOM     25  S   UNL     1       2.143  13.586  19.115  0.00  0.00    +0.000 S 
ENDBRANCH  15  16
ENDBRANCH  14  15
ENDBRANCH   7  14
BRANCH  11  26
ATOM     26  C   UNL     1       3.727   3.834  18.504  0.00  0.00    +0.000 C 
BRANCH  26  27
ATOM     27  C   UNL     1       5.067   4.135  17.861  0.00  0.00    +0.000 A 
ATOM     28  C   UNL     1       6.147   4.564  18.645  0.00  0.00    +0.000 A 
ATOM     29  C   UNL     1       7.348   4.958  18.052  0.00  0.00    +0.000 A 
ATOM     30  C   UNL     1       7.490   4.918  16.665  0.00  0.00    +0.000 A 
ATOM     31  C   UNL     1       6.442   4.446  15.871  0.00  0.00    +0.000 A 
ATOM     32  C   UNL     1       5.233   4.057  16.466  0.00  0.00    +0.000 A 
BRANCH  31  33
ATOM     33  C   UNL     1       6.635   4.427  14.400  0.00  0.00    +0.000 C 
ATOM     34  O   UNL     1       7.261   5.286  13.802  0.00  0.00    +0.000 OA
BRANCH  33  35
ATOM     35  O   UNL     1       6.111   3.335  13.807  0.00  0.00    +0.000 OA
ATOM     36  H   UNL     1       5.152   3.215  13.945  0.00  0.00    +0.000 HD
ENDBRANCH  33  35
ENDBRANCH  31  33
ENDBRANCH  26  27
ENDBRANCH  11  26
TORSDOF 8
ENDMDL
MODEL 9
REMARK VINA RESULT:      -8.4      4.036      9.094
REMARK  Name = 
REMARK  9 active torsions:
REMARK  status: ('A' for Active; 'I' for Inactive)
REMARK    1  A    between atoms: C_1  and  C_2
REMARK    2  A    between atoms: C_7  and  O_8
REMARK    3  A    between atoms: O_8  and  C_9
REMARK    4  A    between atoms: C_9  and  C_10
REMARK    5  A    between atoms: C_22  and  O_23
REMARK    6  A    between atoms: C_24  and  C_25
REMARK    7  A    between atoms: C_25  and  C_26
REMARK    8  A    between atoms: C_30  and  C_31
REMARK    9  A    between atoms: C_31  and  O_33
REMARK                            x       y       z     vdW  Elec       q    Type
REMARK                         _______ _______ _______ _____ _____    ______ ____
ROOT
ATOM      1  C   UNL     1       1.496   9.041  21.625  0.00  0.00    +0.000 C 
ATOM      2  C   UNL     1       1.866   8.013  20.563  0.00  0.00    +0.000 C 
ATOM      3  O   UNL     1       1.199   6.803  20.967  0.00  0.00    +0.000 OA
ATOM      4  C   UNL     1       1.434   5.738  20.147  0.00  0.00    +0.000 A 
ATOM      5  C   UNL     1       1.240   4.482  20.710  0.00  0.00    +0.000 A 
ATOM      6  C   UNL     1       1.517   3.335  19.969  0.00  0.00    +0.000 A 
ATOM      7  C   UNL     1       2.007   3.437  18.665  0.00  0.00    +0.000 A 
ATOM      8  C   UNL     1       2.122   4.705  18.076  0.00  0.00    +0.000 A 
ATOM      9  C   UNL     1       1.835   5.872  18.818  0.00  0.00    +0.000 A 
ATOM     10  C   UNL     1       2.001   7.243  18.211  0.00  0.00    +0.000 C 
ATOM     11  C   UNL     1       1.445   8.368  19.120  0.00  0.00    +0.000 C 
ENDROOT
BRANCH  10  12
ATOM     12  O   UNL     1       3.393   7.477  17.973  0.00  0.00    +0.000 OA
ATOM     13  H   UNL     1       3.898   6.835  18.502  0.00  0.00    +0.000 HD
ENDBRANCH  10  12
BRANCH   7  14
ATOM     14  O   UNL     1       2.409   2.373  17.901  0.00  0.00    +0.000 OA
BRANCH  14  15
ATOM     15  C   UNL     1       3.769   1.965  18.123  0.00  0.00    +0.000 C 
BRANCH  15  16
ATOM     16  C   UNL     1       4.675   3.133  17.886  0.00  0.00    +0.000 A 
ATOM     17  N   UNL     1       5.434   3.659  18.824  0.00  0.00    +0.000 NA
ATOM     18  C   UNL     1       6.174   4.705  18.308  0.00  0.00    +0.000 A 
ATOM     19  C   UNL     1       7.041   5.530  19.045  0.00  0.00    +0.000 A 
ATOM     20  C   UNL     1       7.684   6.578  18.397  0.00  0.00    +0.000 A 
ATOM     21  F   UNL     1       8.465   7.405  19.106  0.00  0.00    +0.000 F 
ATOM     22  C   UNL     1       7.527   6.796  17.035  0.00  0.00    +0.000 A 
ATOM     23  C   UNL     1       6.697   5.966  16.274  0.00  0.00    +0.000 A 
ATOM     24  C   UNL     1       6.008   4.937  16.941  0.00  0.00    +0.000 A 
ATOM     25  S   UNL     1       4.867   3.802  16.317  0.00  0.00    +0.000 S 
ENDBRANCH  15  16
ENDBRANCH  14  15
ENDBRANCH   7  14
BRANCH  11  26
ATOM     26  C   UNL     1       1.903   9.777  18.673  0.00  0.00    +0.000 C 
BRANCH  26  27
ATOM     27  C   UNL     1       0.760  10.771  18.581  0.00  0.00    +0.000 A 
ATOM     28  C   UNL     1       0.956  12.108  18.954  0.00  0.00    +0.000 A 
ATOM     29  C   UNL     1      -0.116  13.004  18.987  0.00  0.00    +0.000 A 
ATOM     30  C   UNL     1      -1.396  12.576  18.637  0.00  0.00    +0.000 A 
ATOM     31  C   UNL     1      -1.600  11.260  18.215  0.00  0.00    +0.000 A 
ATOM     32  C   UNL     1      -0.526  10.359  18.188  0.00  0.00    +0.000 A 
BRANCH  31  33
ATOM     33  C   UNL     1      -2.980  10.848  17.859  0.00  0.00    +0.000 C 
ATOM     34  O   UNL     1      -3.317   9.681  17.752  0.00  0.00    +0.000 OA
BRANCH  33  35
ATOM     35  O   UNL     1      -3.833  11.887  17.737  0.00  0.00    +0.000 OA
ATOM     36  H   UNL     1      -4.231  12.190  18.574  0.00  0.00    +0.000 HD
ENDBRANCH  33  35
ENDBRANCH  31  33
ENDBRANCH  26  27
ENDBRANCH  11  26
TORSDOF 8
ENDMDL
