MODEL 1
REMARK VINA RESULT:      -6.8      0.000      0.000
REMARK  Name = 
REMARK  10 active torsions:
REMARK  status: ('A' for Active; 'I' for Inactive)
REMARK    1  A    between atoms: C_1  and  C_2
REMARK    2  A    between atoms: C_2  and  N_3
REMARK    3  A    between atoms: N_3  and  C_4
REMARK    4  A    between atoms: N_3  and  C_6
REMARK    5  A    between atoms: C_4  and  C_5
REMARK    6  A    between atoms: C_6  and  C_7
REMARK    7  A    between atoms: N_9  and  C_10
REMARK    8  A    between atoms: C_13  and  C_14
REMARK    9  A    between atoms: C_14  and  C_15
REMARK   10  A    between atoms: N_16  and  N_17
REMARK                            x       y       z     vdW  Elec       q    Type
REMARK                         _______ _______ _______ _____ _____    ______ ____
ROOT
ATOM      1  C   UNL     1       4.507   4.189  16.448  0.00  0.00    +0.000 A 
ATOM      2  C   UNL     1       3.309   3.644  16.918  0.00  0.00    +0.000 A 
ATOM      3  C   UNL     1       2.633   4.196  18.013  0.00  0.00    +0.000 A 
ATOM      4  C   UNL     1       3.168   5.296  18.684  0.00  0.00    +0.000 A 
ATOM      5  C   UNL     1       4.371   5.842  18.218  0.00  0.00    +0.000 A 
ATOM      6  C   UNL     1       5.050   5.279  17.123  0.00  0.00    +0.000 A 
ENDROOT
BRANCH   1   9
ATOM      7  C   UNL     1       5.814   4.431  14.347  0.00  0.00    +0.000 C 
ATOM      8  O   UNL     1       6.011   5.651  14.404  0.00  0.00    +0.000 OA
ATOM      9  N   UNL     1       5.182   3.670  15.317  0.00  0.00    +0.000 N 
ATOM     10  H   UNL     1       5.250   2.664  15.202  0.00  0.00    +0.000 HD
BRANCH   7  11
ATOM     11  C   UNL     1       6.366   3.659  13.145  0.00  0.00    +0.000 C 
BRANCH  11  12
ATOM     12  N   UNL     1       5.327   2.916  12.387  0.00  0.00    +0.000 NA
BRANCH  12  14
ATOM     13  C   UNL     1       3.464   3.197  10.705  0.00  0.00    +0.000 C 
ATOM     14  C   UNL     1       4.529   3.857  11.572  0.00  0.00    +0.000 C 
ENDBRANCH  12  14
BRANCH  12  15
ATOM     15  C   UNL     1       5.964   1.854  11.574  0.00  0.00    +0.000 C 
ATOM     16  C   UNL     1       7.414   2.086  11.142  0.00  0.00    +0.000 C 
ENDBRANCH  12  15
ENDBRANCH  11  12
ENDBRANCH   7  11
ENDBRANCH   1   9
BRANCH   4  17
ATOM     17  C   UNL     1       2.440   5.908  19.850  0.00  0.00    +0.000 C 
ATOM     18  C   UNL     1       1.866   4.971  20.897  0.00  0.00    +0.000 C 
ATOM     19  N   UNL     1       2.329   7.203  19.920  0.00  0.00    +0.000 NA
BRANCH  19  20
ATOM     20  N   UNL     1       1.799   7.736  21.078  0.00  0.00    +0.000 N 
ATOM     21  C   UNL     1       1.138   8.927  21.129  0.00  0.00    +0.000 C 
ATOM     22  N   UNL     1       1.047   9.692  22.184  0.00  0.00    +0.000 NA
ATOM     23  C   UNL     1       0.231  10.851  21.719  0.00  0.00    +0.000 C 
ATOM     24  C   UNL     1      -0.128  10.602  20.246  0.00  0.00    +0.000 C 
ATOM     25  N   UNL     1       0.541   9.360  19.989  0.00  0.00    +0.000 N 
ATOM     26  H   UNL     1       2.286   7.563  21.951  0.00  0.00    +0.000 HD
ATOM     27  H   UNL     1       0.141   8.651  19.393  0.00  0.00    +0.000 HD
ENDBRANCH  19  20
ENDBRANCH   4  17
TORSDOF 7
ENDMDL
MODEL 2
REMARK VINA RESULT:      -6.8      0.274      1.004
REMARK  Name = 
REMARK  10 active torsions:
REMARK  status: ('A' for Active; 'I' for Inactive)
REMARK    1  A    between atoms: C_1  and  C_2
REMARK    2  A    between atoms: C_2  and  N_3
REMARK    3  A    between atoms: N_3  and  C_4
REMARK    4  A    between atoms: N_3  and  C_6
REMARK    5  A    between atoms: C_4  and  C_5
REMARK    6  A    between atoms: C_6  and  C_7
REMARK    7  A    between atoms: N_9  and  C_10
REMARK    8  A    between atoms: C_13  and  C_14
REMARK    9  A    between atoms: C_14  and  C_15
REMARK   10  A    between atoms: N_16  and  N_17
REMARK                            x       y       z     vdW  Elec       q    Type
REMARK                         _______ _______ _______ _____ _____    ______ ____
ROOT
ATOM      1  C   UNL     1       4.482   4.365  16.218  0.00  0.00    +0.000 A 
ATOM      2  C   UNL     1       4.846   5.609  16.741  0.00  0.00    +0.000 A 
ATOM      3  C   UNL     1       4.241   6.125  17.894  0.00  0.00    +0.000 A 
ATOM      4  C   UNL     1       3.227   5.411  18.532  0.00  0.00    +0.000 A 
ATOM      5  C   UNL     1       2.856   4.166  18.008  0.00  0.00    +0.000 A 
ATOM      6  C   UNL     1       3.461   3.655  16.846  0.00  0.00    +0.000 A 
ENDROOT
BRANCH   1   9
ATOM      7  C   UNL     1       6.067   4.447  14.305  0.00  0.00    +0.000 C 
ATOM      8  O   UNL     1       6.616   5.521  14.579  0.00  0.00    +0.000 OA
ATOM      9  N   UNL     1       5.111   3.809  15.079  0.00  0.00    +0.000 N 
ATOM     10  H   UNL     1       4.884   2.858  14.805  0.00  0.00    +0.000 HD
BRANCH   7  11
ATOM     11  C   UNL     1       6.513   3.702  13.044  0.00  0.00    +0.000 C 
BRANCH  11  12
ATOM     12  N   UNL     1       5.416   2.955  12.375  0.00  0.00    +0.000 NA
BRANCH  12  14
ATOM     13  C   UNL     1       3.469   3.215  10.788  0.00  0.00    +0.000 C 
ATOM     14  C   UNL     1       4.595   3.883  11.567  0.00  0.00    +0.000 C 
ENDBRANCH  12  14
BRANCH  12  15
ATOM     15  C   UNL     1       5.982   1.846  11.574  0.00  0.00    +0.000 C 
ATOM     16  C   UNL     1       7.424   2.007  11.086  0.00  0.00    +0.000 C 
ENDBRANCH  12  15
ENDBRANCH  11  12
ENDBRANCH   7  11
ENDBRANCH   1   9
BRANCH   4  17
ATOM     17  C   UNL     1       2.584   5.948  19.782  0.00  0.00    +0.000 C 
ATOM     18  C   UNL     1       2.361   4.985  20.934  0.00  0.00    +0.000 C 
ATOM     19  N   UNL     1       2.247   7.204  19.832  0.00  0.00    +0.000 NA
BRANCH  19  20
ATOM     20  N   UNL     1       1.810   7.699  21.045  0.00  0.00    +0.000 N 
ATOM     21  C   UNL     1       1.115   8.864  21.180  0.00  0.00    +0.000 C 
ATOM     22  N   UNL     1       1.098   9.608  22.254  0.00  0.00    +0.000 NA
ATOM     23  C   UNL     1       0.202  10.744  21.889  0.00  0.00    +0.000 C 
ATOM     24  C   UNL     1      -0.285  10.505  20.451  0.00  0.00    +0.000 C 
ATOM     25  N   UNL     1       0.399   9.293  20.110  0.00  0.00    +0.000 N 
ATOM     26  H   UNL     1       2.382   7.530  21.866  0.00  0.00    +0.000 HD
ATOM     27  H   UNL     1      -0.030   8.579  19.540  0.00  0.00    +0.000 HD
ENDBRANCH  19  20
ENDBRANCH   4  17
TORSDOF 7
ENDMDL
MODEL 3
REMARK VINA RESULT:      -6.6      3.041      5.451
REMARK  Name = 
REMARK  10 active torsions:
REMARK  status: ('A' for Active; 'I' for Inactive)
REMARK    1  A    between atoms: C_1  and  C_2
REMARK    2  A    between atoms: C_2  and  N_3
REMARK    3  A    between atoms: N_3  and  C_4
REMARK    4  A    between atoms: N_3  and  C_6
REMARK    5  A    between atoms: C_4  and  C_5
REMARK    6  A    between atoms: C_6  and  C_7
REMARK    7  A    between atoms: N_9  and  C_10
REMARK    8  A    between atoms: C_13  and  C_14
REMARK    9  A    between atoms: C_14  and  C_15
REMARK   10  A    between atoms: N_16  and  N_17
REMARK                            x       y       z     vdW  Elec       q    Type
REMARK                         _______ _______ _______ _____ _____    ______ ____
ROOT
ATOM      1  C   UNL     1       2.446   7.607  18.734  0.00  0.00    +0.000 A 
ATOM      2  C   UNL     1       1.917   8.610  17.917  0.00  0.00    +0.000 A 
ATOM      3  C   UNL     1       1.038   9.577  18.419  0.00  0.00    +0.000 A 
ATOM      4  C   UNL     1       0.641   9.535  19.756  0.00  0.00    +0.000 A 
ATOM      5  C   UNL     1       1.164   8.528  20.576  0.00  0.00    +0.000 A 
ATOM      6  C   UNL     1       2.042   7.555  20.066  0.00  0.00    +0.000 A 
ENDROOT
BRANCH   1   9
ATOM      7  C   UNL     1       3.046   5.358  17.860  0.00  0.00    +0.000 C 
ATOM      8  O   UNL     1       1.901   4.910  17.729  0.00  0.00    +0.000 OA
ATOM      9  N   UNL     1       3.368   6.647  18.254  0.00  0.00    +0.000 N 
ATOM     10  H   UNL     1       4.344   6.909  18.150  0.00  0.00    +0.000 HD
BRANCH   7  11
ATOM     11  C   UNL     1       4.228   4.454  17.499  0.00  0.00    +0.000 C 
BRANCH  11  12
ATOM     12  N   UNL     1       5.413   5.195  16.994  0.00  0.00    +0.000 NA
BRANCH  12  14
ATOM     13  C   UNL     1       7.546   5.747  18.229  0.00  0.00    +0.000 C 
ATOM     14  C   UNL     1       6.642   4.675  17.632  0.00  0.00    +0.000 C 
ENDBRANCH  12  14
BRANCH  12  15
ATOM     15  C   UNL     1       5.459   5.119  15.516  0.00  0.00    +0.000 C 
ATOM     16  C   UNL     1       6.264   3.968  14.906  0.00  0.00    +0.000 C 
ENDBRANCH  12  15
ENDBRANCH  11  12
ENDBRANCH   7  11
ENDBRANCH   1   9
BRANCH   4  17
ATOM     17  C   UNL     1      -0.289  10.580  20.310  0.00  0.00    +0.000 C 
ATOM     18  C   UNL     1      -0.370  10.729  21.819  0.00  0.00    +0.000 C 
ATOM     19  N   UNL     1      -0.983  11.311  19.488  0.00  0.00    +0.000 NA
BRANCH  19  20
ATOM     20  N   UNL     1      -1.701  12.363  20.020  0.00  0.00    +0.000 N 
ATOM     21  C   UNL     1      -1.334  13.670  19.895  0.00  0.00    +0.000 C 
ATOM     22  N   UNL     1      -1.655  14.624  20.728  0.00  0.00    +0.000 NA
ATOM     23  C   UNL     1      -1.019  15.841  20.143  0.00  0.00    +0.000 C 
ATOM     24  C   UNL     1      -0.307  15.413  18.849  0.00  0.00    +0.000 C 
ATOM     25  N   UNL     1      -0.560  14.002  18.831  0.00  0.00    +0.000 N 
ATOM     26  H   UNL     1      -2.190  12.215  20.898  0.00  0.00    +0.000 HD
ATOM     27  H   UNL     1      -0.737  13.502  17.972  0.00  0.00    +0.000 HD
ENDBRANCH  19  20
ENDBRANCH   4  17
TORSDOF 7
ENDMDL
MODEL 4
REMARK VINA RESULT:      -6.6      0.961      1.597
REMARK  Name = 
REMARK  10 active torsions:
REMARK  status: ('A' for Active; 'I' for Inactive)
REMARK    1  A    between atoms: C_1  and  C_2
REMARK    2  A    between atoms: C_2  and  N_3
REMARK    3  A    between atoms: N_3  and  C_4
REMARK    4  A    between atoms: N_3  and  C_6
REMARK    5  A    between atoms: C_4  and  C_5
REMARK    6  A    between atoms: C_6  and  C_7
REMARK    7  A    between atoms: N_9  and  C_10
REMARK    8  A    between atoms: C_13  and  C_14
REMARK    9  A    between atoms: C_14  and  C_15
REMARK   10  A    between atoms: N_16  and  N_17
REMARK                            x       y       z     vdW  Elec       q    Type
REMARK                         _______ _______ _______ _____ _____    ______ ____
ROOT
ATOM      1  C   UNL     1       4.599   4.282  17.081  0.00  0.00    +0.000 A 
ATOM      2  C   UNL     1       3.206   4.171  17.078  0.00  0.00    +0.000 A 
ATOM      3  C   UNL     1       2.423   4.742  18.088  0.00  0.00    +0.000 A 
ATOM      4  C   UNL     1       3.031   5.416  19.148  0.00  0.00    +0.000 A 
ATOM      5  C   UNL     1       4.426   5.525  19.157  0.00  0.00    +0.000 A 
ATOM      6  C   UNL     1       5.209   4.943  18.145  0.00  0.00    +0.000 A 
ENDROOT
BRANCH   1   9
ATOM      7  C   UNL     1       5.834   4.445  14.930  0.00  0.00    +0.000 C 
ATOM      8  O   UNL     1       5.708   5.663  14.748  0.00  0.00    +0.000 OA
ATOM      9  N   UNL     1       5.404   3.748  16.047  0.00  0.00    +0.000 N 
ATOM     10  H   UNL     1       5.731   2.789  16.121  0.00  0.00    +0.000 HD
BRANCH   7  11
ATOM     11  C   UNL     1       6.586   3.625  13.878  0.00  0.00    +0.000 C 
BRANCH  11  12
ATOM     12  N   UNL     1       6.236   3.985  12.480  0.00  0.00    +0.000 NA
BRANCH  12  14
ATOM     13  C   UNL     1       8.157   5.624  12.407  0.00  0.00    +0.000 C 
ATOM     14  C   UNL     1       7.445   4.443  11.760  0.00  0.00    +0.000 C 
ENDBRANCH  12  14
BRANCH  12  15
ATOM     15  C   UNL     1       5.576   2.838  11.817  0.00  0.00    +0.000 C 
ATOM     16  C   UNL     1       4.169   3.073  11.261  0.00  0.00    +0.000 C 
ENDBRANCH  12  15
ENDBRANCH  11  12
ENDBRANCH   7  11
ENDBRANCH   1   9
BRANCH   4  17
ATOM     17  C   UNL     1       2.197   6.050  20.229  0.00  0.00    +0.000 C 
ATOM     18  C   UNL     1       1.503   5.131  21.219  0.00  0.00    +0.000 C 
ATOM     19  N   UNL     1       2.100   7.346  20.277  0.00  0.00    +0.000 NA
BRANCH  19  20
ATOM     20  N   UNL     1       1.463   7.898  21.371  0.00  0.00    +0.000 N 
ATOM     21  C   UNL     1       0.819   9.100  21.345  0.00  0.00    +0.000 C 
ATOM     22  N   UNL     1       0.633   9.875  22.379  0.00  0.00    +0.000 NA
ATOM     23  C   UNL     1      -0.113  11.042  21.824  0.00  0.00    +0.000 C 
ATOM     24  C   UNL     1      -0.323  10.784  20.324  0.00  0.00    +0.000 C 
ATOM     25  N   UNL     1       0.348   9.530  20.147  0.00  0.00    +0.000 N 
ATOM     26  H   UNL     1       1.855   7.726  22.291  0.00  0.00    +0.000 HD
ATOM     27  H   UNL     1       0.001   8.822  19.519  0.00  0.00    +0.000 HD
ENDBRANCH  19  20
ENDBRANCH   4  17
TORSDOF 7
ENDMDL
MODEL 5
REMARK VINA RESULT:      -6.6      3.518      5.815
REMARK  Name = 
REMARK  10 active torsions:
REMARK  status: ('A' for Active; 'I' for Inactive)
REMARK    1  A    between atoms: C_1  and  C_2
REMARK    2  A    between atoms: C_2  and  N_3
REMARK    3  A    between atoms: N_3  and  C_4
REMARK    4  A    between atoms: N_3  and  C_6
REMARK    5  A    between atoms: C_4  and  C_5
REMARK    6  A    between atoms: C_6  and  C_7
REMARK    7  A    between atoms: N_9  and  C_10
REMARK    8  A    between atoms: C_13  and  C_14
REMARK    9  A    between atoms: C_14  and  C_15
REMARK   10  A    between atoms: N_16  and  N_17
REMARK                            x       y       z     vdW  Elec       q    Type
REMARK                         _______ _______ _______ _____ _____    ______ ____
ROOT
ATOM      1  C   UNL     1       2.378   6.712  19.352  0.00  0.00    +0.000 A 
ATOM      2  C   UNL     1       2.495   7.357  18.118  0.00  0.00    +0.000 A 
ATOM      3  C   UNL     1       2.072   8.680  17.939  0.00  0.00    +0.000 A 
ATOM      4  C   UNL     1       1.488   9.377  18.998  0.00  0.00    +0.000 A 
ATOM      5  C   UNL     1       1.364   8.732  20.234  0.00  0.00    +0.000 A 
ATOM      6  C   UNL     1       1.784   7.401  20.407  0.00  0.00    +0.000 A 
ENDROOT
BRANCH   1   9
ATOM      7  C   UNL     1       4.156   4.976  19.442  0.00  0.00    +0.000 C 
ATOM      8  O   UNL     1       5.133   5.719  19.285  0.00  0.00    +0.000 OA
ATOM      9  N   UNL     1       2.838   5.391  19.562  0.00  0.00    +0.000 N 
ATOM     10  H   UNL     1       2.177   4.678  19.855  0.00  0.00    +0.000 HD
BRANCH   7  11
ATOM     11  C   UNL     1       4.399   3.472  19.588  0.00  0.00    +0.000 C 
BRANCH  11  12
ATOM     12  N   UNL     1       4.093   2.696  18.359  0.00  0.00    +0.000 NA
BRANCH  12  14
ATOM     13  C   UNL     1       1.584   2.408  18.310  0.00  0.00    +0.000 C 
ATOM     14  C   UNL     1       2.947   1.794  18.604  0.00  0.00    +0.000 C 
ENDBRANCH  12  14
BRANCH  12  15
ATOM     15  C   UNL     1       3.859   3.622  17.228  0.00  0.00    +0.000 C 
ATOM     16  C   UNL     1       5.023   3.842  16.258  0.00  0.00    +0.000 C 
ENDBRANCH  12  15
ENDBRANCH  11  12
ENDBRANCH   7  11
ENDBRANCH   1   9
BRANCH   4  17
ATOM     17  C   UNL     1       1.047  10.805  18.821  0.00  0.00    +0.000 C 
ATOM     18  C   UNL     1      -0.310  11.201  19.375  0.00  0.00    +0.000 C 
ATOM     19  N   UNL     1       1.834  11.640  18.208  0.00  0.00    +0.000 NA
BRANCH  19  20
ATOM     20  N   UNL     1       1.472  12.973  18.205  0.00  0.00    +0.000 N 
ATOM     21  C   UNL     1       2.365  14.000  18.282  0.00  0.00    +0.000 C 
ATOM     22  N   UNL     1       2.104  15.189  18.755  0.00  0.00    +0.000 NA
ATOM     23  C   UNL     1       3.395  15.924  18.612  0.00  0.00    +0.000 C 
ATOM     24  C   UNL     1       4.407  14.959  17.973  0.00  0.00    +0.000 C 
ATOM     25  N   UNL     1       3.629  13.762  17.847  0.00  0.00    +0.000 N 
ATOM     26  H   UNL     1       0.595  13.232  18.646  0.00  0.00    +0.000 HD
ATOM     27  H   UNL     1       3.724  13.144  17.056  0.00  0.00    +0.000 HD
ENDBRANCH  19  20
ENDBRANCH   4  17
TORSDOF 7
ENDMDL
MODEL 6
REMARK VINA RESULT:      -6.6      6.064      8.648
REMARK  Name = 
REMARK  10 active torsions:
REMARK  status: ('A' for Active; 'I' for Inactive)
REMARK    1  A    between atoms: C_1  and  C_2
REMARK    2  A    between atoms: C_2  and  N_3
REMARK    3  A    between atoms: N_3  and  C_4
REMARK    4  A    between atoms: N_3  and  C_6
REMARK    5  A    between atoms: C_4  and  C_5
REMARK    6  A    between atoms: C_6  and  C_7
REMARK    7  A    between atoms: N_9  and  C_10
REMARK    8  A    between atoms: C_13  and  C_14
REMARK    9  A    between atoms: C_14  and  C_15
REMARK   10  A    between atoms: N_16  and  N_17
REMARK                            x       y       z     vdW  Elec       q    Type
REMARK                         _______ _______ _______ _____ _____    ______ ____
ROOT
ATOM      1  C   UNL     1       8.274   8.708  18.147  0.00  0.00    +0.000 A 
ATOM      2  C   UNL     1       8.643   7.622  18.946  0.00  0.00    +0.000 A 
ATOM      3  C   UNL     1       7.966   6.398  18.876  0.00  0.00    +0.000 A 
ATOM      4  C   UNL     1       6.877   6.249  18.017  0.00  0.00    +0.000 A 
ATOM      5  C   UNL     1       6.502   7.336  17.219  0.00  0.00    +0.000 A 
ATOM      6  C   UNL     1       7.179   8.566  17.298  0.00  0.00    +0.000 A 
ENDROOT
BRANCH   1   9
ATOM      7  C   UNL     1       9.245  10.676  19.316  0.00  0.00    +0.000 C 
ATOM      8  O   UNL     1       9.055  10.299  20.479  0.00  0.00    +0.000 OA
ATOM      9  N   UNL     1       8.972   9.939  18.174  0.00  0.00    +0.000 N 
ATOM     10  H   UNL     1       9.340  10.317  17.307  0.00  0.00    +0.000 HD
BRANCH   7  11
ATOM     11  C   UNL     1       9.899  12.042  19.089  0.00  0.00    +0.000 C 
BRANCH  11  12
ATOM     12  N   UNL     1       9.496  12.691  17.815  0.00  0.00    +0.000 NA
BRANCH  12  14
ATOM     13  C   UNL     1       9.142  15.166  18.177  0.00  0.00    +0.000 C 
ATOM     14  C   UNL     1       8.527  13.775  18.086  0.00  0.00    +0.000 C 
ENDBRANCH  12  14
BRANCH  12  15
ATOM     15  C   UNL     1      10.698  13.167  17.094  0.00  0.00    +0.000 C 
ATOM     16  C   UNL     1      12.058  12.790  17.687  0.00  0.00    +0.000 C 
ENDBRANCH  12  15
ENDBRANCH  11  12
ENDBRANCH   7  11
ENDBRANCH   1   9
BRANCH   4  17
ATOM     17  C   UNL     1       6.155   4.932  17.921  0.00  0.00    +0.000 C 
ATOM     18  C   UNL     1       6.098   4.253  16.564  0.00  0.00    +0.000 C 
ATOM     19  N   UNL     1       5.612   4.426  18.989  0.00  0.00    +0.000 NA
BRANCH  19  20
ATOM     20  N   UNL     1       5.101   3.147  18.901  0.00  0.00    +0.000 N 
ATOM     21  C   UNL     1       3.767   2.865  18.877  0.00  0.00    +0.000 C 
ATOM     22  N   UNL     1       3.229   1.741  19.270  0.00  0.00    +0.000 NA
ATOM     23  C   UNL     1       1.769   1.940  19.037  0.00  0.00    +0.000 C 
ATOM     24  C   UNL     1       1.584   3.345  18.440  0.00  0.00    +0.000 C 
ATOM     25  N   UNL     1       2.932   3.834  18.424  0.00  0.00    +0.000 N 
ATOM     26  H   UNL     1       5.614   2.393  19.347  0.00  0.00    +0.000 HD
ATOM     27  H   UNL     1       3.280   4.416  17.677  0.00  0.00    +0.000 HD
ENDBRANCH  19  20
ENDBRANCH   4  17
TORSDOF 7
ENDMDL
MODEL 7
REMARK VINA RESULT:      -6.6      3.629      5.835
REMARK  Name = 
REMARK  10 active torsions:
REMARK  status: ('A' for Active; 'I' for Inactive)
REMARK    1  A    between atoms: C_1  and  C_2
REMARK    2  A    between atoms: C_2  and  N_3
REMARK    3  A    between atoms: N_3  and  C_4
REMARK    4  A    between atoms: N_3  and  C_6
REMARK    5  A    between atoms: C_4  and  C_5
REMARK    6  A    between atoms: C_6  and  C_7
REMARK    7  A    between atoms: N_9  and  C_10
REMARK    8  A    between atoms: C_13  and  C_14
REMARK    9  A    between atoms: C_14  and  C_15
REMARK   10  A    between atoms: N_16  and  N_17
REMARK                            x       y       z     vdW  Elec       q    Type
REMARK                         _______ _______ _______ _____ _____    ______ ____
ROOT
ATOM      1  C   UNL     1       2.340   6.821  19.133  0.00  0.00    +0.000 A 
ATOM      2  C   UNL     1       1.774   7.515  20.206  0.00  0.00    +0.000 A 
ATOM      3  C   UNL     1       1.381   8.854  20.087  0.00  0.00    +0.000 A 
ATOM      4  C   UNL     1       1.581   9.538  18.888  0.00  0.00    +0.000 A 
ATOM      5  C   UNL     1       2.152   8.848  17.812  0.00  0.00    +0.000 A 
ATOM      6  C   UNL     1       2.552   7.506  17.938  0.00  0.00    +0.000 A 
ENDROOT
BRANCH   1   9
ATOM      7  C   UNL     1       4.003   4.981  19.292  0.00  0.00    +0.000 C 
ATOM      8  O   UNL     1       5.017   5.674  19.439  0.00  0.00    +0.000 OA
ATOM      9  N   UNL     1       2.704   5.457  19.221  0.00  0.00    +0.000 N 
ATOM     10  H   UNL     1       1.974   4.753  19.271  0.00  0.00    +0.000 HD
BRANCH   7  11
ATOM     11  C   UNL     1       4.161   3.458  19.249  0.00  0.00    +0.000 C 
BRANCH  11  12
ATOM     12  N   UNL     1       3.882   2.867  17.915  0.00  0.00    +0.000 NA
BRANCH  12  14
ATOM     13  C   UNL     1       1.886   1.988  19.188  0.00  0.00    +0.000 C 
ATOM     14  C   UNL     1       2.476   2.413  17.850  0.00  0.00    +0.000 C 
ENDBRANCH  12  14
BRANCH  12  15
ATOM     15  C   UNL     1       4.218   3.844  16.855  0.00  0.00    +0.000 C 
ATOM     16  C   UNL     1       5.596   3.713  16.202  0.00  0.00    +0.000 C 
ENDBRANCH  12  15
ENDBRANCH  11  12
ENDBRANCH   7  11
ENDBRANCH   1   9
BRANCH   4  17
ATOM     17  C   UNL     1       1.145  10.971  18.745  0.00  0.00    +0.000 C 
ATOM     18  C   UNL     1      -0.245  11.341  19.232  0.00  0.00    +0.000 C 
ATOM     19  N   UNL     1       1.963  11.833  18.216  0.00  0.00    +0.000 NA
BRANCH  19  20
ATOM     20  N   UNL     1       1.596  13.164  18.247  0.00  0.00    +0.000 N 
ATOM     21  C   UNL     1       2.489  14.195  18.280  0.00  0.00    +0.000 C 
ATOM     22  N   UNL     1       2.251  15.378  18.779  0.00  0.00    +0.000 NA
ATOM     23  C   UNL     1       3.528  16.120  18.566  0.00  0.00    +0.000 C 
ATOM     24  C   UNL     1       4.504  15.166  17.859  0.00  0.00    +0.000 C 
ATOM     25  N   UNL     1       3.725  13.967  17.769  0.00  0.00    +0.000 N 
ATOM     26  H   UNL     1       0.747  13.416  18.742  0.00  0.00    +0.000 HD
ATOM     27  H   UNL     1       3.775  13.356  16.968  0.00  0.00    +0.000 HD
ENDBRANCH  19  20
ENDBRANCH   4  17
TORSDOF 7
ENDMDL
MODEL 8
REMARK VINA RESULT:      -6.6      4.364      6.869
REMARK  Name = 
REMARK  10 active torsions:
REMARK  status: ('A' for Active; 'I' for Inactive)
REMARK    1  A    between atoms: C_1  and  C_2
REMARK    2  A    between atoms: C_2  and  N_3
REMARK    3  A    between atoms: N_3  and  C_4
REMARK    4  A    between atoms: N_3  and  C_6
REMARK    5  A    between atoms: C_4  and  C_5
REMARK    6  A    between atoms: C_6  and  C_7
REMARK    7  A    between atoms: N_9  and  C_10
REMARK    8  A    between atoms: C_13  and  C_14
REMARK    9  A    between atoms: C_14  and  C_15
REMARK   10  A    between atoms: N_16  and  N_17
REMARK                            x       y       z     vdW  Elec       q    Type
REMARK                         _______ _______ _______ _____ _____    ______ ____
ROOT
ATOM      1  C   UNL     1       1.898   7.804  20.011  0.00  0.00    +0.000 A 
ATOM      2  C   UNL     1       1.750   8.675  18.928  0.00  0.00    +0.000 A 
ATOM      3  C   UNL     1       0.882   9.772  18.983  0.00  0.00    +0.000 A 
ATOM      4  C   UNL     1       0.114  10.000  20.125  0.00  0.00    +0.000 A 
ATOM      5  C   UNL     1       0.255   9.126  21.210  0.00  0.00    +0.000 A 
ATOM      6  C   UNL     1       1.123   8.022  21.148  0.00  0.00    +0.000 A 
ENDROOT
BRANCH   1   9
ATOM      7  C   UNL     1       2.727   5.634  19.126  0.00  0.00    +0.000 C 
ATOM      8  O   UNL     1       1.960   5.536  18.160  0.00  0.00    +0.000 OA
ATOM      9  N   UNL     1       2.802   6.715  19.989  0.00  0.00    +0.000 N 
ATOM     10  H   UNL     1       3.593   6.717  20.625  0.00  0.00    +0.000 HD
BRANCH   7  11
ATOM     11  C   UNL     1       3.737   4.510  19.371  0.00  0.00    +0.000 C 
BRANCH  11  12
ATOM     12  N   UNL     1       3.166   3.342  20.090  0.00  0.00    +0.000 NA
BRANCH  12  14
ATOM     13  C   UNL     1       1.417   2.680  21.787  0.00  0.00    +0.000 C 
ATOM     14  C   UNL     1       2.181   3.801  21.094  0.00  0.00    +0.000 C 
ENDBRANCH  12  14
BRANCH  12  15
ATOM     15  C   UNL     1       2.589   2.388  19.117  0.00  0.00    +0.000 C 
ATOM     16  C   UNL     1       3.542   1.799  18.074  0.00  0.00    +0.000 C 
ENDBRANCH  12  15
ENDBRANCH  11  12
ENDBRANCH   7  11
ENDBRANCH   1   9
BRANCH   4  17
ATOM     17  C   UNL     1      -0.809  11.186  20.201  0.00  0.00    +0.000 C 
ATOM     18  C   UNL     1      -0.992  12.022  18.946  0.00  0.00    +0.000 C 
ATOM     19  N   UNL     1      -1.409  11.452  21.324  0.00  0.00    +0.000 NA
BRANCH  19  20
ATOM     20  N   UNL     1      -2.367  12.446  21.315  0.00  0.00    +0.000 N 
ATOM     21  C   UNL     1      -3.324  12.584  22.277  0.00  0.00    +0.000 C 
ATOM     22  N   UNL     1      -4.490  13.147  22.103  0.00  0.00    +0.000 NA
ATOM     23  C   UNL     1      -5.141  13.046  23.441  0.00  0.00    +0.000 C 
ATOM     24  C   UNL     1      -4.148  12.352  24.387  0.00  0.00    +0.000 C 
ATOM     25  N   UNL     1      -3.048  12.084  23.508  0.00  0.00    +0.000 N 
ATOM     26  H   UNL     1      -2.720  12.765  20.418  0.00  0.00    +0.000 HD
ATOM     27  H   UNL     1      -2.089  12.149  23.816  0.00  0.00    +0.000 HD
ENDBRANCH  19  20
ENDBRANCH   4  17
TORSDOF 7
ENDMDL
MODEL 9
REMARK VINA RESULT:      -6.5      4.394      7.222
REMARK  Name = 
REMARK  10 active torsions:
REMARK  status: ('A' for Active; 'I' for Inactive)
REMARK    1  A    between atoms: C_1  and  C_2
REMARK    2  A    between atoms: C_2  and  N_3
REMARK    3  A    between atoms: N_3  and  C_4
REMARK    4  A    between atoms: N_3  and  C_6
REMARK    5  A    between atoms: C_4  and  C_5
REMARK    6  A    between atoms: C_6  and  C_7
REMARK    7  A    between atoms: N_9  and  C_10
REMARK    8  A    between atoms: C_13  and  C_14
REMARK    9  A    between atoms: C_14  and  C_15
REMARK   10  A    between atoms: N_16  and  N_17
REMARK                            x       y       z     vdW  Elec       q    Type
REMARK                         _______ _______ _______ _____ _____    ______ ____
ROOT
ATOM      1  C   UNL     1       1.661   8.300  19.627  0.00  0.00    +0.000 A 
ATOM      2  C   UNL     1       0.786   8.700  20.641  0.00  0.00    +0.000 A 
ATOM      3  C   UNL     1      -0.230   9.635  20.406  0.00  0.00    +0.000 A 
ATOM      4  C   UNL     1      -0.367  10.217  19.146  0.00  0.00    +0.000 A 
ATOM      5  C   UNL     1       0.511   9.823  18.129  0.00  0.00    +0.000 A 
ATOM      6  C   UNL     1       1.534   8.889  18.371  0.00  0.00    +0.000 A 
ENDROOT
BRANCH   1   9
ATOM      7  C   UNL     1       2.834   6.179  19.075  0.00  0.00    +0.000 C 
ATOM      8  O   UNL     1       2.235   5.917  18.024  0.00  0.00    +0.000 OA
ATOM      9  N   UNL     1       2.665   7.326  19.835  0.00  0.00    +0.000 N 
ATOM     10  H   UNL     1       3.348   7.470  20.572  0.00  0.00    +0.000 HD
BRANCH   7  11
ATOM     11  C   UNL     1       3.908   5.204  19.565  0.00  0.00    +0.000 C 
BRANCH  11  12
ATOM     12  N   UNL     1       3.396   3.832  19.815  0.00  0.00    +0.000 NA
BRANCH  12  14
ATOM     13  C   UNL     1       1.785   3.116  21.624  0.00  0.00    +0.000 C 
ATOM     14  C   UNL     1       2.013   3.897  20.336  0.00  0.00    +0.000 C 
ENDBRANCH  12  14
BRANCH  12  15
ATOM     15  C   UNL     1       3.505   3.023  18.580  0.00  0.00    +0.000 C 
ATOM     16  C   UNL     1       2.219   2.373  18.061  0.00  0.00    +0.000 C 
ENDBRANCH  12  15
ENDBRANCH  11  12
ENDBRANCH   7  11
ENDBRANCH   1   9
BRANCH   4  17
ATOM     17  C   UNL     1      -1.467  11.209  18.878  0.00  0.00    +0.000 C 
ATOM     18  C   UNL     1      -1.459  12.505  19.669  0.00  0.00    +0.000 C 
ATOM     19  N   UNL     1      -2.375  10.926  17.991  0.00  0.00    +0.000 NA
BRANCH  19  20
ATOM     20  N   UNL     1      -3.272  11.920  17.656  0.00  0.00    +0.000 N 
ATOM     21  C   UNL     1      -4.624  11.793  17.778  0.00  0.00    +0.000 C 
ATOM     22  N   UNL     1      -5.507  12.445  17.070  0.00  0.00    +0.000 NA
ATOM     23  C   UNL     1      -6.817  11.952  17.588  0.00  0.00    +0.000 C 
ATOM     24  C   UNL     1      -6.521  10.937  18.702  0.00  0.00    +0.000 C 
ATOM     25  N   UNL     1      -5.088  10.907  18.695  0.00  0.00    +0.000 N 
ATOM     26  H   UNL     1      -3.043  12.531  16.878  0.00  0.00    +0.000 HD
ATOM     27  H   UNL     1      -4.551  10.815  19.544  0.00  0.00    +0.000 HD
ENDBRANCH  19  20
ENDBRANCH   4  17
TORSDOF 7
ENDMDL
