MODEL 1
REMARK VINA RESULT:      -7.3      0.000      0.000
REMARK  Name = 
REMARK  7 active torsions:
REMARK  status: ('A' for Active; 'I' for Inactive)
REMARK    1  A    between atoms: C_1  and  C_2
REMARK    2  A    between atoms: C_5  and  C_6
REMARK    3  A    between atoms: C_12  and  C_14
REMARK    4  A    between atoms: C_14  and  O_15
REMARK    5  A    between atoms: O_15  and  C_16
REMARK    6  A    between atoms: C_16  and  C_17
REMARK    7  A    between atoms: C_19  and  C_20
REMARK                            x       y       z     vdW  Elec       q    Type
REMARK                         _______ _______ _______ _____ _____    ______ ____
ROOT
ATOM      1  C   UNL     1       3.910   4.331  19.211  0.00  0.00    +0.000 C 
ATOM      2  C   UNL     1       3.222   2.956  19.051  0.00  0.00    +0.000 C 
ATOM      3  C   UNL     1       2.257   2.658  20.193  0.00  0.00    +0.000 C 
ATOM      4  C   UNL     1       1.260   3.792  20.363  0.00  0.00    +0.000 C 
ATOM      5  C   UNL     1       1.966   5.134  20.517  0.00  0.00    +0.000 C 
ATOM      6  N   UNL     1       2.885   5.400  19.405  0.00  0.00    +0.000 N 
ATOM      7  C   UNL     1       2.934   6.629  18.737  0.00  0.00    +0.000 C 
ATOM      8  O   UNL     1       3.655   6.835  17.764  0.00  0.00    +0.000 OA
ENDROOT
BRANCH   1  13
ATOM      9  C   UNL     1       5.946   3.984  14.693  0.00  0.00    +0.000 C 
ATOM     10  C   UNL     1       5.929   4.359  16.128  0.00  0.00    +0.000 A 
ATOM     11  C   UNL     1       6.947   4.961  16.839  0.00  0.00    +0.000 A 
ATOM     12  S   UNL     1       6.485   5.179  18.471  0.00  0.00    +0.000 S 
ATOM     13  C   UNL     1       4.930   4.514  18.107  0.00  0.00    +0.000 A 
ATOM     14  N   UNL     1       4.791   4.081  16.866  0.00  0.00    +0.000 NA
ENDBRANCH   1  13
BRANCH   7  15
ATOM     15  C   UNL     1       2.030   7.766  19.255  0.00  0.00    +0.000 C 
BRANCH  15  16
ATOM     16  O   UNL     1       2.121   8.917  18.422  0.00  0.00    +0.000 OA
BRANCH  16  17
ATOM     17  C   UNL     1       0.881   9.609  18.321  0.00  0.00    +0.000 C 
BRANCH  17  18
ATOM     18  C   UNL     1       0.575  10.152  19.662  0.00  0.00    +0.000 A 
ATOM     19  N   UNL     1      -0.327   9.776  20.545  0.00  0.00    +0.000 NA
ATOM     20  C   UNL     1      -0.076  10.630  21.586  0.00  0.00    +0.000 A 
ATOM     21  C   UNL     1      -0.801  10.555  22.866  0.00  0.00    +0.000 C 
ATOM     22  N   UNL     1       0.887  11.535  21.363  0.00  0.00    +0.000 NA
ATOM     23  O   UNL     1       1.331  11.210  20.079  0.00  0.00    +0.000 OA
ENDBRANCH  17  18
ENDBRANCH  16  17
ENDBRANCH  15  16
ENDBRANCH   7  15
TORSDOF 5
ENDMDL
MODEL 2
REMARK VINA RESULT:      -7.3      1.587      1.867
REMARK  Name = 
REMARK  7 active torsions:
REMARK  status: ('A' for Active; 'I' for Inactive)
REMARK    1  A    between atoms: C_1  and  C_2
REMARK    2  A    between atoms: C_5  and  C_6
REMARK    3  A    between atoms: C_12  and  C_14
REMARK    4  A    between atoms: C_14  and  O_15
REMARK    5  A    between atoms: O_15  and  C_16
REMARK    6  A    between atoms: C_16  and  C_17
REMARK    7  A    between atoms: C_19  and  C_20
REMARK                            x       y       z     vdW  Elec       q    Type
REMARK                         _______ _______ _______ _____ _____    ______ ____
ROOT
ATOM      1  C   UNL     1       3.915   4.398  19.271  0.00  0.00    +0.000 C 
ATOM      2  C   UNL     1       3.203   3.033  19.139  0.00  0.00    +0.000 C 
ATOM      3  C   UNL     1       2.180   2.807  20.247  0.00  0.00    +0.000 C 
ATOM      4  C   UNL     1       1.204   3.970  20.322  0.00  0.00    +0.000 C 
ATOM      5  C   UNL     1       1.935   5.302  20.449  0.00  0.00    +0.000 C 
ATOM      6  N   UNL     1       2.908   5.497  19.369  0.00  0.00    +0.000 N 
ATOM      7  C   UNL     1       3.017   6.693  18.652  0.00  0.00    +0.000 C 
ATOM      8  O   UNL     1       3.786   6.839  17.704  0.00  0.00    +0.000 OA
ENDROOT
BRANCH   1  13
ATOM      9  C   UNL     1       6.109   3.879  14.843  0.00  0.00    +0.000 C 
ATOM     10  C   UNL     1       6.056   4.272  16.273  0.00  0.00    +0.000 A 
ATOM     11  C   UNL     1       7.077   4.824  17.018  0.00  0.00    +0.000 A 
ATOM     12  S   UNL     1       6.562   5.089  18.628  0.00  0.00    +0.000 S 
ATOM     13  C   UNL     1       4.988   4.509  18.207  0.00  0.00    +0.000 A 
ATOM     14  N   UNL     1       4.875   4.069  16.966  0.00  0.00    +0.000 NA
ENDBRANCH   1  13
BRANCH   7  15
ATOM     15  C   UNL     1       2.118   7.872  19.077  0.00  0.00    +0.000 C 
BRANCH  15  16
ATOM     16  O   UNL     1       1.708   8.641  17.950  0.00  0.00    +0.000 OA
BRANCH  16  17
ATOM     17  C   UNL     1       1.498  10.010  18.279  0.00  0.00    +0.000 C 
BRANCH  17  18
ATOM     18  C   UNL     1       0.037  10.230  18.314  0.00  0.00    +0.000 A 
ATOM     19  N   UNL     1      -0.909   9.785  17.512  0.00  0.00    +0.000 NA
ATOM     20  C   UNL     1      -2.037  10.293  18.098  0.00  0.00    +0.000 A 
ATOM     21  C   UNL     1      -3.391  10.006  17.593  0.00  0.00    +0.000 C 
ATOM     22  N   UNL     1      -1.825  11.063  19.174  0.00  0.00    +0.000 NA
ATOM     23  O   UNL     1      -0.438  11.014  19.326  0.00  0.00    +0.000 OA
ENDBRANCH  17  18
ENDBRANCH  16  17
ENDBRANCH  15  16
ENDBRANCH   7  15
TORSDOF 5
ENDMDL
MODEL 3
REMARK VINA RESULT:      -7.2      1.064      1.247
REMARK  Name = 
REMARK  7 active torsions:
REMARK  status: ('A' for Active; 'I' for Inactive)
REMARK    1  A    between atoms: C_1  and  C_2
REMARK    2  A    between atoms: C_5  and  C_6
REMARK    3  A    between atoms: C_12  and  C_14
REMARK    4  A    between atoms: C_14  and  O_15
REMARK    5  A    between atoms: O_15  and  C_16
REMARK    6  A    between atoms: C_16  and  C_17
REMARK    7  A    between atoms: C_19  and  C_20
REMARK                            x       y       z     vdW  Elec       q    Type
REMARK                         _______ _______ _______ _____ _____    ______ ____
ROOT
ATOM      1  C   UNL     1       4.079   4.183  18.876  0.00  0.00    +0.000 C 
ATOM      2  C   UNL     1       3.353   2.829  18.709  0.00  0.00    +0.000 C 
ATOM      3  C   UNL     1       2.353   2.570  19.830  0.00  0.00    +0.000 C 
ATOM      4  C   UNL     1       1.388   3.736  19.970  0.00  0.00    +0.000 C 
ATOM      5  C   UNL     1       2.132   5.056  20.131  0.00  0.00    +0.000 C 
ATOM      6  N   UNL     1       3.084   5.285  19.038  0.00  0.00    +0.000 N 
ATOM      7  C   UNL     1       3.187   6.507  18.364  0.00  0.00    +0.000 C 
ATOM      8  O   UNL     1       3.937   6.683  17.406  0.00  0.00    +0.000 OA
ENDROOT
BRANCH   1  13
ATOM      9  C   UNL     1       6.166   3.832  14.381  0.00  0.00    +0.000 C 
ATOM     10  C   UNL     1       6.150   4.161  15.828  0.00  0.00    +0.000 A 
ATOM     11  C   UNL     1       7.197   4.664  16.573  0.00  0.00    +0.000 A 
ATOM     12  S   UNL     1       6.722   4.865  18.205  0.00  0.00    +0.000 S 
ATOM     13  C   UNL     1       5.130   4.326  17.794  0.00  0.00    +0.000 A 
ATOM     14  N   UNL     1       4.983   3.944  16.538  0.00  0.00    +0.000 NA
ENDBRANCH   1  13
BRANCH   7  15
ATOM     15  C   UNL     1       2.307   7.675  18.853  0.00  0.00    +0.000 C 
BRANCH  15  16
ATOM     16  O   UNL     1       1.767   8.407  17.758  0.00  0.00    +0.000 OA
BRANCH  16  17
ATOM     17  C   UNL     1       1.917   9.814  17.922  0.00  0.00    +0.000 C 
BRANCH  17  18
ATOM     18  C   UNL     1       0.751  10.288  18.698  0.00  0.00    +0.000 A 
ATOM     19  N   UNL     1       0.692  10.834  19.895  0.00  0.00    +0.000 NA
ATOM     20  C   UNL     1      -0.647  11.088  20.024  0.00  0.00    +0.000 A 
ATOM     21  C   UNL     1      -1.215  11.774  21.198  0.00  0.00    +0.000 C 
ATOM     22  N   UNL     1      -1.408  10.679  19.000  0.00  0.00    +0.000 NA
ATOM     23  O   UNL     1      -0.473  10.151  18.106  0.00  0.00    +0.000 OA
ENDBRANCH  17  18
ENDBRANCH  16  17
ENDBRANCH  15  16
ENDBRANCH   7  15
TORSDOF 5
ENDMDL
MODEL 4
REMARK VINA RESULT:      -7.2      1.575      1.993
REMARK  Name = 
REMARK  7 active torsions:
REMARK  status: ('A' for Active; 'I' for Inactive)
REMARK    1  A    between atoms: C_1  and  C_2
REMARK    2  A    between atoms: C_5  and  C_6
REMARK    3  A    between atoms: C_12  and  C_14
REMARK    4  A    between atoms: C_14  and  O_15
REMARK    5  A    between atoms: O_15  and  C_16
REMARK    6  A    between atoms: C_16  and  C_17
REMARK    7  A    between atoms: C_19  and  C_20
REMARK                            x       y       z     vdW  Elec       q    Type
REMARK                         _______ _______ _______ _____ _____    ______ ____
ROOT
ATOM      1  C   UNL     1       3.519   4.147  19.126  0.00  0.00    +0.000 C 
ATOM      2  C   UNL     1       2.703   2.892  18.745  0.00  0.00    +0.000 C 
ATOM      3  C   UNL     1       1.712   2.496  19.835  0.00  0.00    +0.000 C 
ATOM      4  C   UNL     1       0.829   3.674  20.211  0.00  0.00    +0.000 C 
ATOM      5  C   UNL     1       1.661   4.897  20.579  0.00  0.00    +0.000 C 
ATOM      6  N   UNL     1       2.601   5.260  19.513  0.00  0.00    +0.000 N 
ATOM      7  C   UNL     1       2.770   6.574  19.063  0.00  0.00    +0.000 C 
ATOM      8  O   UNL     1       3.508   6.874  18.128  0.00  0.00    +0.000 OA
ENDROOT
BRANCH   1  13
ATOM      9  C   UNL     1       5.532   4.340  14.588  0.00  0.00    +0.000 C 
ATOM     10  C   UNL     1       5.541   4.491  16.064  0.00  0.00    +0.000 A 
ATOM     11  C   UNL     1       6.602   4.897  16.848  0.00  0.00    +0.000 A 
ATOM     12  S   UNL     1       6.154   4.898  18.499  0.00  0.00    +0.000 S 
ATOM     13  C   UNL     1       4.553   4.418  18.052  0.00  0.00    +0.000 A 
ATOM     14  N   UNL     1       4.384   4.192  16.761  0.00  0.00    +0.000 NA
ENDBRANCH   1  13
BRANCH   7  15
ATOM     15  C   UNL     1       1.979   7.688  19.780  0.00  0.00    +0.000 C 
BRANCH  15  16
ATOM     16  O   UNL     1       1.730   8.787  18.910  0.00  0.00    +0.000 OA
BRANCH  16  17
ATOM     17  C   UNL     1       1.109   9.877  19.582  0.00  0.00    +0.000 C 
BRANCH  17  18
ATOM     18  C   UNL     1      -0.184  10.125  18.907  0.00  0.00    +0.000 A 
ATOM     19  N   UNL     1      -1.247  10.781  19.323  0.00  0.00    +0.000 NA
ATOM     20  C   UNL     1      -2.076  10.693  18.236  0.00  0.00    +0.000 A 
ATOM     21  C   UNL     1      -3.394  11.348  18.189  0.00  0.00    +0.000 C 
ATOM     22  N   UNL     1      -1.597   9.978  17.209  0.00  0.00    +0.000 NA
ATOM     23  O   UNL     1      -0.326   9.604  17.652  0.00  0.00    +0.000 OA
ENDBRANCH  17  18
ENDBRANCH  16  17
ENDBRANCH  15  16
ENDBRANCH   7  15
TORSDOF 5
ENDMDL
MODEL 5
REMARK VINA RESULT:      -7.1      1.821      3.715
REMARK  Name = 
REMARK  7 active torsions:
REMARK  status: ('A' for Active; 'I' for Inactive)
REMARK    1  A    between atoms: C_1  and  C_2
REMARK    2  A    between atoms: C_5  and  C_6
REMARK    3  A    between atoms: C_12  and  C_14
REMARK    4  A    between atoms: C_14  and  O_15
REMARK    5  A    between atoms: O_15  and  C_16
REMARK    6  A    between atoms: C_16  and  C_17
REMARK    7  A    between atoms: C_19  and  C_20
REMARK                            x       y       z     vdW  Elec       q    Type
REMARK                         _______ _______ _______ _____ _____    ______ ____
ROOT
ATOM      1  C   UNL     1       4.684   4.671  17.901  0.00  0.00    +0.000 C 
ATOM      2  C   UNL     1       6.057   4.419  18.564  0.00  0.00    +0.000 C 
ATOM      3  C   UNL     1       7.190   5.126  17.829  0.00  0.00    +0.000 C 
ATOM      4  C   UNL     1       6.884   6.606  17.666  0.00  0.00    +0.000 C 
ATOM      5  C   UNL     1       5.524   6.823  17.013  0.00  0.00    +0.000 C 
ATOM      6  N   UNL     1       4.451   6.138  17.741  0.00  0.00    +0.000 N 
ATOM      7  C   UNL     1       3.234   6.753  18.057  0.00  0.00    +0.000 C 
ATOM      8  O   UNL     1       2.359   6.205  18.723  0.00  0.00    +0.000 OA
ENDROOT
BRANCH   1  13
ATOM      9  C   UNL     1       2.165   2.657  21.680  0.00  0.00    +0.000 C 
ATOM     10  C   UNL     1       2.477   2.879  20.247  0.00  0.00    +0.000 A 
ATOM     11  C   UNL     1       1.848   2.301  19.164  0.00  0.00    +0.000 A 
ATOM     12  S   UNL     1       2.563   2.838  17.705  0.00  0.00    +0.000 S 
ATOM     13  C   UNL     1       3.624   3.856  18.615  0.00  0.00    +0.000 A 
ATOM     14  N   UNL     1       3.509   3.744  19.926  0.00  0.00    +0.000 NA
ENDBRANCH   1  13
BRANCH   7  15
ATOM     15  C   UNL     1       2.999   8.189  17.546  0.00  0.00    +0.000 C 
BRANCH  15  16
ATOM     16  O   UNL     1       1.659   8.609  17.786  0.00  0.00    +0.000 OA
BRANCH  16  17
ATOM     17  C   UNL     1       1.586   9.972  18.190  0.00  0.00    +0.000 C 
BRANCH  17  18
ATOM     18  C   UNL     1       0.824  10.011  19.456  0.00  0.00    +0.000 A 
ATOM     19  N   UNL     1       0.870   9.209  20.500  0.00  0.00    +0.000 NA
ATOM     20  C   UNL     1      -0.029   9.799  21.348  0.00  0.00    +0.000 A 
ATOM     21  C   UNL     1      -0.284   9.295  22.709  0.00  0.00    +0.000 C 
ATOM     22  N   UNL     1      -0.654  10.878  20.858  0.00  0.00    +0.000 NA
ATOM     23  O   UNL     1      -0.078  11.028  19.595  0.00  0.00    +0.000 OA
ENDBRANCH  17  18
ENDBRANCH  16  17
ENDBRANCH  15  16
ENDBRANCH   7  15
TORSDOF 5
ENDMDL
MODEL 6
REMARK VINA RESULT:      -7.0      2.997      7.172
REMARK  Name = 
REMARK  7 active torsions:
REMARK  status: ('A' for Active; 'I' for Inactive)
REMARK    1  A    between atoms: C_1  and  C_2
REMARK    2  A    between atoms: C_5  and  C_6
REMARK    3  A    between atoms: C_12  and  C_14
REMARK    4  A    between atoms: C_14  and  O_15
REMARK    5  A    between atoms: O_15  and  C_16
REMARK    6  A    between atoms: C_16  and  C_17
REMARK    7  A    between atoms: C_19  and  C_20
REMARK                            x       y       z     vdW  Elec       q    Type
REMARK                         _______ _______ _______ _____ _____    ______ ____
ROOT
ATOM      1  C   UNL     1       2.474   4.668  18.137  0.00  0.00    +0.000 C 
ATOM      2  C   UNL     1       1.537   3.685  18.872  0.00  0.00    +0.000 C 
ATOM      3  C   UNL     1       1.675   2.258  18.351  0.00  0.00    +0.000 C 
ATOM      4  C   UNL     1       3.128   1.813  18.382  0.00  0.00    +0.000 C 
ATOM      5  C   UNL     1       4.027   2.804  17.652  0.00  0.00    +0.000 C 
ATOM      6  N   UNL     1       3.880   4.166  18.174  0.00  0.00    +0.000 N 
ATOM      7  C   UNL     1       4.973   4.989  18.470  0.00  0.00    +0.000 C 
ATOM      8  O   UNL     1       4.856   6.106  18.968  0.00  0.00    +0.000 OA
ENDROOT
BRANCH   1  13
ATOM      9  C   UNL     1       2.021   9.613  17.972  0.00  0.00    +0.000 C 
ATOM     10  C   UNL     1       2.033   8.292  18.647  0.00  0.00    +0.000 A 
ATOM     11  C   UNL     1       1.839   8.047  19.991  0.00  0.00    +0.000 A 
ATOM     12  S   UNL     1       1.966   6.372  20.314  0.00  0.00    +0.000 S 
ATOM     13  C   UNL     1       2.208   6.077  18.627  0.00  0.00    +0.000 A 
ATOM     14  N   UNL     1       2.272   7.165  17.879  0.00  0.00    +0.000 NA
ENDBRANCH   1  13
BRANCH   7  15
ATOM     15  C   UNL     1       6.384   4.452  18.156  0.00  0.00    +0.000 C 
BRANCH  15  16
ATOM     16  O   UNL     1       7.027   5.241  17.160  0.00  0.00    +0.000 OA
BRANCH  16  17
ATOM     17  C   UNL     1       6.104   5.789  16.226  0.00  0.00    +0.000 C 
BRANCH  17  18
ATOM     18  C   UNL     1       6.309   5.080  14.944  0.00  0.00    +0.000 A 
ATOM     19  N   UNL     1       5.562   4.177  14.344  0.00  0.00    +0.000 NA
ATOM     20  C   UNL     1       6.263   3.955  13.189  0.00  0.00    +0.000 A 
ATOM     21  C   UNL     1       5.781   3.049  12.131  0.00  0.00    +0.000 C 
ATOM     22  N   UNL     1       7.415   4.629  13.081  0.00  0.00    +0.000 NA
ATOM     23  O   UNL     1       7.444   5.391  14.251  0.00  0.00    +0.000 OA
ENDBRANCH  17  18
ENDBRANCH  16  17
ENDBRANCH  15  16
ENDBRANCH   7  15
TORSDOF 5
ENDMDL
MODEL 7
REMARK VINA RESULT:      -7.0      1.250      1.389
REMARK  Name = 
REMARK  7 active torsions:
REMARK  status: ('A' for Active; 'I' for Inactive)
REMARK    1  A    between atoms: C_1  and  C_2
REMARK    2  A    between atoms: C_5  and  C_6
REMARK    3  A    between atoms: C_12  and  C_14
REMARK    4  A    between atoms: C_14  and  O_15
REMARK    5  A    between atoms: O_15  and  C_16
REMARK    6  A    between atoms: C_16  and  C_17
REMARK    7  A    between atoms: C_19  and  C_20
REMARK                            x       y       z     vdW  Elec       q    Type
REMARK                         _______ _______ _______ _____ _____    ______ ____
ROOT
ATOM      1  C   UNL     1       3.839   3.820  18.451  0.00  0.00    +0.000 C 
ATOM      2  C   UNL     1       3.228   2.492  17.953  0.00  0.00    +0.000 C 
ATOM      3  C   UNL     1       2.096   2.006  18.850  0.00  0.00    +0.000 C 
ATOM      4  C   UNL     1       1.052   3.095  19.035  0.00  0.00    +0.000 C 
ATOM      5  C   UNL     1       1.684   4.393  19.524  0.00  0.00    +0.000 C 
ATOM      6  N   UNL     1       2.766   4.841  18.642  0.00  0.00    +0.000 N 
ATOM      7  C   UNL     1       2.891   6.165  18.204  0.00  0.00    +0.000 C 
ATOM      8  O   UNL     1       3.757   6.531  17.414  0.00  0.00    +0.000 OA
ENDROOT
BRANCH   1  13
ATOM      9  C   UNL     1       6.603   4.246  14.344  0.00  0.00    +0.000 C 
ATOM     10  C   UNL     1       6.340   4.369  15.799  0.00  0.00    +0.000 A 
ATOM     11  C   UNL     1       7.211   4.836  16.761  0.00  0.00    +0.000 A 
ATOM     12  S   UNL     1       6.480   4.774  18.307  0.00  0.00    +0.000 S 
ATOM     13  C   UNL     1       5.024   4.187  17.580  0.00  0.00    +0.000 A 
ATOM     14  N   UNL     1       5.103   3.973  16.278  0.00  0.00    +0.000 NA
ENDBRANCH   1  13
BRANCH   7  15
ATOM     15  C   UNL     1       1.880   7.199  18.741  0.00  0.00    +0.000 C 
BRANCH  15  16
ATOM     16  O   UNL     1       2.340   7.787  19.954  0.00  0.00    +0.000 OA
BRANCH  16  17
ATOM     17  C   UNL     1       1.330   7.814  20.957  0.00  0.00    +0.000 C 
BRANCH  17  18
ATOM     18  C   UNL     1       0.779   9.186  20.984  0.00  0.00    +0.000 A 
ATOM     19  N   UNL     1      -0.142   9.746  20.228  0.00  0.00    +0.000 NA
ATOM     20  C   UNL     1      -0.235  10.997  20.778  0.00  0.00    +0.000 A 
ATOM     21  C   UNL     1      -1.206  12.000  20.308  0.00  0.00    +0.000 C 
ATOM     22  N   UNL     1       0.614  11.243  21.785  0.00  0.00    +0.000 NA
ATOM     23  O   UNL     1       1.287  10.028  21.932  0.00  0.00    +0.000 OA
ENDBRANCH  17  18
ENDBRANCH  16  17
ENDBRANCH  15  16
ENDBRANCH   7  15
TORSDOF 5
ENDMDL
MODEL 8
REMARK VINA RESULT:      -7.0      1.751      2.115
REMARK  Name = 
REMARK  7 active torsions:
REMARK  status: ('A' for Active; 'I' for Inactive)
REMARK    1  A    between atoms: C_1  and  C_2
REMARK    2  A    between atoms: C_5  and  C_6
REMARK    3  A    between atoms: C_12  and  C_14
REMARK    4  A    between atoms: C_14  and  O_15
REMARK    5  A    between atoms: O_15  and  C_16
REMARK    6  A    between atoms: C_16  and  C_17
REMARK    7  A    between atoms: C_19  and  C_20
REMARK                            x       y       z     vdW  Elec       q    Type
REMARK                         _______ _______ _______ _____ _____    ______ ____
ROOT
ATOM      1  C   UNL     1       3.502   3.687  19.299  0.00  0.00    +0.000 C 
ATOM      2  C   UNL     1       2.927   2.631  18.330  0.00  0.00    +0.000 C 
ATOM      3  C   UNL     1       1.761   1.862  18.941  0.00  0.00    +0.000 C 
ATOM      4  C   UNL     1       0.699   2.818  19.458  0.00  0.00    +0.000 C 
ATOM      5  C   UNL     1       1.296   3.849  20.409  0.00  0.00    +0.000 C 
ATOM      6  N   UNL     1       2.411   4.578  19.797  0.00  0.00    +0.000 N 
ATOM      7  C   UNL     1       2.541   5.969  19.870  0.00  0.00    +0.000 C 
ATOM      8  O   UNL     1       3.438   6.590  19.304  0.00  0.00    +0.000 OA
ENDROOT
BRANCH   1  13
ATOM      9  C   UNL     1       7.934   5.917  19.035  0.00  0.00    +0.000 C 
ATOM     10  C   UNL     1       6.671   5.378  18.473  0.00  0.00    +0.000 A 
ATOM     11  C   UNL     1       6.279   5.400  17.151  0.00  0.00    +0.000 A 
ATOM     12  S   UNL     1       4.734   4.684  16.978  0.00  0.00    +0.000 S 
ATOM     13  C   UNL     1       4.720   4.335  18.672  0.00  0.00    +0.000 A 
ATOM     14  N   UNL     1       5.763   4.794  19.340  0.00  0.00    +0.000 NA
ENDBRANCH   1  13
BRANCH   7  15
ATOM     15  C   UNL     1       1.498   6.747  20.699  0.00  0.00    +0.000 C 
BRANCH  15  16
ATOM     16  O   UNL     1       1.780   8.143  20.704  0.00  0.00    +0.000 OA
BRANCH  16  17
ATOM     17  C   UNL     1       0.709   8.912  20.168  0.00  0.00    +0.000 C 
BRANCH  17  18
ATOM     18  C   UNL     1       0.199   9.769  21.260  0.00  0.00    +0.000 A 
ATOM     19  N   UNL     1      -0.294  10.989  21.223  0.00  0.00    +0.000 NA
ATOM     20  C   UNL     1      -0.625  11.200  22.534  0.00  0.00    +0.000 A 
ATOM     21  C   UNL     1      -1.291  12.430  22.997  0.00  0.00    +0.000 C 
ATOM     22  N   UNL     1      -0.312  10.201  23.371  0.00  0.00    +0.000 NA
ATOM     23  O   UNL     1       0.231   9.237  22.518  0.00  0.00    +0.000 OA
ENDBRANCH  17  18
ENDBRANCH  16  17
ENDBRANCH  15  16
ENDBRANCH   7  15
TORSDOF 5
ENDMDL
MODEL 9
REMARK VINA RESULT:      -7.0      1.398      1.424
REMARK  Name = 
REMARK  7 active torsions:
REMARK  status: ('A' for Active; 'I' for Inactive)
REMARK    1  A    between atoms: C_1  and  C_2
REMARK    2  A    between atoms: C_5  and  C_6
REMARK    3  A    between atoms: C_12  and  C_14
REMARK    4  A    between atoms: C_14  and  O_15
REMARK    5  A    between atoms: O_15  and  C_16
REMARK    6  A    between atoms: C_16  and  C_17
REMARK    7  A    between atoms: C_19  and  C_20
REMARK                            x       y       z     vdW  Elec       q    Type
REMARK                         _______ _______ _______ _____ _____    ______ ____
ROOT
ATOM      1  C   UNL     1       3.898   4.042  18.647  0.00  0.00    +0.000 C 
ATOM      2  C   UNL     1       3.103   2.760  18.309  0.00  0.00    +0.000 C 
ATOM      3  C   UNL     1       2.066   2.427  19.376  0.00  0.00    +0.000 C 
ATOM      4  C   UNL     1       1.163   3.621  19.639  0.00  0.00    +0.000 C 
ATOM      5  C   UNL     1       1.974   4.869  19.966  0.00  0.00    +0.000 C 
ATOM      6  N   UNL     1       2.960   5.171  18.923  0.00  0.00    +0.000 N 
ATOM      7  C   UNL     1       3.145   6.456  18.401  0.00  0.00    +0.000 C 
ATOM      8  O   UNL     1       3.923   6.701  17.482  0.00  0.00    +0.000 OA
ENDROOT
BRANCH   1  13
ATOM      9  C   UNL     1       6.122   3.941  14.205  0.00  0.00    +0.000 C 
ATOM     10  C   UNL     1       6.059   4.198  15.665  0.00  0.00    +0.000 A 
ATOM     11  C   UNL     1       7.075   4.677  16.466  0.00  0.00    +0.000 A 
ATOM     12  S   UNL     1       6.549   4.789  18.090  0.00  0.00    +0.000 S 
ATOM     13  C   UNL     1       4.978   4.252  17.605  0.00  0.00    +0.000 A 
ATOM     14  N   UNL     1       4.874   3.931  16.328  0.00  0.00    +0.000 NA
ENDBRANCH   1  13
BRANCH   7  15
ATOM     15  C   UNL     1       2.319   7.607  19.011  0.00  0.00    +0.000 C 
BRANCH  15  16
ATOM     16  O   UNL     1       1.643   8.350  18.002  0.00  0.00    +0.000 OA
BRANCH  16  17
ATOM     17  C   UNL     1       2.089   9.700  17.936  0.00  0.00    +0.000 C 
BRANCH  17  18
ATOM     18  C   UNL     1       0.971  10.550  18.399  0.00  0.00    +0.000 A 
ATOM     19  N   UNL     1      -0.330  10.376  18.291  0.00  0.00    +0.000 NA
ATOM     20  C   UNL     1      -0.817  11.473  18.952  0.00  0.00    +0.000 A 
ATOM     21  C   UNL     1      -2.258  11.696  19.164  0.00  0.00    +0.000 C 
ATOM     22  N   UNL     1       0.112  12.326  19.405  0.00  0.00    +0.000 NA
ATOM     23  O   UNL     1       1.310  11.705  19.044  0.00  0.00    +0.000 OA
ENDBRANCH  17  18
ENDBRANCH  16  17
ENDBRANCH  15  16
ENDBRANCH   7  15
TORSDOF 5
ENDMDL
