MODEL 1
REMARK VINA RESULT:      -7.8      0.000      0.000
REMARK  Name = 
REMARK  11 active torsions:
REMARK  status: ('A' for Active; 'I' for Inactive)
REMARK    1  A    between atoms: C_1  and  O_2
REMARK    2  A    between atoms: O_2  and  N_3
REMARK    3  A    between atoms: C_4  and  C_5
REMARK    4  A    between atoms: C_4  and  C_12
REMARK    5  A    between atoms: C_17  and  C_18
REMARK    6  A    between atoms: C_18  and  O_19
REMARK    7  A    between atoms: O_19  and  C_20
REMARK    8  A    between atoms: C_23  and  C_24
REMARK    9  A    between atoms: C_24  and  C_25
REMARK   10  A    between atoms: C_24  and  C_26
REMARK   11  A    between atoms: C_24  and  C_27
REMARK                            x       y       z     vdW  Elec       q    Type
REMARK                         _______ _______ _______ _____ _____    ______ ____
ROOT
ATOM      1  C   UNL     1       6.273   5.461  17.692  0.00  0.00    +0.000 A 
ATOM      2  C   UNL     1       7.504   5.268  18.363  0.00  0.00    +0.000 A 
ATOM      3  C   UNL     1       8.373   6.326  18.625  0.00  0.00    +0.000 A 
ATOM      4  C   UNL     1       8.014   7.612  18.258  0.00  0.00    +0.000 A 
ATOM      5  C   UNL     1       6.780   7.833  17.651  0.00  0.00    +0.000 A 
ATOM      6  C   UNL     1       5.869   6.781  17.371  0.00  0.00    +0.000 A 
ENDROOT
BRANCH   1   8
ATOM      7  N   UNL     1       5.831   3.450  16.267  0.00  0.00    +0.000 NA
ATOM      8  C   UNL     1       5.557   4.189  17.302  0.00  0.00    +0.000 C 
BRANCH   8   9
ATOM      9  C   UNL     1       4.315   3.758  18.069  0.00  0.00    +0.000 A 
ATOM     10  C   UNL     1       4.305   3.488  19.443  0.00  0.00    +0.000 A 
ATOM     11  C   UNL     1       3.091   3.257  20.109  0.00  0.00    +0.000 A 
ATOM     12  C   UNL     1       1.889   3.261  19.402  0.00  0.00    +0.000 A 
ATOM     13 CL   UNL     1       0.404   2.998  20.229  0.00  0.00    +0.000 Cl
ATOM     14  C   UNL     1       1.884   3.486  18.031  0.00  0.00    +0.000 A 
ATOM     15  C   UNL     1       3.091   3.735  17.371  0.00  0.00    +0.000 A 
ENDBRANCH   8   9
BRANCH   7  17
ATOM     16  C   UNL     1       6.067   4.166  14.127  0.00  0.00    +0.000 C 
ATOM     17  O   UNL     1       6.720   4.045  15.384  0.00  0.00    +0.000 OA
ENDBRANCH   7  17
ENDBRANCH   1   8
BRANCH   6  18
ATOM     18  C   UNL     1       4.600   7.194  16.633  0.00  0.00    +0.000 C 
BRANCH  18  19
ATOM     19  O   UNL     1       3.317   6.880  17.179  0.00  0.00    +0.000 OA
BRANCH  19  20
ATOM     20  C   UNL     1       2.666   7.660  18.083  0.00  0.00    +0.000 A 
ATOM     21  C   UNL     1       2.263   8.896  17.580  0.00  0.00    +0.000 A 
ATOM     22  C   UNL     1       1.468   9.785  18.328  0.00  0.00    +0.000 A 
ATOM     23  C   UNL     1       1.067   9.460  19.626  0.00  0.00    +0.000 A 
ATOM     24  C   UNL     1       1.528   8.233  20.143  0.00  0.00    +0.000 A 
ATOM     25  C   UNL     1       2.309   7.343  19.382  0.00  0.00    +0.000 A 
BRANCH  23  26
ATOM     26  C   UNL     1       0.154  10.380  20.463  0.00  0.00    +0.000 C 
ATOM     27  C   UNL     1       0.816  11.720  20.861  0.00  0.00    +0.000 C 
ATOM     28  C   UNL     1      -1.119  10.733  19.666  0.00  0.00    +0.000 C 
ATOM     29  C   UNL     1      -0.249   9.661  21.767  0.00  0.00    +0.000 C 
ENDBRANCH  23  26
ENDBRANCH  19  20
ENDBRANCH  18  19
ENDBRANCH   6  18
TORSDOF 7
ENDMDL
MODEL 2
REMARK VINA RESULT:      -7.7      4.617      9.094
REMARK  Name = 
REMARK  11 active torsions:
REMARK  status: ('A' for Active; 'I' for Inactive)
REMARK    1  A    between atoms: C_1  and  O_2
REMARK    2  A    between atoms: O_2  and  N_3
REMARK    3  A    between atoms: C_4  and  C_5
REMARK    4  A    between atoms: C_4  and  C_12
REMARK    5  A    between atoms: C_17  and  C_18
REMARK    6  A    between atoms: C_18  and  O_19
REMARK    7  A    between atoms: O_19  and  C_20
REMARK    8  A    between atoms: C_23  and  C_24
REMARK    9  A    between atoms: C_24  and  C_25
REMARK   10  A    between atoms: C_24  and  C_26
REMARK   11  A    between atoms: C_24  and  C_27
REMARK                            x       y       z     vdW  Elec       q    Type
REMARK                         _______ _______ _______ _____ _____    ______ ____
ROOT
ATOM      1  C   UNL     1      -0.489  11.214  19.211  0.00  0.00    +0.000 A 
ATOM      2  C   UNL     1      -1.797  11.746  19.313  0.00  0.00    +0.000 A 
ATOM      3  C   UNL     1      -2.823  11.343  18.460  0.00  0.00    +0.000 A 
ATOM      4  C   UNL     1      -2.579  10.369  17.509  0.00  0.00    +0.000 A 
ATOM      5  C   UNL     1      -1.314   9.789  17.430  0.00  0.00    +0.000 A 
ATOM      6  C   UNL     1      -0.246  10.171  18.282  0.00  0.00    +0.000 A 
ENDROOT
BRANCH   1   8
ATOM      7  N   UNL     1       0.788  11.663  21.318  0.00  0.00    +0.000 NA
ATOM      8  C   UNL     1       0.547  11.909  20.064  0.00  0.00    +0.000 C 
BRANCH   8   9
ATOM      9  C   UNL     1       1.310  13.100  19.500  0.00  0.00    +0.000 A 
ATOM     10  C   UNL     1       2.524  12.990  18.812  0.00  0.00    +0.000 A 
ATOM     11  C   UNL     1       3.083  14.112  18.180  0.00  0.00    +0.000 A 
ATOM     12  C   UNL     1       2.450  15.352  18.260  0.00  0.00    +0.000 A 
ATOM     13 CL   UNL     1       3.129  16.718  17.465  0.00  0.00    +0.000 Cl
ATOM     14  C   UNL     1       1.265  15.488  18.973  0.00  0.00    +0.000 A 
ATOM     15  C   UNL     1       0.699  14.368  19.587  0.00  0.00    +0.000 A 
ENDBRANCH   8   9
BRANCH   7  17
ATOM     16  C   UNL     1       0.534   9.731  22.479  0.00  0.00    +0.000 C 
ATOM     17  O   UNL     1      -0.155  10.836  21.909  0.00  0.00    +0.000 OA
ENDBRANCH   7  17
ENDBRANCH   1   8
BRANCH   6  18
ATOM     18  C   UNL     1       1.089   9.488  18.006  0.00  0.00    +0.000 C 
BRANCH  18  19
ATOM     19  O   UNL     1       1.808   8.858  19.069  0.00  0.00    +0.000 OA
BRANCH  19  20
ATOM     20  C   UNL     1       1.999   7.515  19.163  0.00  0.00    +0.000 A 
ATOM     21  C   UNL     1       1.720   6.990  20.425  0.00  0.00    +0.000 A 
ATOM     22  C   UNL     1       1.739   5.606  20.679  0.00  0.00    +0.000 A 
ATOM     23  C   UNL     1       2.062   4.700  19.665  0.00  0.00    +0.000 A 
ATOM     24  C   UNL     1       2.396   5.248  18.410  0.00  0.00    +0.000 A 
ATOM     25  C   UNL     1       2.359   6.632  18.161  0.00  0.00    +0.000 A 
BRANCH  23  26
ATOM     26  C   UNL     1       2.045   3.174  19.884  0.00  0.00    +0.000 C 
ATOM     27  C   UNL     1       3.454   2.536  19.941  0.00  0.00    +0.000 C 
ATOM     28  C   UNL     1       1.352   2.837  21.221  0.00  0.00    +0.000 C 
ATOM     29  C   UNL     1       1.278   2.493  18.732  0.00  0.00    +0.000 C 
ENDBRANCH  23  26
ENDBRANCH  19  20
ENDBRANCH  18  19
ENDBRANCH   6  18
TORSDOF 7
ENDMDL
MODEL 3
REMARK VINA RESULT:      -7.7      1.625      2.588
REMARK  Name = 
REMARK  11 active torsions:
REMARK  status: ('A' for Active; 'I' for Inactive)
REMARK    1  A    between atoms: C_1  and  O_2
REMARK    2  A    between atoms: O_2  and  N_3
REMARK    3  A    between atoms: C_4  and  C_5
REMARK    4  A    between atoms: C_4  and  C_12
REMARK    5  A    between atoms: C_17  and  C_18
REMARK    6  A    between atoms: C_18  and  O_19
REMARK    7  A    between atoms: O_19  and  C_20
REMARK    8  A    between atoms: C_23  and  C_24
REMARK    9  A    between atoms: C_24  and  C_25
REMARK   10  A    between atoms: C_24  and  C_26
REMARK   11  A    between atoms: C_24  and  C_27
REMARK                            x       y       z     vdW  Elec       q    Type
REMARK                         _______ _______ _______ _____ _____    ______ ____
ROOT
ATOM      1  C   UNL     1       5.761   5.027  17.342  0.00  0.00    +0.000 A 
ATOM      2  C   UNL     1       6.399   3.998  16.609  0.00  0.00    +0.000 A 
ATOM      3  C   UNL     1       6.334   3.938  15.218  0.00  0.00    +0.000 A 
ATOM      4  C   UNL     1       5.662   4.927  14.521  0.00  0.00    +0.000 A 
ATOM      5  C   UNL     1       5.078   5.981  15.219  0.00  0.00    +0.000 A 
ATOM      6  C   UNL     1       5.125   6.078  16.634  0.00  0.00    +0.000 A 
ENDROOT
BRANCH   1   8
ATOM      7  N   UNL     1       6.744   5.063  19.646  0.00  0.00    +0.000 NA
ATOM      8  C   UNL     1       5.751   4.825  18.840  0.00  0.00    +0.000 C 
BRANCH   8   9
ATOM      9  C   UNL     1       4.551   4.163  19.502  0.00  0.00    +0.000 A 
ATOM     10  C   UNL     1       4.393   2.777  19.617  0.00  0.00    +0.000 A 
ATOM     11  C   UNL     1       3.344   2.246  20.383  0.00  0.00    +0.000 A 
ATOM     12  C   UNL     1       2.431   3.094  21.009  0.00  0.00    +0.000 A 
ATOM     13 CL   UNL     1       1.160   2.436  21.964  0.00  0.00    +0.000 Cl
ATOM     14  C   UNL     1       2.548   4.472  20.873  0.00  0.00    +0.000 A 
ATOM     15  C   UNL     1       3.603   5.001  20.125  0.00  0.00    +0.000 A 
ENDBRANCH   8   9
BRANCH   7  17
ATOM     16  C   UNL     1       8.076   6.730  18.874  0.00  0.00    +0.000 C 
ATOM     17  O   UNL     1       7.938   5.320  18.988  0.00  0.00    +0.000 OA
ENDBRANCH   7  17
ENDBRANCH   1   8
BRANCH   6  18
ATOM     18  C   UNL     1       4.367   7.256  17.236  0.00  0.00    +0.000 C 
BRANCH  18  19
ATOM     19  O   UNL     1       3.104   7.048  17.872  0.00  0.00    +0.000 OA
BRANCH  19  20
ATOM     20  C   UNL     1       2.322   8.053  18.350  0.00  0.00    +0.000 A 
ATOM     21  C   UNL     1       1.889   7.860  19.662  0.00  0.00    +0.000 A 
ATOM     22  C   UNL     1       1.177   8.849  20.366  0.00  0.00    +0.000 A 
ATOM     23  C   UNL     1       0.859  10.067  19.759  0.00  0.00    +0.000 A 
ATOM     24  C   UNL     1       1.253  10.226  18.415  0.00  0.00    +0.000 A 
ATOM     25  C   UNL     1       1.979   9.238  17.724  0.00  0.00    +0.000 A 
BRANCH  23  26
ATOM     26  C   UNL     1       0.125  11.197  20.508  0.00  0.00    +0.000 C 
ATOM     27  C   UNL     1       0.985  12.464  20.723  0.00  0.00    +0.000 C 
ATOM     28  C   UNL     1      -1.123  11.637  19.716  0.00  0.00    +0.000 C 
ATOM     29  C   UNL     1      -0.311  10.696  21.901  0.00  0.00    +0.000 C 
ENDBRANCH  23  26
ENDBRANCH  19  20
ENDBRANCH  18  19
ENDBRANCH   6  18
TORSDOF 7
ENDMDL
MODEL 4
REMARK VINA RESULT:      -7.6      3.477      6.241
REMARK  Name = 
REMARK  11 active torsions:
REMARK  status: ('A' for Active; 'I' for Inactive)
REMARK    1  A    between atoms: C_1  and  O_2
REMARK    2  A    between atoms: O_2  and  N_3
REMARK    3  A    between atoms: C_4  and  C_5
REMARK    4  A    between atoms: C_4  and  C_12
REMARK    5  A    between atoms: C_17  and  C_18
REMARK    6  A    between atoms: C_18  and  O_19
REMARK    7  A    between atoms: O_19  and  C_20
REMARK    8  A    between atoms: C_23  and  C_24
REMARK    9  A    between atoms: C_24  and  C_25
REMARK   10  A    between atoms: C_24  and  C_26
REMARK   11  A    between atoms: C_24  and  C_27
REMARK                            x       y       z     vdW  Elec       q    Type
REMARK                         _______ _______ _______ _____ _____    ______ ____
ROOT
ATOM      1  C   UNL     1       5.389   5.230  17.369  0.00  0.00    +0.000 A 
ATOM      2  C   UNL     1       4.850   4.309  16.437  0.00  0.00    +0.000 A 
ATOM      3  C   UNL     1       5.391   4.151  15.162  0.00  0.00    +0.000 A 
ATOM      4  C   UNL     1       6.509   4.882  14.799  0.00  0.00    +0.000 A 
ATOM      5  C   UNL     1       7.091   5.749  15.720  0.00  0.00    +0.000 A 
ATOM      6  C   UNL     1       6.570   5.935  17.028  0.00  0.00    +0.000 A 
ENDROOT
BRANCH   1   8
ATOM      7  N   UNL     1       4.586   4.673  19.674  0.00  0.00    +0.000 NA
ATOM      8  C   UNL     1       4.559   5.428  18.616  0.00  0.00    +0.000 C 
BRANCH   8   9
ATOM      9  C   UNL     1       3.487   6.508  18.642  0.00  0.00    +0.000 A 
ATOM     10  C   UNL     1       2.604   6.701  19.712  0.00  0.00    +0.000 A 
ATOM     11  C   UNL     1       1.754   7.817  19.734  0.00  0.00    +0.000 A 
ATOM     12  C   UNL     1       1.758   8.726  18.676  0.00  0.00    +0.000 A 
ATOM     13 CL   UNL     1       0.729  10.104  18.720  0.00  0.00    +0.000 Cl
ATOM     14  C   UNL     1       2.598   8.528  17.587  0.00  0.00    +0.000 A 
ATOM     15  C   UNL     1       3.457   7.426  17.573  0.00  0.00    +0.000 A 
ENDBRANCH   8   9
BRANCH   7  17
ATOM     16  C   UNL     1       4.394   2.412  19.676  0.00  0.00    +0.000 C 
ATOM     17  O   UNL     1       5.296   3.495  19.493  0.00  0.00    +0.000 OA
ENDBRANCH   7  17
ENDBRANCH   1   8
BRANCH   6  18
ATOM     18  C   UNL     1       7.287   6.979  17.876  0.00  0.00    +0.000 C 
BRANCH  18  19
ATOM     19  O   UNL     1       7.455   8.311  17.385  0.00  0.00    +0.000 OA
BRANCH  19  20
ATOM     20  C   UNL     1       8.209   9.259  18.006  0.00  0.00    +0.000 A 
ATOM     21  C   UNL     1       8.148  10.515  17.405  0.00  0.00    +0.000 A 
ATOM     22  C   UNL     1       8.759  11.647  17.976  0.00  0.00    +0.000 A 
ATOM     23  C   UNL     1       9.474  11.543  19.172  0.00  0.00    +0.000 A 
ATOM     24  C   UNL     1       9.575  10.256  19.739  0.00  0.00    +0.000 A 
ATOM     25  C   UNL     1       8.946   9.133  19.169  0.00  0.00    +0.000 A 
BRANCH  23  26
ATOM     26  C   UNL     1      10.117  12.764  19.859  0.00  0.00    +0.000 C 
ATOM     27  C   UNL     1       9.808  14.109  19.159  0.00  0.00    +0.000 C 
ATOM     28  C   UNL     1       9.603  12.890  21.309  0.00  0.00    +0.000 C 
ATOM     29  C   UNL     1      11.651  12.599  19.880  0.00  0.00    +0.000 C 
ENDBRANCH  23  26
ENDBRANCH  19  20
ENDBRANCH  18  19
ENDBRANCH   6  18
TORSDOF 7
ENDMDL
MODEL 5
REMARK VINA RESULT:      -7.6      4.557      9.079
REMARK  Name = 
REMARK  11 active torsions:
REMARK  status: ('A' for Active; 'I' for Inactive)
REMARK    1  A    between atoms: C_1  and  O_2
REMARK    2  A    between atoms: O_2  and  N_3
REMARK    3  A    between atoms: C_4  and  C_5
REMARK    4  A    between atoms: C_4  and  C_12
REMARK    5  A    between atoms: C_17  and  C_18
REMARK    6  A    between atoms: C_18  and  O_19
REMARK    7  A    between atoms: O_19  and  C_20
REMARK    8  A    between atoms: C_23  and  C_24
REMARK    9  A    between atoms: C_24  and  C_25
REMARK   10  A    between atoms: C_24  and  C_26
REMARK   11  A    between atoms: C_24  and  C_27
REMARK                            x       y       z     vdW  Elec       q    Type
REMARK                         _______ _______ _______ _____ _____    ______ ____
ROOT
ATOM      1  C   UNL     1      -0.485  11.215  19.231  0.00  0.00    +0.000 A 
ATOM      2  C   UNL     1      -1.795  11.743  19.321  0.00  0.00    +0.000 A 
ATOM      3  C   UNL     1      -2.818  11.322  18.473  0.00  0.00    +0.000 A 
ATOM      4  C   UNL     1      -2.567  10.334  17.537  0.00  0.00    +0.000 A 
ATOM      5  C   UNL     1      -1.300   9.758  17.471  0.00  0.00    +0.000 A 
ATOM      6  C   UNL     1      -0.235  10.158  18.319  0.00  0.00    +0.000 A 
ENDROOT
BRANCH   1   8
ATOM      7  N   UNL     1       0.812  11.677  21.323  0.00  0.00    +0.000 NA
ATOM      8  C   UNL     1       0.546  11.928  20.074  0.00  0.00    +0.000 C 
BRANCH   8   9
ATOM      9  C   UNL     1       1.271  13.141  19.510  0.00  0.00    +0.000 A 
ATOM     10  C   UNL     1       0.917  14.464  19.804  0.00  0.00    +0.000 A 
ATOM     11  C   UNL     1       1.733  15.525  19.379  0.00  0.00    +0.000 A 
ATOM     12  C   UNL     1       2.884  15.272  18.632  0.00  0.00    +0.000 A 
ATOM     13 CL   UNL     1       3.889  16.575  18.133  0.00  0.00    +0.000 Cl
ATOM     14  C   UNL     1       3.228  13.968  18.298  0.00  0.00    +0.000 A 
ATOM     15  C   UNL     1       2.426  12.911  18.736  0.00  0.00    +0.000 A 
ENDBRANCH   8   9
BRANCH   7  17
ATOM     16  C   UNL     1       0.616   9.699  22.417  0.00  0.00    +0.000 C 
ATOM     17  O   UNL     1      -0.102  10.821  21.919  0.00  0.00    +0.000 OA
ENDBRANCH   7  17
ENDBRANCH   1   8
BRANCH   6  18
ATOM     18  C   UNL     1       1.102   9.476  18.057  0.00  0.00    +0.000 C 
BRANCH  18  19
ATOM     19  O   UNL     1       1.817   8.859  19.129  0.00  0.00    +0.000 OA
BRANCH  19  20
ATOM     20  C   UNL     1       2.050   7.521  19.215  0.00  0.00    +0.000 A 
ATOM     21  C   UNL     1       1.706   6.963  20.446  0.00  0.00    +0.000 A 
ATOM     22  C   UNL     1       1.758   5.576  20.679  0.00  0.00    +0.000 A 
ATOM     23  C   UNL     1       2.180   4.701  19.674  0.00  0.00    +0.000 A 
ATOM     24  C   UNL     1       2.578   5.283  18.454  0.00  0.00    +0.000 A 
ATOM     25  C   UNL     1       2.507   6.670  18.225  0.00  0.00    +0.000 A 
BRANCH  23  26
ATOM     26  C   UNL     1       2.204   3.171  19.867  0.00  0.00    +0.000 C 
ATOM     27  C   UNL     1       2.085   2.727  21.344  0.00  0.00    +0.000 C 
ATOM     28  C   UNL     1       1.025   2.522  19.113  0.00  0.00    +0.000 C 
ATOM     29  C   UNL     1       3.529   2.601  19.321  0.00  0.00    +0.000 C 
ENDBRANCH  23  26
ENDBRANCH  19  20
ENDBRANCH  18  19
ENDBRANCH   6  18
TORSDOF 7
ENDMDL
MODEL 6
REMARK VINA RESULT:      -7.5      2.707      4.752
REMARK  Name = 
REMARK  11 active torsions:
REMARK  status: ('A' for Active; 'I' for Inactive)
REMARK    1  A    between atoms: C_1  and  O_2
REMARK    2  A    between atoms: O_2  and  N_3
REMARK    3  A    between atoms: C_4  and  C_5
REMARK    4  A    between atoms: C_4  and  C_12
REMARK    5  A    between atoms: C_17  and  C_18
REMARK    6  A    between atoms: C_18  and  O_19
REMARK    7  A    between atoms: O_19  and  C_20
REMARK    8  A    between atoms: C_23  and  C_24
REMARK    9  A    between atoms: C_24  and  C_25
REMARK   10  A    between atoms: C_24  and  C_26
REMARK   11  A    between atoms: C_24  and  C_27
REMARK                            x       y       z     vdW  Elec       q    Type
REMARK                         _______ _______ _______ _____ _____    ______ ____
ROOT
ATOM      1  C   UNL     1       4.196   3.905  17.450  0.00  0.00    +0.000 A 
ATOM      2  C   UNL     1       3.813   2.545  17.532  0.00  0.00    +0.000 A 
ATOM      3  C   UNL     1       2.572   2.159  18.037  0.00  0.00    +0.000 A 
ATOM      4  C   UNL     1       1.666   3.126  18.437  0.00  0.00    +0.000 A 
ATOM      5  C   UNL     1       1.999   4.473  18.310  0.00  0.00    +0.000 A 
ATOM      6  C   UNL     1       3.251   4.903  17.798  0.00  0.00    +0.000 A 
ENDROOT
BRANCH   1   8
ATOM      7  N   UNL     1       6.622   4.310  17.920  0.00  0.00    +0.000 NA
ATOM      8  C   UNL     1       5.643   4.135  17.082  0.00  0.00    +0.000 C 
BRANCH   8   9
ATOM      9  C   UNL     1       6.027   4.325  15.621  0.00  0.00    +0.000 A 
ATOM     10  C   UNL     1       7.177   5.003  15.201  0.00  0.00    +0.000 A 
ATOM     11  C   UNL     1       7.548   4.994  13.848  0.00  0.00    +0.000 A 
ATOM     12  C   UNL     1       6.757   4.337  12.905  0.00  0.00    +0.000 A 
ATOM     13 CL   UNL     1       7.231   4.312  11.252  0.00  0.00    +0.000 Cl
ATOM     14  C   UNL     1       5.591   3.692  13.299  0.00  0.00    +0.000 A 
ATOM     15  C   UNL     1       5.231   3.686  14.648  0.00  0.00    +0.000 A 
ENDBRANCH   8   9
BRANCH   7  17
ATOM     16  C   UNL     1       6.971   5.551  19.787  0.00  0.00    +0.000 C 
ATOM     17  O   UNL     1       6.201   4.495  19.229  0.00  0.00    +0.000 OA
ENDBRANCH   7  17
ENDBRANCH   1   8
BRANCH   6  18
ATOM     18  C   UNL     1       3.476   6.411  17.801  0.00  0.00    +0.000 C 
BRANCH  18  19
ATOM     19  O   UNL     1       3.091   7.193  18.934  0.00  0.00    +0.000 OA
BRANCH  19  20
ATOM     20  C   UNL     1       2.116   8.141  18.905  0.00  0.00    +0.000 A 
ATOM     21  C   UNL     1       1.533   8.393  20.147  0.00  0.00    +0.000 A 
ATOM     22  C   UNL     1       0.597   9.426  20.337  0.00  0.00    +0.000 A 
ATOM     23  C   UNL     1       0.201  10.234  19.267  0.00  0.00    +0.000 A 
ATOM     24  C   UNL     1       0.755   9.932  18.007  0.00  0.00    +0.000 A 
ATOM     25  C   UNL     1       1.703   8.907  17.830  0.00  0.00    +0.000 A 
BRANCH  23  26
ATOM     26  C   UNL     1      -0.783  11.409  19.440  0.00  0.00    +0.000 C 
ATOM     27  C   UNL     1      -2.128  11.211  18.701  0.00  0.00    +0.000 C 
ATOM     28  C   UNL     1      -1.121  11.604  20.932  0.00  0.00    +0.000 C 
ATOM     29  C   UNL     1      -0.144  12.702  18.893  0.00  0.00    +0.000 C 
ENDBRANCH  23  26
ENDBRANCH  19  20
ENDBRANCH  18  19
ENDBRANCH   6  18
TORSDOF 7
ENDMDL
MODEL 7
REMARK VINA RESULT:      -7.5      0.940      1.672
REMARK  Name = 
REMARK  11 active torsions:
REMARK  status: ('A' for Active; 'I' for Inactive)
REMARK    1  A    between atoms: C_1  and  O_2
REMARK    2  A    between atoms: O_2  and  N_3
REMARK    3  A    between atoms: C_4  and  C_5
REMARK    4  A    between atoms: C_4  and  C_12
REMARK    5  A    between atoms: C_17  and  C_18
REMARK    6  A    between atoms: C_18  and  O_19
REMARK    7  A    between atoms: O_19  and  C_20
REMARK    8  A    between atoms: C_23  and  C_24
REMARK    9  A    between atoms: C_24  and  C_25
REMARK   10  A    between atoms: C_24  and  C_26
REMARK   11  A    between atoms: C_24  and  C_27
REMARK                            x       y       z     vdW  Elec       q    Type
REMARK                         _______ _______ _______ _____ _____    ______ ____
ROOT
ATOM      1  C   UNL     1       5.689   5.425  17.715  0.00  0.00    +0.000 A 
ATOM      2  C   UNL     1       6.934   4.948  18.190  0.00  0.00    +0.000 A 
ATOM      3  C   UNL     1       8.021   5.798  18.387  0.00  0.00    +0.000 A 
ATOM      4  C   UNL     1       7.879   7.154  18.151  0.00  0.00    +0.000 A 
ATOM      5  C   UNL     1       6.646   7.654  17.740  0.00  0.00    +0.000 A 
ATOM      6  C   UNL     1       5.516   6.821  17.532  0.00  0.00    +0.000 A 
ENDROOT
BRANCH   1   8
ATOM      7  N   UNL     1       4.502   3.852  16.170  0.00  0.00    +0.000 NA
ATOM      8  C   UNL     1       4.691   4.348  17.357  0.00  0.00    +0.000 C 
BRANCH   8   9
ATOM      9  C   UNL     1       3.702   3.860  18.406  0.00  0.00    +0.000 A 
ATOM     10  C   UNL     1       3.011   2.645  18.318  0.00  0.00    +0.000 A 
ATOM     11  C   UNL     1       2.244   2.189  19.400  0.00  0.00    +0.000 A 
ATOM     12  C   UNL     1       2.135   2.956  20.560  0.00  0.00    +0.000 A 
ATOM     13 CL   UNL     1       1.210   2.380  21.891  0.00  0.00    +0.000 Cl
ATOM     14  C   UNL     1       2.781   4.183  20.649  0.00  0.00    +0.000 A 
ATOM     15  C   UNL     1       3.560   4.630  19.579  0.00  0.00    +0.000 A 
ENDBRANCH   8   9
BRANCH   7  17
ATOM     16  C   UNL     1       6.192   3.732  14.661  0.00  0.00    +0.000 C 
ATOM     17  O   UNL     1       5.151   4.557  15.168  0.00  0.00    +0.000 OA
ENDBRANCH   7  17
ENDBRANCH   1   8
BRANCH   6  18
ATOM     18  C   UNL     1       4.270   7.525  17.009  0.00  0.00    +0.000 C 
BRANCH  18  19
ATOM     19  O   UNL     1       2.989   7.235  17.574  0.00  0.00    +0.000 OA
BRANCH  19  20
ATOM     20  C   UNL     1       2.211   8.157  18.201  0.00  0.00    +0.000 A 
ATOM     21  C   UNL     1       1.951   7.863  19.540  0.00  0.00    +0.000 A 
ATOM     22  C   UNL     1       1.270   8.761  20.383  0.00  0.00    +0.000 A 
ATOM     23  C   UNL     1       0.809   9.986  19.895  0.00  0.00    +0.000 A 
ATOM     24  C   UNL     1       1.029  10.246  18.527  0.00  0.00    +0.000 A 
ATOM     25  C   UNL     1       1.725   9.349  17.695  0.00  0.00    +0.000 A 
BRANCH  23  26
ATOM     26  C   UNL     1       0.104  11.022  20.795  0.00  0.00    +0.000 C 
ATOM     27  C   UNL     1      -1.249  11.519  20.233  0.00  0.00    +0.000 C 
ATOM     28  C   UNL     1      -0.189  10.409  22.180  0.00  0.00    +0.000 C 
ATOM     29  C   UNL     1       1.011  12.257  20.970  0.00  0.00    +0.000 C 
ENDBRANCH  23  26
ENDBRANCH  19  20
ENDBRANCH  18  19
ENDBRANCH   6  18
TORSDOF 7
ENDMDL
MODEL 8
REMARK VINA RESULT:      -7.5      4.964      8.041
REMARK  Name = 
REMARK  11 active torsions:
REMARK  status: ('A' for Active; 'I' for Inactive)
REMARK    1  A    between atoms: C_1  and  O_2
REMARK    2  A    between atoms: O_2  and  N_3
REMARK    3  A    between atoms: C_4  and  C_5
REMARK    4  A    between atoms: C_4  and  C_12
REMARK    5  A    between atoms: C_17  and  C_18
REMARK    6  A    between atoms: C_18  and  O_19
REMARK    7  A    between atoms: O_19  and  C_20
REMARK    8  A    between atoms: C_23  and  C_24
REMARK    9  A    between atoms: C_24  and  C_25
REMARK   10  A    between atoms: C_24  and  C_26
REMARK   11  A    between atoms: C_24  and  C_27
REMARK                            x       y       z     vdW  Elec       q    Type
REMARK                         _______ _______ _______ _____ _____    ______ ____
ROOT
ATOM      1  C   UNL     1       0.768   9.716  19.008  0.00  0.00    +0.000 A 
ATOM      2  C   UNL     1       1.382   9.162  17.859  0.00  0.00    +0.000 A 
ATOM      3  C   UNL     1       2.235   8.062  17.939  0.00  0.00    +0.000 A 
ATOM      4  C   UNL     1       2.466   7.464  19.166  0.00  0.00    +0.000 A 
ATOM      5  C   UNL     1       1.825   7.956  20.300  0.00  0.00    +0.000 A 
ATOM      6  C   UNL     1       0.948   9.072  20.258  0.00  0.00    +0.000 A 
ENDROOT
BRANCH   1   8
ATOM      7  N   UNL     1       0.599  12.203  18.770  0.00  0.00    +0.000 NA
ATOM      8  C   UNL     1       0.049  11.025  18.774  0.00  0.00    +0.000 C 
BRANCH   8   9
ATOM      9  C   UNL     1      -1.468  11.040  18.662  0.00  0.00    +0.000 A 
ATOM     10  C   UNL     1      -2.284  11.997  19.279  0.00  0.00    +0.000 A 
ATOM     11  C   UNL     1      -3.657  12.043  18.996  0.00  0.00    +0.000 A 
ATOM     12  C   UNL     1      -4.228  11.115  18.125  0.00  0.00    +0.000 A 
ATOM     13 CL   UNL     1      -5.909  11.191  17.766  0.00  0.00    +0.000 Cl
ATOM     14  C   UNL     1      -3.441  10.133  17.535  0.00  0.00    +0.000 A 
ATOM     15  C   UNL     1      -2.070  10.099  17.803  0.00  0.00    +0.000 A 
ENDBRANCH   8   9
BRANCH   7  17
ATOM     16  C   UNL     1       2.227  13.528  19.631  0.00  0.00    +0.000 C 
ATOM     17  O   UNL     1       1.908  12.203  19.229  0.00  0.00    +0.000 OA
ENDBRANCH   7  17
ENDBRANCH   1   8
BRANCH   6  18
ATOM     18  C   UNL     1       0.396   9.522  21.605  0.00  0.00    +0.000 C 
BRANCH  18  19
ATOM     19  O   UNL     1       0.506  10.889  22.006  0.00  0.00    +0.000 OA
BRANCH  19  20
ATOM     20  C   UNL     1      -0.540  11.636  22.451  0.00  0.00    +0.000 A 
ATOM     21  C   UNL     1      -0.416  13.000  22.188  0.00  0.00    +0.000 A 
ATOM     22  C   UNL     1      -1.453  13.911  22.460  0.00  0.00    +0.000 A 
ATOM     23  C   UNL     1      -2.653  13.475  23.029  0.00  0.00    +0.000 A 
ATOM     24  C   UNL     1      -2.744  12.104  23.342  0.00  0.00    +0.000 A 
ATOM     25  C   UNL     1      -1.707  11.197  23.051  0.00  0.00    +0.000 A 
BRANCH  23  26
ATOM     26  C   UNL     1      -3.835  14.429  23.298  0.00  0.00    +0.000 C 
ATOM     27  C   UNL     1      -3.647  15.319  24.549  0.00  0.00    +0.000 C 
ATOM     28  C   UNL     1      -4.030  15.382  22.100  0.00  0.00    +0.000 C 
ATOM     29  C   UNL     1      -5.124  13.609  23.506  0.00  0.00    +0.000 C 
ENDBRANCH  23  26
ENDBRANCH  19  20
ENDBRANCH  18  19
ENDBRANCH   6  18
TORSDOF 7
ENDMDL
MODEL 9
REMARK VINA RESULT:      -7.5      4.531      9.197
REMARK  Name = 
REMARK  11 active torsions:
REMARK  status: ('A' for Active; 'I' for Inactive)
REMARK    1  A    between atoms: C_1  and  O_2
REMARK    2  A    between atoms: O_2  and  N_3
REMARK    3  A    between atoms: C_4  and  C_5
REMARK    4  A    between atoms: C_4  and  C_12
REMARK    5  A    between atoms: C_17  and  C_18
REMARK    6  A    between atoms: C_18  and  O_19
REMARK    7  A    between atoms: O_19  and  C_20
REMARK    8  A    between atoms: C_23  and  C_24
REMARK    9  A    between atoms: C_24  and  C_25
REMARK   10  A    between atoms: C_24  and  C_26
REMARK   11  A    between atoms: C_24  and  C_27
REMARK                            x       y       z     vdW  Elec       q    Type
REMARK                         _______ _______ _______ _____ _____    ______ ____
ROOT
ATOM      1  C   UNL     1      -0.425  11.469  20.707  0.00  0.00    +0.000 A 
ATOM      2  C   UNL     1      -0.996  11.978  21.898  0.00  0.00    +0.000 A 
ATOM      3  C   UNL     1      -1.156  11.185  23.034  0.00  0.00    +0.000 A 
ATOM      4  C   UNL     1      -0.711   9.875  23.021  0.00  0.00    +0.000 A 
ATOM      5  C   UNL     1      -0.091   9.372  21.879  0.00  0.00    +0.000 A 
ATOM      6  C   UNL     1       0.090  10.149  20.705  0.00  0.00    +0.000 A 
ENDROOT
BRANCH   1   8
ATOM      7  N   UNL     1      -1.483  12.402  18.638  0.00  0.00    +0.000 NA
ATOM      8  C   UNL     1      -0.521  12.391  19.513  0.00  0.00    +0.000 C 
BRANCH   8   9
ATOM      9  C   UNL     1       0.642  13.314  19.179  0.00  0.00    +0.000 A 
ATOM     10  C   UNL     1       1.890  12.862  18.735  0.00  0.00    +0.000 A 
ATOM     11  C   UNL     1       2.857  13.778  18.291  0.00  0.00    +0.000 A 
ATOM     12  C   UNL     1       2.594  15.148  18.319  0.00  0.00    +0.000 A 
ATOM     13 CL   UNL     1       3.775  16.263  17.753  0.00  0.00    +0.000 Cl
ATOM     14  C   UNL     1       1.375  15.616  18.794  0.00  0.00    +0.000 A 
ATOM     15  C   UNL     1       0.406  14.704  19.220  0.00  0.00    +0.000 A 
ENDBRANCH   8   9
BRANCH   7  17
ATOM     16  C   UNL     1      -2.284  10.589  17.534  0.00  0.00    +0.000 C 
ATOM     17  O   UNL     1      -2.344  11.321  18.751  0.00  0.00    +0.000 OA
ENDBRANCH   7  17
ENDBRANCH   1   8
BRANCH   6  18
ATOM     18  C   UNL     1       0.717   9.415  19.525  0.00  0.00    +0.000 C 
BRANCH  18  19
ATOM     19  O   UNL     1       1.987   8.775  19.669  0.00  0.00    +0.000 OA
BRANCH  19  20
ATOM     20  C   UNL     1       2.216   7.468  19.368  0.00  0.00    +0.000 A 
ATOM     21  C   UNL     1       1.860   6.582  20.384  0.00  0.00    +0.000 A 
ATOM     22  C   UNL     1       1.907   5.186  20.208  0.00  0.00    +0.000 A 
ATOM     23  C   UNL     1       2.336   4.635  18.998  0.00  0.00    +0.000 A 
ATOM     24  C   UNL     1       2.746   5.541  18.000  0.00  0.00    +0.000 A 
ATOM     25  C   UNL     1       2.681   6.936  18.179  0.00  0.00    +0.000 A 
BRANCH  23  26
ATOM     26  C   UNL     1       2.355   3.114  18.744  0.00  0.00    +0.000 C 
ATOM     27  C   UNL     1       3.407   2.354  19.585  0.00  0.00    +0.000 C 
ATOM     28  C   UNL     1       0.983   2.500  19.090  0.00  0.00    +0.000 C 
ATOM     29  C   UNL     1       2.671   2.842  17.259  0.00  0.00    +0.000 C 
ENDBRANCH  23  26
ENDBRANCH  19  20
ENDBRANCH  18  19
ENDBRANCH   6  18
TORSDOF 7
ENDMDL
