MODEL 1
REMARK VINA RESULT:      -6.4      0.000      0.000
REMARK  Name = 
REMARK  5 active torsions:
REMARK  status: ('A' for Active; 'I' for Inactive)
REMARK    1  A    between atoms: N_1  and  CA_2
REMARK    2  A    between atoms: CA_2  and  C_3
REMARK    3  A    between atoms: CA_2  and  C_6
REMARK    4  A    between atoms: C_3  and  OXT_5
REMARK    5  A    between atoms: C_9  and  N_10
REMARK                            x       y       z     vdW  Elec       q    Type
REMARK                         _______ _______ _______ _____ _____    ______ ____
ROOT
ATOM      1  C   UNL     1       6.182   5.161  17.581  0.00  0.00    +0.000 A 
ATOM      2  C   UNL     1       5.246   4.717  16.634  0.00  0.00    +0.000 A 
ATOM      3  C   UNL     1       4.031   4.164  17.037  0.00  0.00    +0.000 A 
ATOM      4  C   UNL     1       3.710   4.049  18.402  0.00  0.00    +0.000 A 
ATOM      5  C   UNL     1       4.659   4.467  19.352  0.00  0.00    +0.000 A 
ATOM      6  C   UNL     1       5.883   5.013  18.948  0.00  0.00    +0.000 A 
ENDROOT
BRANCH   4   7
ATOM      7  N   UNL     1       2.427   3.540  18.831  0.00  0.00    +0.000 N 
ATOM      8  C   UNL     1       1.822   3.750  20.022  0.00  0.00    +0.000 A 
ATOM      9  C   UNL     1       0.638   3.050  20.040  0.00  0.00    +0.000 A 
ATOM     10  C   UNL     1       0.574   2.419  18.817  0.00  0.00    +0.000 A 
ATOM     11  N   UNL     1       1.671   2.731  18.099  0.00  0.00    +0.000 NA
ENDBRANCH   4   7
BRANCH   1  12
ATOM     12  CA  UNL     1       7.464   5.825  17.109  0.00  0.00    +0.000 C 
BRANCH  12  13
ATOM     13  N   UNL     1       7.470   5.920  15.647  0.00  0.00    +0.000 NA
ATOM     14  H1  UNL     1       6.684   5.353  15.256  0.00  0.00    +0.000 HD
ATOM     15  H2  UNL     1       8.367   5.550  15.255  0.00  0.00    +0.000 HD
ENDBRANCH  12  13
BRANCH  12  16
ATOM     16  C   UNL     1       7.693   7.180  17.745  0.00  0.00    +0.000 C 
ATOM     17  O   UNL     1       7.236   8.189  17.232  0.00  0.00    +0.000 OA
BRANCH  16  18
ATOM     18  OXT UNL     1       8.429   7.288  18.874  0.00  0.00    +0.000 OA
ATOM     19  HXT UNL     1       8.150   7.841  19.618  0.00  0.00    +0.000 HD
ENDBRANCH  16  18
ENDBRANCH  12  16
ENDBRANCH   1  12
TORSDOF 5
ENDMDL
MODEL 2
REMARK VINA RESULT:      -6.4      0.257      1.223
REMARK  Name = 
REMARK  5 active torsions:
REMARK  status: ('A' for Active; 'I' for Inactive)
REMARK    1  A    between atoms: N_1  and  CA_2
REMARK    2  A    between atoms: CA_2  and  C_3
REMARK    3  A    between atoms: CA_2  and  C_6
REMARK    4  A    between atoms: C_3  and  OXT_5
REMARK    5  A    between atoms: C_9  and  N_10
REMARK                            x       y       z     vdW  Elec       q    Type
REMARK                         _______ _______ _______ _____ _____    ______ ____
ROOT
ATOM      1  C   UNL     1       6.074   5.436  17.639  0.00  0.00    +0.000 A 
ATOM      2  C   UNL     1       5.863   5.087  18.981  0.00  0.00    +0.000 A 
ATOM      3  C   UNL     1       4.648   4.539  19.394  0.00  0.00    +0.000 A 
ATOM      4  C   UNL     1       3.611   4.315  18.471  0.00  0.00    +0.000 A 
ATOM      5  C   UNL     1       3.811   4.690  17.131  0.00  0.00    +0.000 A 
ATOM      6  C   UNL     1       5.027   5.249  16.718  0.00  0.00    +0.000 A 
ENDROOT
BRANCH   4   7
ATOM      7  N   UNL     1       2.373   3.686  18.873  0.00  0.00    +0.000 N 
ATOM      8  C   UNL     1       1.768   3.768  20.080  0.00  0.00    +0.000 A 
ATOM      9  C   UNL     1       0.637   2.985  20.056  0.00  0.00    +0.000 A 
ATOM     10  C   UNL     1       0.604   2.438  18.792  0.00  0.00    +0.000 A 
ATOM     11  N   UNL     1       1.668   2.878  18.090  0.00  0.00    +0.000 NA
ENDBRANCH   4   7
BRANCH   1  12
ATOM     12  CA  UNL     1       7.433   5.962  17.209  0.00  0.00    +0.000 C 
BRANCH  12  13
ATOM     13  N   UNL     1       7.520   5.987  15.747  0.00  0.00    +0.000 NA
ATOM     14  H1  UNL     1       8.520   5.907  15.455  0.00  0.00    +0.000 HD
ATOM     15  H2  UNL     1       7.140   6.885  15.368  0.00  0.00    +0.000 HD
ENDBRANCH  12  13
BRANCH  12  16
ATOM     16  C   UNL     1       7.753   7.320  17.799  0.00  0.00    +0.000 C 
ATOM     17  O   UNL     1       7.347   8.338  17.263  0.00  0.00    +0.000 OA
BRANCH  16  18
ATOM     18  OXT UNL     1       8.515   7.417  18.912  0.00  0.00    +0.000 OA
ATOM     19  HXT UNL     1       8.142   7.668  19.770  0.00  0.00    +0.000 HD
ENDBRANCH  16  18
ENDBRANCH  12  16
ENDBRANCH   1  12
TORSDOF 5
ENDMDL
MODEL 3
REMARK VINA RESULT:      -6.3      2.056      2.537
REMARK  Name = 
REMARK  5 active torsions:
REMARK  status: ('A' for Active; 'I' for Inactive)
REMARK    1  A    between atoms: N_1  and  CA_2
REMARK    2  A    between atoms: CA_2  and  C_3
REMARK    3  A    between atoms: CA_2  and  C_6
REMARK    4  A    between atoms: C_3  and  OXT_5
REMARK    5  A    between atoms: C_9  and  N_10
REMARK                            x       y       z     vdW  Elec       q    Type
REMARK                         _______ _______ _______ _____ _____    ______ ____
ROOT
ATOM      1  C   UNL     1       4.718   4.882  16.496  0.00  0.00    +0.000 A 
ATOM      2  C   UNL     1       4.326   5.744  17.531  0.00  0.00    +0.000 A 
ATOM      3  C   UNL     1       3.623   5.260  18.635  0.00  0.00    +0.000 A 
ATOM      4  C   UNL     1       3.302   3.895  18.741  0.00  0.00    +0.000 A 
ATOM      5  C   UNL     1       3.671   3.034  17.692  0.00  0.00    +0.000 A 
ATOM      6  C   UNL     1       4.367   3.521  16.579  0.00  0.00    +0.000 A 
ENDROOT
BRANCH   4   7
ATOM      7  N   UNL     1       2.634   3.370  19.911  0.00  0.00    +0.000 N 
ATOM      8  C   UNL     1       1.338   3.539  20.256  0.00  0.00    +0.000 A 
ATOM      9  C   UNL     1       1.122   2.915  21.463  0.00  0.00    +0.000 A 
ATOM     10  C   UNL     1       2.341   2.377  21.813  0.00  0.00    +0.000 A 
ATOM     11  N   UNL     1       3.245   2.666  20.856  0.00  0.00    +0.000 NA
ENDBRANCH   4   7
BRANCH   1  12
ATOM     12  CA  UNL     1       5.545   5.426  15.344  0.00  0.00    +0.000 C 
BRANCH  12  13
ATOM     13  N   UNL     1       5.294   6.859  15.180  0.00  0.00    +0.000 NA
ATOM     14  H1  UNL     1       4.740   7.021  14.309  0.00  0.00    +0.000 HD
ATOM     15  H2  UNL     1       6.193   7.387  15.099  0.00  0.00    +0.000 HD
ENDBRANCH  12  13
BRANCH  12  16
ATOM     16  C   UNL     1       7.026   5.145  15.498  0.00  0.00    +0.000 C 
ATOM     17  O   UNL     1       7.797   5.371  14.580  0.00  0.00    +0.000 OA
BRANCH  16  18
ATOM     18  OXT UNL     1       7.504   4.616  16.648  0.00  0.00    +0.000 OA
ATOM     19  HXT UNL     1       7.687   5.162  17.426  0.00  0.00    +0.000 HD
ENDBRANCH  16  18
ENDBRANCH  12  16
ENDBRANCH   1  12
TORSDOF 5
ENDMDL
MODEL 4
REMARK VINA RESULT:      -6.3      3.351      6.234
REMARK  Name = 
REMARK  5 active torsions:
REMARK  status: ('A' for Active; 'I' for Inactive)
REMARK    1  A    between atoms: N_1  and  CA_2
REMARK    2  A    between atoms: CA_2  and  C_3
REMARK    3  A    between atoms: CA_2  and  C_6
REMARK    4  A    between atoms: C_3  and  OXT_5
REMARK    5  A    between atoms: C_9  and  N_10
REMARK                            x       y       z     vdW  Elec       q    Type
REMARK                         _______ _______ _______ _____ _____    ______ ____
ROOT
ATOM      1  C   UNL     1       5.248   4.231  18.164  0.00  0.00    +0.000 A 
ATOM      2  C   UNL     1       6.603   4.534  17.961  0.00  0.00    +0.000 A 
ATOM      3  C   UNL     1       7.125   4.639  16.671  0.00  0.00    +0.000 A 
ATOM      4  C   UNL     1       6.303   4.454  15.546  0.00  0.00    +0.000 A 
ATOM      5  C   UNL     1       4.951   4.123  15.748  0.00  0.00    +0.000 A 
ATOM      6  C   UNL     1       4.429   4.008  17.042  0.00  0.00    +0.000 A 
ENDROOT
BRANCH   4   7
ATOM      7  N   UNL     1       6.816   4.626  14.205  0.00  0.00    +0.000 N 
ATOM      8  C   UNL     1       6.483   3.912  13.105  0.00  0.00    +0.000 A 
ATOM      9  C   UNL     1       7.235   4.367  12.046  0.00  0.00    +0.000 A 
ATOM     10  C   UNL     1       8.021   5.371  12.567  0.00  0.00    +0.000 A 
ATOM     11  N   UNL     1       7.750   5.511  13.880  0.00  0.00    +0.000 NA
ENDBRANCH   4   7
BRANCH   1  12
ATOM     12  CA  UNL     1       4.695   4.197  19.578  0.00  0.00    +0.000 C 
BRANCH  12  13
ATOM     13  N   UNL     1       3.614   5.176  19.717  0.00  0.00    +0.000 NA
ATOM     14  H1  UNL     1       3.089   4.995  20.602  0.00  0.00    +0.000 HD
ATOM     15  H2  UNL     1       2.943   5.104  18.918  0.00  0.00    +0.000 HD
ENDBRANCH  12  13
BRANCH  12  16
ATOM     16  C   UNL     1       4.238   2.816  19.999  0.00  0.00    +0.000 C 
ATOM     17  O   UNL     1       3.071   2.614  20.293  0.00  0.00    +0.000 OA
BRANCH  16  18
ATOM     18  OXT UNL     1       5.125   1.798  20.076  0.00  0.00    +0.000 OA
ATOM     19  HXT UNL     1       6.014   1.862  19.698  0.00  0.00    +0.000 HD
ENDBRANCH  16  18
ENDBRANCH  12  16
ENDBRANCH   1  12
TORSDOF 5
ENDMDL
MODEL 5
REMARK VINA RESULT:      -6.2      3.314      6.100
REMARK  Name = 
REMARK  5 active torsions:
REMARK  status: ('A' for Active; 'I' for Inactive)
REMARK    1  A    between atoms: N_1  and  CA_2
REMARK    2  A    between atoms: CA_2  and  C_3
REMARK    3  A    between atoms: CA_2  and  C_6
REMARK    4  A    between atoms: C_3  and  OXT_5
REMARK    5  A    between atoms: C_9  and  N_10
REMARK                            x       y       z     vdW  Elec       q    Type
REMARK                         _______ _______ _______ _____ _____    ______ ____
ROOT
ATOM      1  C   UNL     1       5.163   4.434  18.293  0.00  0.00    +0.000 A 
ATOM      2  C   UNL     1       4.406   3.966  17.209  0.00  0.00    +0.000 A 
ATOM      3  C   UNL     1       4.891   4.063  15.904  0.00  0.00    +0.000 A 
ATOM      4  C   UNL     1       6.157   4.620  15.648  0.00  0.00    +0.000 A 
ATOM      5  C   UNL     1       6.906   5.114  16.731  0.00  0.00    +0.000 A 
ATOM      6  C   UNL     1       6.414   5.027  18.039  0.00  0.00    +0.000 A 
ENDROOT
BRANCH   4   7
ATOM      7  N   UNL     1       6.700   4.664  14.309  0.00  0.00    +0.000 N 
ATOM      8  C   UNL     1       6.371   3.867  13.267  0.00  0.00    +0.000 A 
ATOM      9  C   UNL     1       7.155   4.211  12.190  0.00  0.00    +0.000 A 
ATOM     10  C   UNL     1       7.956   5.237  12.640  0.00  0.00    +0.000 A 
ATOM     11  N   UNL     1       7.663   5.496  13.930  0.00  0.00    +0.000 NA
ENDBRANCH   4   7
BRANCH   1  12
ATOM     12  CA  UNL     1       4.638   4.247  19.706  0.00  0.00    +0.000 C 
BRANCH  12  13
ATOM     13  N   UNL     1       3.596   5.238  19.988  0.00  0.00    +0.000 NA
ATOM     14  H1  UNL     1       3.527   5.910  19.191  0.00  0.00    +0.000 HD
ATOM     15  H2  UNL     1       3.823   5.779  20.854  0.00  0.00    +0.000 HD
ENDBRANCH  12  13
BRANCH  12  16
ATOM     16  C   UNL     1       4.140   2.841  19.969  0.00  0.00    +0.000 C 
ATOM     17  O   UNL     1       2.968   2.642  20.243  0.00  0.00    +0.000 OA
BRANCH  16  18
ATOM     18  OXT UNL     1       4.997   1.796  19.928  0.00  0.00    +0.000 OA
ATOM     19  HXT UNL     1       5.068   1.220  19.152  0.00  0.00    +0.000 HD
ENDBRANCH  16  18
ENDBRANCH  12  16
ENDBRANCH   1  12
TORSDOF 5
ENDMDL
MODEL 6
REMARK VINA RESULT:      -6.2      1.923      2.553
REMARK  Name = 
REMARK  5 active torsions:
REMARK  status: ('A' for Active; 'I' for Inactive)
REMARK    1  A    between atoms: N_1  and  CA_2
REMARK    2  A    between atoms: CA_2  and  C_3
REMARK    3  A    between atoms: CA_2  and  C_6
REMARK    4  A    between atoms: C_3  and  OXT_5
REMARK    5  A    between atoms: C_9  and  N_10
REMARK                            x       y       z     vdW  Elec       q    Type
REMARK                         _______ _______ _______ _____ _____    ______ ____
ROOT
ATOM      1  C   UNL     1       5.224   5.492  17.133  0.00  0.00    +0.000 A 
ATOM      2  C   UNL     1       5.140   5.970  18.449  0.00  0.00    +0.000 A 
ATOM      3  C   UNL     1       4.300   5.355  19.379  0.00  0.00    +0.000 A 
ATOM      4  C   UNL     1       3.528   4.236  19.021  0.00  0.00    +0.000 A 
ATOM      5  C   UNL     1       3.591   3.772  17.695  0.00  0.00    +0.000 A 
ATOM      6  C   UNL     1       4.426   4.395  16.759  0.00  0.00    +0.000 A 
ENDROOT
BRANCH   4   7
ATOM      7  N   UNL     1       2.706   3.549  19.992  0.00  0.00    +0.000 N 
ATOM      8  C   UNL     1       1.377   3.701  20.191  0.00  0.00    +0.000 A 
ATOM      9  C   UNL     1       0.998   2.896  21.241  0.00  0.00    +0.000 A 
ATOM     10  C   UNL     1       2.154   2.270  21.651  0.00  0.00    +0.000 A 
ATOM     11  N   UNL     1       3.180   2.682  20.879  0.00  0.00    +0.000 NA
ENDBRANCH   4   7
BRANCH   1  12
ATOM     12  CA  UNL     1       6.202   6.137  16.166  0.00  0.00    +0.000 C 
BRANCH  12  13
ATOM     13  N   UNL     1       6.802   7.324  16.779  0.00  0.00    +0.000 NA
ATOM     14  H1  UNL     1       6.845   8.097  16.076  0.00  0.00    +0.000 HD
ATOM     15  H2  UNL     1       7.776   7.123  17.103  0.00  0.00    +0.000 HD
ENDBRANCH  12  13
BRANCH  12  16
ATOM     16  C   UNL     1       7.267   5.177  15.678  0.00  0.00    +0.000 C 
ATOM     17  O   UNL     1       7.825   4.423  16.459  0.00  0.00    +0.000 OA
BRANCH  16  18
ATOM     18  OXT UNL     1       7.629   5.165  14.375  0.00  0.00    +0.000 OA
ATOM     19  HXT UNL     1       7.029   4.863  13.678  0.00  0.00    +0.000 HD
ENDBRANCH  16  18
ENDBRANCH  12  16
ENDBRANCH   1  12
TORSDOF 5
ENDMDL
MODEL 7
REMARK VINA RESULT:      -6.2      3.403      6.016
REMARK  Name = 
REMARK  5 active torsions:
REMARK  status: ('A' for Active; 'I' for Inactive)
REMARK    1  A    between atoms: N_1  and  CA_2
REMARK    2  A    between atoms: CA_2  and  C_3
REMARK    3  A    between atoms: CA_2  and  C_6
REMARK    4  A    between atoms: C_3  and  OXT_5
REMARK    5  A    between atoms: C_9  and  N_10
REMARK                            x       y       z     vdW  Elec       q    Type
REMARK                         _______ _______ _______ _____ _____    ______ ____
ROOT
ATOM      1  C   UNL     1       2.838   4.251  19.483  0.00  0.00    +0.000 A 
ATOM      2  C   UNL     1       2.568   3.548  18.299  0.00  0.00    +0.000 A 
ATOM      3  C   UNL     1       3.423   3.645  17.201  0.00  0.00    +0.000 A 
ATOM      4  C   UNL     1       4.582   4.440  17.260  0.00  0.00    +0.000 A 
ATOM      5  C   UNL     1       4.839   5.167  18.436  0.00  0.00    +0.000 A 
ATOM      6  C   UNL     1       3.976   5.078  19.535  0.00  0.00    +0.000 A 
ENDROOT
BRANCH   4   7
ATOM      7  N   UNL     1       5.511   4.496  16.154  0.00  0.00    +0.000 N 
ATOM      8  C   UNL     1       6.734   5.073  16.142  0.00  0.00    +0.000 A 
ATOM      9  C   UNL     1       7.267   4.942  14.881  0.00  0.00    +0.000 A 
ATOM     10  C   UNL     1       6.310   4.270  14.153  0.00  0.00    +0.000 A 
ATOM     11  N   UNL     1       5.251   4.009  14.946  0.00  0.00    +0.000 NA
ENDBRANCH   4   7
BRANCH   1  12
ATOM     12  CA  UNL     1       1.928   4.066  20.685  0.00  0.00    +0.000 C 
BRANCH  12  13
ATOM     13  N   UNL     1       0.532   3.983  20.247  0.00  0.00    +0.000 NA
ATOM     14  H1  UNL     1       0.137   4.946  20.151  0.00  0.00    +0.000 HD
ATOM     15  H2  UNL     1      -0.045   3.461  20.946  0.00  0.00    +0.000 HD
ENDBRANCH  12  13
BRANCH  12  16
ATOM     16  C   UNL     1       2.307   2.870  21.532  0.00  0.00    +0.000 C 
ATOM     17  O   UNL     1       1.504   2.387  22.314  0.00  0.00    +0.000 OA
BRANCH  16  18
ATOM     18  OXT UNL     1       3.549   2.342  21.450  0.00  0.00    +0.000 OA
ATOM     19  HXT UNL     1       4.199   2.445  22.160  0.00  0.00    +0.000 HD
ENDBRANCH  16  18
ENDBRANCH  12  16
ENDBRANCH   1  12
TORSDOF 5
ENDMDL
MODEL 8
REMARK VINA RESULT:      -6.1      1.883      2.130
REMARK  Name = 
REMARK  5 active torsions:
REMARK  status: ('A' for Active; 'I' for Inactive)
REMARK    1  A    between atoms: N_1  and  CA_2
REMARK    2  A    between atoms: CA_2  and  C_3
REMARK    3  A    between atoms: CA_2  and  C_6
REMARK    4  A    between atoms: C_3  and  OXT_5
REMARK    5  A    between atoms: C_9  and  N_10
REMARK                            x       y       z     vdW  Elec       q    Type
REMARK                         _______ _______ _______ _____ _____    ______ ____
ROOT
ATOM      1  C   UNL     1       5.320   5.373  17.159  0.00  0.00    +0.000 A 
ATOM      2  C   UNL     1       4.387   4.426  16.709  0.00  0.00    +0.000 A 
ATOM      3  C   UNL     1       3.517   3.801  17.603  0.00  0.00    +0.000 A 
ATOM      4  C   UNL     1       3.548   4.113  18.974  0.00  0.00    +0.000 A 
ATOM      5  C   UNL     1       4.502   5.041  19.430  0.00  0.00    +0.000 A 
ATOM      6  C   UNL     1       5.381   5.662  18.535  0.00  0.00    +0.000 A 
ENDROOT
BRANCH   4   7
ATOM      7  N   UNL     1       2.608   3.523  19.900  0.00  0.00    +0.000 N 
ATOM      8  C   UNL     1       1.258   3.554  19.825  0.00  0.00    +0.000 A 
ATOM      9  C   UNL     1       0.745   2.913  20.929  0.00  0.00    +0.000 A 
ATOM     10  C   UNL     1       1.844   2.509  21.654  0.00  0.00    +0.000 A 
ATOM     11  N   UNL     1       2.965   2.890  21.011  0.00  0.00    +0.000 NA
ENDBRANCH   4   7
BRANCH   1  12
ATOM     12  CA  UNL     1       6.201   6.089  16.150  0.00  0.00    +0.000 C 
BRANCH  12  13
ATOM     13  N   UNL     1       6.737   7.320  16.738  0.00  0.00    +0.000 NA
ATOM     14  H1  UNL     1       6.288   8.148  16.286  0.00  0.00    +0.000 HD
ATOM     15  H2  UNL     1       7.770   7.384  16.588  0.00  0.00    +0.000 HD
ENDBRANCH  12  13
BRANCH  12  16
ATOM     16  C   UNL     1       7.313   5.213  15.612  0.00  0.00    +0.000 C 
ATOM     17  O   UNL     1       7.646   5.286  14.441  0.00  0.00    +0.000 OA
BRANCH  16  18
ATOM     18  OXT UNL     1       7.929   4.320  16.420  0.00  0.00    +0.000 OA
ATOM     19  HXT UNL     1       7.845   3.365  16.288  0.00  0.00    +0.000 HD
ENDBRANCH  16  18
ENDBRANCH  12  16
ENDBRANCH   1  12
TORSDOF 5
ENDMDL
MODEL 9
REMARK VINA RESULT:      -6.1      3.422      6.200
REMARK  Name = 
REMARK  5 active torsions:
REMARK  status: ('A' for Active; 'I' for Inactive)
REMARK    1  A    between atoms: N_1  and  CA_2
REMARK    2  A    between atoms: CA_2  and  C_3
REMARK    3  A    between atoms: CA_2  and  C_6
REMARK    4  A    between atoms: C_3  and  OXT_5
REMARK    5  A    between atoms: C_9  and  N_10
REMARK                            x       y       z     vdW  Elec       q    Type
REMARK                         _______ _______ _______ _____ _____    ______ ____
ROOT
ATOM      1  C   UNL     1       2.327   3.888  19.336  0.00  0.00    +0.000 A 
ATOM      2  C   UNL     1       2.378   3.080  18.190  0.00  0.00    +0.000 A 
ATOM      3  C   UNL     1       3.345   3.295  17.208  0.00  0.00    +0.000 A 
ATOM      4  C   UNL     1       4.299   4.319  17.350  0.00  0.00    +0.000 A 
ATOM      5  C   UNL     1       4.232   5.147  18.485  0.00  0.00    +0.000 A 
ATOM      6  C   UNL     1       3.255   4.939  19.466  0.00  0.00    +0.000 A 
ENDROOT
BRANCH   4   7
ATOM      7  N   UNL     1       5.348   4.509  16.374  0.00  0.00    +0.000 N 
ATOM      8  C   UNL     1       5.274   4.287  15.042  0.00  0.00    +0.000 A 
ATOM      9  C   UNL     1       6.505   4.547  14.486  0.00  0.00    +0.000 A 
ATOM     10  C   UNL     1       7.304   4.926  15.543  0.00  0.00    +0.000 A 
ATOM     11  N   UNL     1       6.580   4.895  16.680  0.00  0.00    +0.000 NA
ENDBRANCH   4   7
BRANCH   1  12
ATOM     12  CA  UNL     1       1.308   3.582  20.420  0.00  0.00    +0.000 C 
BRANCH  12  13
ATOM     13  N   UNL     1       0.138   2.921  19.836  0.00  0.00    +0.000 NA
ATOM     14  H1  UNL     1       0.075   1.941  20.194  0.00  0.00    +0.000 HD
ATOM     15  H2  UNL     1       0.215   2.885  18.794  0.00  0.00    +0.000 HD
ENDBRANCH  12  13
BRANCH  12  16
ATOM     16  C   UNL     1       1.886   2.766  21.558  0.00  0.00    +0.000 C 
ATOM     17  O   UNL     1       1.175   2.402  22.481  0.00  0.00    +0.000 OA
BRANCH  16  18
ATOM     18  OXT UNL     1       3.202   2.455  21.574  0.00  0.00    +0.000 OA
ATOM     19  HXT UNL     1       3.764   2.559  20.792  0.00  0.00    +0.000 HD
ENDBRANCH  16  18
ENDBRANCH  12  16
ENDBRANCH   1  12
TORSDOF 5
ENDMDL
