MODEL 1
REMARK VINA RESULT:      -6.3      0.000      0.000
REMARK  Name = 
REMARK  8 active torsions:
REMARK  status: ('A' for Active; 'I' for Inactive)
REMARK    1  A    between atoms: C_1  and  O_2
REMARK    2  A    between atoms: O_2  and  C_3
REMARK    3  A    between atoms: C_7  and  O_8
REMARK    4  A    between atoms: O_8  and  C_9
REMARK    5  A    between atoms: C_10  and  O_11
REMARK    6  A    between atoms: O_11  and  C_12
REMARK    7  A    between atoms: C_15  and  C_16
REMARK    8  A    between atoms: C_16  and  N_17
REMARK                            x       y       z     vdW  Elec       q    Type
REMARK                         _______ _______ _______ _____ _____    ______ ____
ROOT
ATOM      1  C   UNL     1       5.784   4.872  16.326  0.00  0.00    +0.000 A 
ATOM      2  C   UNL     1       4.946   3.782  16.579  0.00  0.00    +0.000 A 
ATOM      3  C   UNL     1       3.766   3.967  17.279  0.00  0.00    +0.000 A 
ATOM      4  C   UNL     1       3.364   5.235  17.734  0.00  0.00    +0.000 A 
ATOM      5  C   UNL     1       4.173   6.346  17.483  0.00  0.00    +0.000 A 
ATOM      6  C   UNL     1       5.410   6.155  16.791  0.00  0.00    +0.000 A 
ATOM      7  C   UNL     1       2.028   5.100  18.402  0.00  0.00    +0.000 C 
ATOM      8  C   UNL     1       1.971   3.601  18.727  0.00  0.00    +0.000 C 
ATOM      9  C   UNL     1       2.755   2.895  17.614  0.00  0.00    +0.000 C 
ENDROOT
BRANCH   1  11
ATOM     10  C   UNL     1       6.960   4.772  14.252  0.00  0.00    +0.000 C 
ATOM     11  O   UNL     1       6.981   4.710  15.676  0.00  0.00    +0.000 OA
ENDBRANCH   1  11
BRANCH   5  12
ATOM     12  O   UNL     1       3.925   7.650  17.825  0.00  0.00    +0.000 OA
ATOM     13  C   UNL     1       2.648   8.226  17.639  0.00  0.00    +0.000 C 
ENDBRANCH   5  12
BRANCH   6  14
ATOM     14  O   UNL     1       6.133   7.322  16.636  0.00  0.00    +0.000 OA
ATOM     15  C   UNL     1       7.305   7.538  17.401  0.00  0.00    +0.000 C 
ENDBRANCH   6  14
BRANCH   9  16
ATOM     16  C   UNL     1       3.382   1.559  18.043  0.00  0.00    +0.000 C 
BRANCH  16  17
ATOM     17  N   UNL     1       4.263   1.660  19.203  0.00  0.00    +0.000 NA
ATOM     18  H   UNL     1       4.119   0.863  19.821  0.00  0.00    +0.000 HD
ATOM     19  H   UNL     1       4.041   2.494  19.742  0.00  0.00    +0.000 HD
ENDBRANCH  16  17
ENDBRANCH   9  16
TORSDOF 5
ENDMDL
MODEL 2
REMARK VINA RESULT:      -6.2      2.386      5.182
REMARK  Name = 
REMARK  8 active torsions:
REMARK  status: ('A' for Active; 'I' for Inactive)
REMARK    1  A    between atoms: C_1  and  O_2
REMARK    2  A    between atoms: O_2  and  C_3
REMARK    3  A    between atoms: C_7  and  O_8
REMARK    4  A    between atoms: O_8  and  C_9
REMARK    5  A    between atoms: C_10  and  O_11
REMARK    6  A    between atoms: O_11  and  C_12
REMARK    7  A    between atoms: C_15  and  C_16
REMARK    8  A    between atoms: C_16  and  N_17
REMARK                            x       y       z     vdW  Elec       q    Type
REMARK                         _______ _______ _______ _____ _____    ______ ____
ROOT
ATOM      1  C   UNL     1       3.046   6.358  18.212  0.00  0.00    +0.000 A 
ATOM      2  C   UNL     1       4.285   6.739  17.689  0.00  0.00    +0.000 A 
ATOM      3  C   UNL     1       5.087   5.800  17.063  0.00  0.00    +0.000 A 
ATOM      4  C   UNL     1       4.686   4.461  16.915  0.00  0.00    +0.000 A 
ATOM      5  C   UNL     1       3.447   4.053  17.414  0.00  0.00    +0.000 A 
ATOM      6  C   UNL     1       2.629   5.010  18.092  0.00  0.00    +0.000 A 
ATOM      7  C   UNL     1       5.750   3.725  16.154  0.00  0.00    +0.000 C 
ATOM      8  C   UNL     1       6.977   4.629  16.345  0.00  0.00    +0.000 C 
ATOM      9  C   UNL     1       6.438   6.062  16.437  0.00  0.00    +0.000 C 
ENDROOT
BRANCH   1  11
ATOM     10  C   UNL     1       2.027   8.515  18.249  0.00  0.00    +0.000 C 
ATOM     11  O   UNL     1       2.251   7.256  18.877  0.00  0.00    +0.000 OA
ENDBRANCH   1  11
BRANCH   5  12
ATOM     12  O   UNL     1       2.887   2.805  17.334  0.00  0.00    +0.000 OA
ATOM     13  C   UNL     1       3.391   1.726  18.094  0.00  0.00    +0.000 C 
ENDBRANCH   5  12
BRANCH   6  14
ATOM     14  O   UNL     1       1.447   4.477  18.568  0.00  0.00    +0.000 OA
ATOM     15  C   UNL     1       1.292   4.216  19.952  0.00  0.00    +0.000 C 
ENDBRANCH   6  14
BRANCH   9  16
ATOM     16  C   UNL     1       7.329   7.012  17.253  0.00  0.00    +0.000 C 
BRANCH  16  17
ATOM     17  N   UNL     1       7.792   6.454  18.520  0.00  0.00    +0.000 NA
ATOM     18  H   UNL     1       7.883   5.442  18.443  0.00  0.00    +0.000 HD
ATOM     19  H   UNL     1       7.107   6.631  19.253  0.00  0.00    +0.000 HD
ENDBRANCH  16  17
ENDBRANCH   9  16
TORSDOF 5
ENDMDL
MODEL 3
REMARK VINA RESULT:      -6.1      2.806      5.497
REMARK  Name = 
REMARK  8 active torsions:
REMARK  status: ('A' for Active; 'I' for Inactive)
REMARK    1  A    between atoms: C_1  and  O_2
REMARK    2  A    between atoms: O_2  and  C_3
REMARK    3  A    between atoms: C_7  and  O_8
REMARK    4  A    between atoms: O_8  and  C_9
REMARK    5  A    between atoms: C_10  and  O_11
REMARK    6  A    between atoms: O_11  and  C_12
REMARK    7  A    between atoms: C_15  and  C_16
REMARK    8  A    between atoms: C_16  and  N_17
REMARK                            x       y       z     vdW  Elec       q    Type
REMARK                         _______ _______ _______ _____ _____    ______ ____
ROOT
ATOM      1  C   UNL     1       2.575   5.915  19.274  0.00  0.00    +0.000 A 
ATOM      2  C   UNL     1       3.534   6.520  18.455  0.00  0.00    +0.000 A 
ATOM      3  C   UNL     1       4.202   5.767  17.503  0.00  0.00    +0.000 A 
ATOM      4  C   UNL     1       3.931   4.401  17.313  0.00  0.00    +0.000 A 
ATOM      5  C   UNL     1       2.967   3.773  18.105  0.00  0.00    +0.000 A 
ATOM      6  C   UNL     1       2.299   4.536  19.114  0.00  0.00    +0.000 A 
ATOM      7  C   UNL     1       4.778   3.900  16.181  0.00  0.00    +0.000 C 
ATOM      8  C   UNL     1       5.890   4.957  16.108  0.00  0.00    +0.000 C 
ATOM      9  C   UNL     1       5.247   6.280  16.540  0.00  0.00    +0.000 C 
ENDROOT
BRANCH   1  11
ATOM     10  C   UNL     1       1.806   8.030  20.064  0.00  0.00    +0.000 C 
ATOM     11  O   UNL     1       1.933   6.624  20.256  0.00  0.00    +0.000 OA
ENDBRANCH   1  11
BRANCH   5  12
ATOM     12  O   UNL     1       2.558   2.466  18.038  0.00  0.00    +0.000 OA
ATOM     13  C   UNL     1       3.412   1.410  18.426  0.00  0.00    +0.000 C 
ENDBRANCH   5  12
BRANCH   6  14
ATOM     14  O   UNL     1       1.397   3.794  19.850  0.00  0.00    +0.000 OA
ATOM     15  C   UNL     1       1.708   3.413  21.179  0.00  0.00    +0.000 C 
ENDBRANCH   6  14
BRANCH   9  16
ATOM     16  C   UNL     1       6.234   7.279  17.164  0.00  0.00    +0.000 C 
BRANCH  16  17
ATOM     17  N   UNL     1       7.630   7.039  16.807  0.00  0.00    +0.000 NA
ATOM     18  H   UNL     1       7.681   6.454  15.974  0.00  0.00    +0.000 HD
ATOM     19  H   UNL     1       8.101   6.530  17.552  0.00  0.00    +0.000 HD
ENDBRANCH  16  17
ENDBRANCH   9  16
TORSDOF 5
ENDMDL
MODEL 4
REMARK VINA RESULT:      -5.8      2.712      4.587
REMARK  Name = 
REMARK  8 active torsions:
REMARK  status: ('A' for Active; 'I' for Inactive)
REMARK    1  A    between atoms: C_1  and  O_2
REMARK    2  A    between atoms: O_2  and  C_3
REMARK    3  A    between atoms: C_7  and  O_8
REMARK    4  A    between atoms: O_8  and  C_9
REMARK    5  A    between atoms: C_10  and  O_11
REMARK    6  A    between atoms: O_11  and  C_12
REMARK    7  A    between atoms: C_15  and  C_16
REMARK    8  A    between atoms: C_16  and  N_17
REMARK                            x       y       z     vdW  Elec       q    Type
REMARK                         _______ _______ _______ _____ _____    ______ ____
ROOT
ATOM      1  C   UNL     1       3.232   3.161  17.840  0.00  0.00    +0.000 A 
ATOM      2  C   UNL     1       4.423   3.491  17.184  0.00  0.00    +0.000 A 
ATOM      3  C   UNL     1       4.759   4.821  16.992  0.00  0.00    +0.000 A 
ATOM      4  C   UNL     1       3.944   5.867  17.459  0.00  0.00    +0.000 A 
ATOM      5  C   UNL     1       2.757   5.569  18.132  0.00  0.00    +0.000 A 
ATOM      6  C   UNL     1       2.387   4.198  18.302  0.00  0.00    +0.000 A 
ATOM      7  C   UNL     1       4.614   7.171  17.139  0.00  0.00    +0.000 C 
ATOM      8  C   UNL     1       5.591   6.776  16.023  0.00  0.00    +0.000 C 
ATOM      9  C   UNL     1       6.012   5.331  16.319  0.00  0.00    +0.000 C 
ENDROOT
BRANCH   1  11
ATOM     10  C   UNL     1       3.769   0.988  18.666  0.00  0.00    +0.000 C 
ATOM     11  O   UNL     1       2.852   1.854  18.003  0.00  0.00    +0.000 OA
ENDBRANCH   1  11
BRANCH   5  12
ATOM     12  O   UNL     1       1.864   6.455  18.676  0.00  0.00    +0.000 OA
ATOM     13  C   UNL     1       2.195   7.221  19.816  0.00  0.00    +0.000 C 
ENDBRANCH   5  12
BRANCH   6  14
ATOM     14  O   UNL     1       1.178   4.037  18.950  0.00  0.00    +0.000 OA
ATOM     15  C   UNL     1       1.149   3.625  20.305  0.00  0.00    +0.000 C 
ENDBRANCH   6  14
BRANCH   9  16
ATOM     16  C   UNL     1       6.419   4.532  15.071  0.00  0.00    +0.000 C 
BRANCH  16  17
ATOM     17  N   UNL     1       7.458   5.170  14.268  0.00  0.00    +0.000 NA
ATOM     18  H   UNL     1       7.170   5.208  13.291  0.00  0.00    +0.000 HD
ATOM     19  H   UNL     1       8.315   4.622  14.300  0.00  0.00    +0.000 HD
ENDBRANCH  16  17
ENDBRANCH   9  16
TORSDOF 5
ENDMDL
MODEL 5
REMARK VINA RESULT:      -5.6      2.653      4.525
REMARK  Name = 
REMARK  8 active torsions:
REMARK  status: ('A' for Active; 'I' for Inactive)
REMARK    1  A    between atoms: C_1  and  O_2
REMARK    2  A    between atoms: O_2  and  C_3
REMARK    3  A    between atoms: C_7  and  O_8
REMARK    4  A    between atoms: O_8  and  C_9
REMARK    5  A    between atoms: C_10  and  O_11
REMARK    6  A    between atoms: O_11  and  C_12
REMARK    7  A    between atoms: C_15  and  C_16
REMARK    8  A    between atoms: C_16  and  N_17
REMARK                            x       y       z     vdW  Elec       q    Type
REMARK                         _______ _______ _______ _____ _____    ______ ____
ROOT
ATOM      1  C   UNL     1       3.038   3.384  18.420  0.00  0.00    +0.000 A 
ATOM      2  C   UNL     1       3.940   3.484  17.355  0.00  0.00    +0.000 A 
ATOM      3  C   UNL     1       4.464   4.719  17.011  0.00  0.00    +0.000 A 
ATOM      4  C   UNL     1       4.134   5.889  17.716  0.00  0.00    +0.000 A 
ATOM      5  C   UNL     1       3.249   5.818  18.794  0.00  0.00    +0.000 A 
ATOM      6  C   UNL     1       2.677   4.552  19.133  0.00  0.00    +0.000 A 
ATOM      7  C   UNL     1       4.906   7.034  17.129  0.00  0.00    +0.000 C 
ATOM      8  C   UNL     1       5.284   6.499  15.740  0.00  0.00    +0.000 C 
ATOM      9  C   UNL     1       5.456   4.984  15.901  0.00  0.00    +0.000 C 
ENDROOT
BRANCH   1  11
ATOM     10  C   UNL     1       1.060   2.059  18.570  0.00  0.00    +0.000 C 
ATOM     11  O   UNL     1       2.468   2.183  18.753  0.00  0.00    +0.000 OA
ENDBRANCH   1  11
BRANCH   5  12
ATOM     12  O   UNL     1       2.842   6.844  19.606  0.00  0.00    +0.000 OA
ATOM     13  C   UNL     1       2.076   7.918  19.100  0.00  0.00    +0.000 C 
ENDBRANCH   5  12
BRANCH   6  14
ATOM     14  O   UNL     1       1.793   4.619  20.192  0.00  0.00    +0.000 OA
ATOM     15  C   UNL     1       2.143   4.060  21.446  0.00  0.00    +0.000 C 
ENDBRANCH   6  14
BRANCH   9  16
ATOM     16  C   UNL     1       5.182   4.185  14.616  0.00  0.00    +0.000 C 
BRANCH  16  17
ATOM     17  N   UNL     1       6.371   3.573  14.031  0.00  0.00    +0.000 NA
ATOM     18  H   UNL     1       7.210   3.943  14.477  0.00  0.00    +0.000 HD
ATOM     19  H   UNL     1       6.437   3.806  13.042  0.00  0.00    +0.000 HD
ENDBRANCH  16  17
ENDBRANCH   9  16
TORSDOF 5
ENDMDL
MODEL 6
REMARK VINA RESULT:      -5.6      2.861      4.631
REMARK  Name = 
REMARK  8 active torsions:
REMARK  status: ('A' for Active; 'I' for Inactive)
REMARK    1  A    between atoms: C_1  and  O_2
REMARK    2  A    between atoms: O_2  and  C_3
REMARK    3  A    between atoms: C_7  and  O_8
REMARK    4  A    between atoms: O_8  and  C_9
REMARK    5  A    between atoms: C_10  and  O_11
REMARK    6  A    between atoms: O_11  and  C_12
REMARK    7  A    between atoms: C_15  and  C_16
REMARK    8  A    between atoms: C_16  and  N_17
REMARK                            x       y       z     vdW  Elec       q    Type
REMARK                         _______ _______ _______ _____ _____    ______ ____
ROOT
ATOM      1  C   UNL     1       4.263   3.437  19.224  0.00  0.00    +0.000 A 
ATOM      2  C   UNL     1       5.236   3.863  18.315  0.00  0.00    +0.000 A 
ATOM      3  C   UNL     1       5.109   5.095  17.696  0.00  0.00    +0.000 A 
ATOM      4  C   UNL     1       4.031   5.955  17.969  0.00  0.00    +0.000 A 
ATOM      5  C   UNL     1       3.052   5.564  18.884  0.00  0.00    +0.000 A 
ATOM      6  C   UNL     1       3.158   4.278  19.500  0.00  0.00    +0.000 A 
ATOM      7  C   UNL     1       4.219   7.219  17.182  0.00  0.00    +0.000 C 
ATOM      8  C   UNL     1       5.196   6.781  16.082  0.00  0.00    +0.000 C 
ATOM      9  C   UNL     1       6.082   5.697  16.709  0.00  0.00    +0.000 C 
ENDROOT
BRANCH   1  11
ATOM     10  C   UNL     1       3.904   1.085  19.046  0.00  0.00    +0.000 C 
ATOM     11  O   UNL     1       4.339   2.203  19.816  0.00  0.00    +0.000 OA
ENDBRANCH   1  11
BRANCH   5  12
ATOM     12  O   UNL     1       1.956   6.282  19.289  0.00  0.00    +0.000 OA
ATOM     13  C   UNL     1       2.095   7.450  20.072  0.00  0.00    +0.000 C 
ENDBRANCH   5  12
BRANCH   6  14
ATOM     14  O   UNL     1       2.112   3.995  20.356  0.00  0.00    +0.000 OA
ATOM     15  C   UNL     1       1.018   3.215  19.907  0.00  0.00    +0.000 C 
ENDBRANCH   6  14
BRANCH   9  16
ATOM     16  C   UNL     1       6.645   4.688  15.694  0.00  0.00    +0.000 C 
BRANCH  16  17
ATOM     17  N   UNL     1       7.498   5.286  14.671  0.00  0.00    +0.000 NA
ATOM     18  H   UNL     1       8.460   5.335  15.004  0.00  0.00    +0.000 HD
ATOM     19  H   UNL     1       7.204   6.243  14.482  0.00  0.00    +0.000 HD
ENDBRANCH  16  17
ENDBRANCH   9  16
TORSDOF 5
ENDMDL
MODEL 7
REMARK VINA RESULT:      -5.6      2.035      3.849
REMARK  Name = 
REMARK  8 active torsions:
REMARK  status: ('A' for Active; 'I' for Inactive)
REMARK    1  A    between atoms: C_1  and  O_2
REMARK    2  A    between atoms: O_2  and  C_3
REMARK    3  A    between atoms: C_7  and  O_8
REMARK    4  A    between atoms: O_8  and  C_9
REMARK    5  A    between atoms: C_10  and  O_11
REMARK    6  A    between atoms: O_11  and  C_12
REMARK    7  A    between atoms: C_15  and  C_16
REMARK    8  A    between atoms: C_16  and  N_17
REMARK                            x       y       z     vdW  Elec       q    Type
REMARK                         _______ _______ _______ _____ _____    ______ ____
ROOT
ATOM      1  C   UNL     1       3.564   6.759  18.053  0.00  0.00    +0.000 A 
ATOM      2  C   UNL     1       2.822   6.116  19.049  0.00  0.00    +0.000 A 
ATOM      3  C   UNL     1       3.223   4.875  19.515  0.00  0.00    +0.000 A 
ATOM      4  C   UNL     1       4.377   4.237  19.029  0.00  0.00    +0.000 A 
ATOM      5  C   UNL     1       5.148   4.861  18.046  0.00  0.00    +0.000 A 
ATOM      6  C   UNL     1       4.720   6.127  17.535  0.00  0.00    +0.000 A 
ATOM      7  C   UNL     1       4.556   2.946  19.772  0.00  0.00    +0.000 C 
ATOM      8  C   UNL     1       3.149   2.687  20.328  0.00  0.00    +0.000 C 
ATOM      9  C   UNL     1       2.537   4.068  20.593  0.00  0.00    +0.000 C 
ENDROOT
BRANCH   1  11
ATOM     10  C   UNL     1       1.987   8.548  18.091  0.00  0.00    +0.000 C 
ATOM     11  O   UNL     1       3.166   7.966  17.541  0.00  0.00    +0.000 OA
ENDBRANCH   1  11
BRANCH   5  12
ATOM     12  O   UNL     1       6.310   4.401  17.483  0.00  0.00    +0.000 OA
ATOM     13  C   UNL     1       7.565   4.675  18.070  0.00  0.00    +0.000 C 
ENDBRANCH   5  12
BRANCH   6  14
ATOM     14  O   UNL     1       5.545   6.622  16.545  0.00  0.00    +0.000 OA
ATOM     15  C   UNL     1       5.257   6.358  15.183  0.00  0.00    +0.000 C 
ENDBRANCH   6  14
BRANCH   9  16
ATOM     16  C   UNL     1       1.002   4.096  20.512  0.00  0.00    +0.000 C 
BRANCH  16  17
ATOM     17  N   UNL     1       0.422   2.952  19.815  0.00  0.00    +0.000 NA
ATOM     18  H   UNL     1      -0.070   3.266  18.979  0.00  0.00    +0.000 HD
ATOM     19  H   UNL     1      -0.269   2.493  20.406  0.00  0.00    +0.000 HD
ENDBRANCH  16  17
ENDBRANCH   9  16
TORSDOF 5
ENDMDL
MODEL 8
REMARK VINA RESULT:      -5.6      1.835      2.886
REMARK  Name = 
REMARK  8 active torsions:
REMARK  status: ('A' for Active; 'I' for Inactive)
REMARK    1  A    between atoms: C_1  and  O_2
REMARK    2  A    between atoms: O_2  and  C_3
REMARK    3  A    between atoms: C_7  and  O_8
REMARK    4  A    between atoms: O_8  and  C_9
REMARK    5  A    between atoms: C_10  and  O_11
REMARK    6  A    between atoms: O_11  and  C_12
REMARK    7  A    between atoms: C_15  and  C_16
REMARK    8  A    between atoms: C_16  and  N_17
REMARK                            x       y       z     vdW  Elec       q    Type
REMARK                         _______ _______ _______ _____ _____    ______ ____
ROOT
ATOM      1  C   UNL     1       6.009   4.066  14.515  0.00  0.00    +0.000 A 
ATOM      2  C   UNL     1       4.936   3.671  15.321  0.00  0.00    +0.000 A 
ATOM      3  C   UNL     1       4.798   4.201  16.593  0.00  0.00    +0.000 A 
ATOM      4  C   UNL     1       5.700   5.150  17.103  0.00  0.00    +0.000 A 
ATOM      5  C   UNL     1       6.773   5.575  16.316  0.00  0.00    +0.000 A 
ATOM      6  C   UNL     1       6.941   5.006  15.015  0.00  0.00    +0.000 A 
ATOM      7  C   UNL     1       5.242   5.555  18.473  0.00  0.00    +0.000 C 
ATOM      8  C   UNL     1       4.323   4.391  18.872  0.00  0.00    +0.000 C 
ATOM      9  C   UNL     1       3.689   3.887  17.570  0.00  0.00    +0.000 C 
ENDROOT
BRANCH   1  11
ATOM     10  C   UNL     1       5.058   3.451  12.415  0.00  0.00    +0.000 C 
ATOM     11  O   UNL     1       6.196   3.523  13.270  0.00  0.00    +0.000 OA
ENDBRANCH   1  11
BRANCH   5  12
ATOM     12  O   UNL     1       7.725   6.507  16.639  0.00  0.00    +0.000 OA
ATOM     13  C   UNL     1       7.381   7.704  17.307  0.00  0.00    +0.000 C 
ENDBRANCH   5  12
BRANCH   6  14
ATOM     14  O   UNL     1       8.055   5.481  14.352  0.00  0.00    +0.000 OA
ATOM     15  C   UNL     1       8.044   5.602  12.940  0.00  0.00    +0.000 C 
ENDBRANCH   6  14
BRANCH   9  16
ATOM     16  C   UNL     1       3.291   2.402  17.605  0.00  0.00    +0.000 C 
BRANCH  16  17
ATOM     17  N   UNL     1       4.131   1.580  18.471  0.00  0.00    +0.000 NA
ATOM     18  H   UNL     1       3.563   0.883  18.948  0.00  0.00    +0.000 HD
ATOM     19  H   UNL     1       4.560   2.155  19.194  0.00  0.00    +0.000 HD
ENDBRANCH  16  17
ENDBRANCH   9  16
TORSDOF 5
ENDMDL
MODEL 9
REMARK VINA RESULT:      -5.6      3.219      4.920
REMARK  Name = 
REMARK  8 active torsions:
REMARK  status: ('A' for Active; 'I' for Inactive)
REMARK    1  A    between atoms: C_1  and  O_2
REMARK    2  A    between atoms: O_2  and  C_3
REMARK    3  A    between atoms: C_7  and  O_8
REMARK    4  A    between atoms: O_8  and  C_9
REMARK    5  A    between atoms: C_10  and  O_11
REMARK    6  A    between atoms: O_11  and  C_12
REMARK    7  A    between atoms: C_15  and  C_16
REMARK    8  A    between atoms: C_16  and  N_17
REMARK                            x       y       z     vdW  Elec       q    Type
REMARK                         _______ _______ _______ _____ _____    ______ ____
ROOT
ATOM      1  C   UNL     1       3.929   4.989  17.665  0.00  0.00    +0.000 A 
ATOM      2  C   UNL     1       3.543   6.333  17.693  0.00  0.00    +0.000 A 
ATOM      3  C   UNL     1       2.816   6.819  18.766  0.00  0.00    +0.000 A 
ATOM      4  C   UNL     1       2.463   6.003  19.855  0.00  0.00    +0.000 A 
ATOM      5  C   UNL     1       2.848   4.660  19.863  0.00  0.00    +0.000 A 
ATOM      6  C   UNL     1       3.569   4.143  18.741  0.00  0.00    +0.000 A 
ATOM      7  C   UNL     1       1.732   6.841  20.862  0.00  0.00    +0.000 C 
ATOM      8  C   UNL     1       1.268   8.039  20.021  0.00  0.00    +0.000 C 
ATOM      9  C   UNL     1       2.343   8.243  18.945  0.00  0.00    +0.000 C 
ENDROOT
BRANCH   1  11
ATOM     10  C   UNL     1       6.032   4.525  16.639  0.00  0.00    +0.000 C 
ATOM     11  O   UNL     1       4.609   4.469  16.594  0.00  0.00    +0.000 OA
ENDBRANCH   1  11
BRANCH   5  12
ATOM     12  O   UNL     1       2.618   3.734  20.847  0.00  0.00    +0.000 OA
ATOM     13  C   UNL     1       1.324   3.215  21.076  0.00  0.00    +0.000 C 
ENDBRANCH   5  12
BRANCH   6  14
ATOM     14  O   UNL     1       3.860   2.798  18.854  0.00  0.00    +0.000 OA
ATOM     15  C   UNL     1       3.139   1.849  18.086  0.00  0.00    +0.000 C 
ENDBRANCH   6  14
BRANCH   9  16
ATOM     16  C   UNL     1       1.818   8.893  17.655  0.00  0.00    +0.000 C 
BRANCH  16  17
ATOM     17  N   UNL     1       0.733   9.847  17.868  0.00  0.00    +0.000 NA
ATOM     18  H   UNL     1      -0.164   9.404  17.671  0.00  0.00    +0.000 HD
ATOM     19  H   UNL     1       0.821  10.630  17.222  0.00  0.00    +0.000 HD
ENDBRANCH  16  17
ENDBRANCH   9  16
TORSDOF 5
ENDMDL
