MODEL 1
REMARK VINA RESULT:      -7.1      0.000      0.000
REMARK  Name = 
REMARK  6 active torsions:
REMARK  status: ('A' for Active; 'I' for Inactive)
REMARK    1  A    between atoms: C_1  and  C_2
REMARK    2  A    between atoms: C_5  and  N_6
REMARK    3  A    between atoms: C_7  and  S_8
REMARK    4  A    between atoms: N_9  and  C_10
REMARK    5  A    between atoms: C_15  and  C_16
REMARK    6  A    between atoms: C_17  and  C_18
REMARK                            x       y       z     vdW  Elec       q    Type
REMARK                         _______ _______ _______ _____ _____    ______ ____
ROOT
ATOM      1  N   UNL     1       3.060   6.410  19.690  0.00  0.00    +0.000 NA
ATOM      2  C   UNL     1       2.850   5.142  19.875  0.00  0.00    +0.000 C 
ATOM      3  N   UNL     1       3.774   4.166  19.596  0.00  0.00    +0.000 N 
ATOM      4  H   UNL     1       3.442   3.218  19.684  0.00  0.00    +0.000 HD
ENDROOT
BRANCH   1   9
ATOM      5  C   UNL     1      -0.718  10.662  20.394  0.00  0.00    +0.000 C 
ATOM      6  C   UNL     1       0.311   9.587  20.234  0.00  0.00    +0.000 A 
ATOM      7  C   UNL     1       0.520   8.657  21.250  0.00  0.00    +0.000 A 
ATOM      8  C   UNL     1       1.428   7.613  21.074  0.00  0.00    +0.000 A 
ATOM      9  C   UNL     1       2.199   7.490  19.914  0.00  0.00    +0.000 A 
ATOM     10  C   UNL     1       1.956   8.402  18.864  0.00  0.00    +0.000 A 
ATOM     11  C   UNL     1       2.586   8.251  17.503  0.00  0.00    +0.000 C 
ATOM     12  C   UNL     1       1.017   9.440  19.036  0.00  0.00    +0.000 A 
ENDBRANCH   1   9
BRANCH   3  13
ATOM     13  C   UNL     1       4.782   4.314  18.635  0.00  0.00    +0.000 A 
ATOM     14  N   UNL     1       6.004   4.738  19.026  0.00  0.00    +0.000 NA
ATOM     15  C   UNL     1       7.001   4.770  18.124  0.00  0.00    +0.000 A 
ATOM     16  C   UNL     1       6.839   4.419  16.803  0.00  0.00    +0.000 A 
ATOM     17  C   UNL     1       5.571   4.039  16.378  0.00  0.00    +0.000 A 
ATOM     18  C   UNL     1       4.512   3.994  17.296  0.00  0.00    +0.000 A 
ATOM     19  C   UNL     1       3.147   3.568  16.840  0.00  0.00    +0.000 C 
ENDBRANCH   3  13
BRANCH   2  20
ATOM     20  S   UNL     1       1.400   4.425  20.570  0.00  0.00    +0.000 S 
ATOM     21  H   UNL     1       1.515   5.044  21.753  0.00  0.00    +0.000 HD
ENDBRANCH   2  20
TORSDOF 3
ENDMDL
MODEL 2
REMARK VINA RESULT:      -6.9      3.364      5.131
REMARK  Name = 
REMARK  6 active torsions:
REMARK  status: ('A' for Active; 'I' for Inactive)
REMARK    1  A    between atoms: C_1  and  C_2
REMARK    2  A    between atoms: C_5  and  N_6
REMARK    3  A    between atoms: C_7  and  S_8
REMARK    4  A    between atoms: N_9  and  C_10
REMARK    5  A    between atoms: C_15  and  C_16
REMARK    6  A    between atoms: C_17  and  C_18
REMARK                            x       y       z     vdW  Elec       q    Type
REMARK                         _______ _______ _______ _____ _____    ______ ____
ROOT
ATOM      1  N   UNL     1       5.099   5.585  16.237  0.00  0.00    +0.000 NA
ATOM      2  C   UNL     1       6.386   5.730  16.312  0.00  0.00    +0.000 C 
ATOM      3  N   UNL     1       7.234   5.601  15.240  0.00  0.00    +0.000 N 
ATOM      4  H   UNL     1       8.218   5.632  15.460  0.00  0.00    +0.000 HD
ENDROOT
BRANCH   1   9
ATOM      5  C   UNL     1       1.435   5.852  20.637  0.00  0.00    +0.000 C 
ATOM      6  C   UNL     1       2.345   5.784  19.449  0.00  0.00    +0.000 A 
ATOM      7  C   UNL     1       2.836   6.952  18.872  0.00  0.00    +0.000 A 
ATOM      8  C   UNL     1       3.739   6.889  17.811  0.00  0.00    +0.000 A 
ATOM      9  C   UNL     1       4.139   5.671  17.251  0.00  0.00    +0.000 A 
ATOM     10  C   UNL     1       3.681   4.485  17.865  0.00  0.00    +0.000 A 
ATOM     11  C   UNL     1       4.195   3.124  17.471  0.00  0.00    +0.000 C 
ATOM     12  C   UNL     1       2.790   4.554  18.955  0.00  0.00    +0.000 A 
ENDBRANCH   1   9
BRANCH   3  13
ATOM     13  C   UNL     1       6.941   4.813  14.119  0.00  0.00    +0.000 A 
ATOM     14  N   UNL     1       5.957   3.890  14.205  0.00  0.00    +0.000 NA
ATOM     15  C   UNL     1       5.600   3.216  13.099  0.00  0.00    +0.000 A 
ATOM     16  C   UNL     1       6.205   3.392  11.875  0.00  0.00    +0.000 A 
ATOM     17  C   UNL     1       7.258   4.295  11.791  0.00  0.00    +0.000 A 
ATOM     18  C   UNL     1       7.652   5.016  12.928  0.00  0.00    +0.000 A 
ATOM     19  C   UNL     1       8.779   6.002  12.833  0.00  0.00    +0.000 C 
ENDBRANCH   3  13
BRANCH   2  20
ATOM     20  S   UNL     1       7.293   6.182  17.752  0.00  0.00    +0.000 S 
ATOM     21  H   UNL     1       7.690   7.371  17.276  0.00  0.00    +0.000 HD
ENDBRANCH   2  20
TORSDOF 3
ENDMDL
MODEL 3
REMARK VINA RESULT:      -6.8      3.355      5.255
REMARK  Name = 
REMARK  6 active torsions:
REMARK  status: ('A' for Active; 'I' for Inactive)
REMARK    1  A    between atoms: C_1  and  C_2
REMARK    2  A    between atoms: C_5  and  N_6
REMARK    3  A    between atoms: C_7  and  S_8
REMARK    4  A    between atoms: N_9  and  C_10
REMARK    5  A    between atoms: C_15  and  C_16
REMARK    6  A    between atoms: C_17  and  C_18
REMARK                            x       y       z     vdW  Elec       q    Type
REMARK                         _______ _______ _______ _____ _____    ______ ____
ROOT
ATOM      1  N   UNL     1       5.150   4.878  16.421  0.00  0.00    +0.000 NA
ATOM      2  C   UNL     1       6.426   5.107  16.486  0.00  0.00    +0.000 C 
ATOM      3  N   UNL     1       7.237   5.228  15.386  0.00  0.00    +0.000 N 
ATOM      4  H   UNL     1       8.225   5.297  15.582  0.00  0.00    +0.000 HD
ENDROOT
BRANCH   1   9
ATOM      5  C   UNL     1       1.098   4.270  20.429  0.00  0.00    +0.000 C 
ATOM      6  C   UNL     1       2.198   4.431  19.426  0.00  0.00    +0.000 A 
ATOM      7  C   UNL     1       2.833   3.312  18.893  0.00  0.00    +0.000 A 
ATOM      8  C   UNL     1       3.808   3.458  17.907  0.00  0.00    +0.000 A 
ATOM      9  C   UNL     1       4.227   4.715  17.460  0.00  0.00    +0.000 A 
ATOM     10  C   UNL     1       3.552   5.849  17.963  0.00  0.00    +0.000 A 
ATOM     11  C   UNL     1       3.785   7.234  17.415  0.00  0.00    +0.000 C 
ATOM     12  C   UNL     1       2.547   5.695  18.940  0.00  0.00    +0.000 A 
ENDBRANCH   1   9
BRANCH   3  13
ATOM     13  C   UNL     1       6.957   4.625  14.153  0.00  0.00    +0.000 A 
ATOM     14  N   UNL     1       5.980   3.693  14.087  0.00  0.00    +0.000 NA
ATOM     15  C   UNL     1       5.634   3.198  12.886  0.00  0.00    +0.000 A 
ATOM     16  C   UNL     1       6.245   3.567  11.709  0.00  0.00    +0.000 A 
ATOM     17  C   UNL     1       7.292   4.480  11.775  0.00  0.00    +0.000 A 
ATOM     18  C   UNL     1       7.674   5.016  13.013  0.00  0.00    +0.000 A 
ATOM     19  C   UNL     1       8.793   6.013  13.082  0.00  0.00    +0.000 C 
ENDBRANCH   3  13
BRANCH   2  20
ATOM     20  S   UNL     1       7.355   5.373  17.958  0.00  0.00    +0.000 S 
ATOM     21  H   UNL     1       7.219   6.707  17.946  0.00  0.00    +0.000 HD
ENDBRANCH   2  20
TORSDOF 3
ENDMDL
MODEL 4
REMARK VINA RESULT:      -6.6      3.118      6.257
REMARK  Name = 
REMARK  6 active torsions:
REMARK  status: ('A' for Active; 'I' for Inactive)
REMARK    1  A    between atoms: C_1  and  C_2
REMARK    2  A    between atoms: C_5  and  N_6
REMARK    3  A    between atoms: C_7  and  S_8
REMARK    4  A    between atoms: N_9  and  C_10
REMARK    5  A    between atoms: C_15  and  C_16
REMARK    6  A    between atoms: C_17  and  C_18
REMARK                            x       y       z     vdW  Elec       q    Type
REMARK                         _______ _______ _______ _____ _____    ______ ____
ROOT
ATOM      1  N   UNL     1       4.306   5.200  17.900  0.00  0.00    +0.000 NA
ATOM      2  C   UNL     1       3.504   6.131  18.319  0.00  0.00    +0.000 C 
ATOM      3  N   UNL     1       2.743   6.029  19.456  0.00  0.00    +0.000 N 
ATOM      4  H   UNL     1       2.084   6.779  19.606  0.00  0.00    +0.000 HD
ENDROOT
BRANCH   1   9
ATOM      5  C   UNL     1       7.793   4.818  13.368  0.00  0.00    +0.000 C 
ATOM      6  C   UNL     1       6.862   4.971  14.531  0.00  0.00    +0.000 A 
ATOM      7  C   UNL     1       5.565   4.467  14.464  0.00  0.00    +0.000 A 
ATOM      8  C   UNL     1       4.721   4.547  15.571  0.00  0.00    +0.000 A 
ATOM      9  C   UNL     1       5.112   5.177  16.757  0.00  0.00    +0.000 A 
ATOM     10  C   UNL     1       6.441   5.645  16.844  0.00  0.00    +0.000 A 
ATOM     11  C   UNL     1       7.029   6.165  18.131  0.00  0.00    +0.000 C 
ATOM     12  C   UNL     1       7.300   5.538  15.731  0.00  0.00    +0.000 A 
ENDBRANCH   1   9
BRANCH   3  13
ATOM     13  C   UNL     1       2.320   4.805  19.992  0.00  0.00    +0.000 A 
ATOM     14  N   UNL     1       2.656   4.496  21.264  0.00  0.00    +0.000 NA
ATOM     15  C   UNL     1       2.156   3.376  21.815  0.00  0.00    +0.000 A 
ATOM     16  C   UNL     1       1.336   2.500  21.140  0.00  0.00    +0.000 A 
ATOM     17  C   UNL     1       1.035   2.779  19.812  0.00  0.00    +0.000 A 
ATOM     18  C   UNL     1       1.540   3.941  19.210  0.00  0.00    +0.000 A 
ATOM     19  C   UNL     1       1.201   4.250  17.781  0.00  0.00    +0.000 C 
ENDBRANCH   3  13
BRANCH   2  20
ATOM     20  S   UNL     1       3.277   7.711  17.577  0.00  0.00    +0.000 S 
ATOM     21  H   UNL     1       4.020   7.444  16.494  0.00  0.00    +0.000 HD
ENDBRANCH   2  20
TORSDOF 3
ENDMDL
MODEL 5
REMARK VINA RESULT:      -6.5      1.243      2.109
REMARK  Name = 
REMARK  6 active torsions:
REMARK  status: ('A' for Active; 'I' for Inactive)
REMARK    1  A    between atoms: C_1  and  C_2
REMARK    2  A    between atoms: C_5  and  N_6
REMARK    3  A    between atoms: C_7  and  S_8
REMARK    4  A    between atoms: N_9  and  C_10
REMARK    5  A    between atoms: C_15  and  C_16
REMARK    6  A    between atoms: C_17  and  C_18
REMARK                            x       y       z     vdW  Elec       q    Type
REMARK                         _______ _______ _______ _____ _____    ______ ____
ROOT
ATOM      1  N   UNL     1       3.222   6.654  18.857  0.00  0.00    +0.000 NA
ATOM      2  C   UNL     1       3.042   5.418  18.503  0.00  0.00    +0.000 C 
ATOM      3  N   UNL     1       4.019   4.456  18.569  0.00  0.00    +0.000 N 
ATOM      4  H   UNL     1       3.776   3.565  18.162  0.00  0.00    +0.000 HD
ENDROOT
BRANCH   1   9
ATOM      5  C   UNL     1      -0.233  11.228  18.915  0.00  0.00    +0.000 C 
ATOM      6  C   UNL     1       0.625  10.001  18.876  0.00  0.00    +0.000 A 
ATOM      7  C   UNL     1       1.412   9.729  17.760  0.00  0.00    +0.000 A 
ATOM      8  C   UNL     1       2.264   8.625  17.750  0.00  0.00    +0.000 A 
ATOM      9  C   UNL     1       2.321   7.724  18.818  0.00  0.00    +0.000 A 
ATOM     10  C   UNL     1       1.560   8.023  19.970  0.00  0.00    +0.000 A 
ATOM     11  C   UNL     1       1.687   7.233  21.247  0.00  0.00    +0.000 C 
ATOM     12  C   UNL     1       0.720   9.156  19.986  0.00  0.00    +0.000 A 
ENDBRANCH   1   9
BRANCH   3  13
ATOM     13  C   UNL     1       5.388   4.743  18.500  0.00  0.00    +0.000 A 
ATOM     14  N   UNL     1       6.012   5.229  19.596  0.00  0.00    +0.000 NA
ATOM     15  C   UNL     1       7.346   5.397  19.564  0.00  0.00    +0.000 A 
ATOM     16  C   UNL     1       8.118   5.127  18.456  0.00  0.00    +0.000 A 
ATOM     17  C   UNL     1       7.476   4.684  17.305  0.00  0.00    +0.000 A 
ATOM     18  C   UNL     1       6.086   4.497  17.308  0.00  0.00    +0.000 A 
ATOM     19  C   UNL     1       5.396   4.005  16.070  0.00  0.00    +0.000 C 
ENDBRANCH   3  13
BRANCH   2  20
ATOM     20  S   UNL     1       1.530   4.712  17.945  0.00  0.00    +0.000 S 
ATOM     21  H   UNL     1       2.023   3.474  17.797  0.00  0.00    +0.000 HD
ENDBRANCH   2  20
TORSDOF 3
ENDMDL
MODEL 6
REMARK VINA RESULT:      -6.4      3.741      5.435
REMARK  Name = 
REMARK  6 active torsions:
REMARK  status: ('A' for Active; 'I' for Inactive)
REMARK    1  A    between atoms: C_1  and  C_2
REMARK    2  A    between atoms: C_5  and  N_6
REMARK    3  A    between atoms: C_7  and  S_8
REMARK    4  A    between atoms: N_9  and  C_10
REMARK    5  A    between atoms: C_15  and  C_16
REMARK    6  A    between atoms: C_17  and  C_18
REMARK                            x       y       z     vdW  Elec       q    Type
REMARK                         _______ _______ _______ _____ _____    ______ ____
ROOT
ATOM      1  N   UNL     1       5.021   4.996  18.163  0.00  0.00    +0.000 NA
ATOM      2  C   UNL     1       4.845   3.929  17.444  0.00  0.00    +0.000 C 
ATOM      3  N   UNL     1       3.838   3.022  17.658  0.00  0.00    +0.000 N 
ATOM      4  H   UNL     1       3.882   2.185  17.095  0.00  0.00    +0.000 HD
ENDROOT
BRANCH   1   9
ATOM      5  C   UNL     1       8.880   9.229  17.970  0.00  0.00    +0.000 C 
ATOM      6  C   UNL     1       7.900   8.097  17.974  0.00  0.00    +0.000 A 
ATOM      7  C   UNL     1       8.140   6.962  18.745  0.00  0.00    +0.000 A 
ATOM      8  C   UNL     1       7.195   5.938  18.805  0.00  0.00    +0.000 A 
ATOM      9  C   UNL     1       6.013   5.978  18.059  0.00  0.00    +0.000 A 
ATOM     10  C   UNL     1       5.745   7.147  17.314  0.00  0.00    +0.000 A 
ATOM     11  C   UNL     1       4.423   7.381  16.629  0.00  0.00    +0.000 C 
ATOM     12  C   UNL     1       6.691   8.192  17.279  0.00  0.00    +0.000 A 
ENDBRANCH   1   9
BRANCH   3  13
ATOM     13  C   UNL     1       3.239   2.818  18.908  0.00  0.00    +0.000 A 
ATOM     14  N   UNL     1       3.960   2.242  19.895  0.00  0.00    +0.000 NA
ATOM     15  C   UNL     1       3.424   2.151  21.124  0.00  0.00    +0.000 A 
ATOM     16  C   UNL     1       2.156   2.589  21.433  0.00  0.00    +0.000 A 
ATOM     17  C   UNL     1       1.385   3.129  20.410  0.00  0.00    +0.000 A 
ATOM     18  C   UNL     1       1.917   3.239  19.117  0.00  0.00    +0.000 A 
ATOM     19  C   UNL     1       1.090   3.835  18.017  0.00  0.00    +0.000 C 
ENDBRANCH   3  13
BRANCH   2  20
ATOM     20  S   UNL     1       5.791   3.465  16.034  0.00  0.00    +0.000 S 
ATOM     21  H   UNL     1       5.768   4.681  15.468  0.00  0.00    +0.000 HD
ENDBRANCH   2  20
TORSDOF 3
ENDMDL
MODEL 7
REMARK VINA RESULT:      -6.3      0.884      1.639
REMARK  Name = 
REMARK  6 active torsions:
REMARK  status: ('A' for Active; 'I' for Inactive)
REMARK    1  A    between atoms: C_1  and  C_2
REMARK    2  A    between atoms: C_5  and  N_6
REMARK    3  A    between atoms: C_7  and  S_8
REMARK    4  A    between atoms: N_9  and  C_10
REMARK    5  A    between atoms: C_15  and  C_16
REMARK    6  A    between atoms: C_17  and  C_18
REMARK                            x       y       z     vdW  Elec       q    Type
REMARK                         _______ _______ _______ _____ _____    ______ ____
ROOT
ATOM      1  N   UNL     1       3.139   6.469  19.417  0.00  0.00    +0.000 NA
ATOM      2  C   UNL     1       3.079   5.205  19.709  0.00  0.00    +0.000 C 
ATOM      3  N   UNL     1       3.993   4.277  19.277  0.00  0.00    +0.000 N 
ATOM      4  H   UNL     1       3.767   3.316  19.488  0.00  0.00    +0.000 HD
ENDROOT
BRANCH   1   9
ATOM      5  C   UNL     1      -0.697  10.538  20.672  0.00  0.00    +0.000 C 
ATOM      6  C   UNL     1       0.348   9.509  20.369  0.00  0.00    +0.000 A 
ATOM      7  C   UNL     1       0.632   8.503  21.289  0.00  0.00    +0.000 A 
ATOM      8  C   UNL     1       1.554   7.504  20.979  0.00  0.00    +0.000 A 
ATOM      9  C   UNL     1       2.266   7.501  19.775  0.00  0.00    +0.000 A 
ATOM     10  C   UNL     1       1.947   8.492  18.821  0.00  0.00    +0.000 A 
ATOM     11  C   UNL     1       2.508   8.475  17.423  0.00  0.00    +0.000 C 
ATOM     12  C   UNL     1       0.993   9.484  19.128  0.00  0.00    +0.000 A 
ENDBRANCH   1   9
BRANCH   3  13
ATOM     13  C   UNL     1       4.744   4.425  18.104  0.00  0.00    +0.000 A 
ATOM     14  N   UNL     1       4.202   4.044  16.926  0.00  0.00    +0.000 NA
ATOM     15  C   UNL     1       4.877   4.292  15.789  0.00  0.00    +0.000 A 
ATOM     16  C   UNL     1       6.116   4.891  15.758  0.00  0.00    +0.000 A 
ATOM     17  C   UNL     1       6.708   5.231  16.970  0.00  0.00    +0.000 A 
ATOM     18  C   UNL     1       6.027   4.988  18.172  0.00  0.00    +0.000 A 
ATOM     19  C   UNL     1       6.660   5.370  19.478  0.00  0.00    +0.000 C 
ENDBRANCH   3  13
BRANCH   2  20
ATOM     20  S   UNL     1       1.886   4.441  20.753  0.00  0.00    +0.000 S 
ATOM     21  H   UNL     1       1.925   5.392  21.697  0.00  0.00    +0.000 HD
ENDBRANCH   2  20
TORSDOF 3
ENDMDL
MODEL 8
REMARK VINA RESULT:      -6.3      5.165      7.309
REMARK  Name = 
REMARK  6 active torsions:
REMARK  status: ('A' for Active; 'I' for Inactive)
REMARK    1  A    between atoms: C_1  and  C_2
REMARK    2  A    between atoms: C_5  and  N_6
REMARK    3  A    between atoms: C_7  and  S_8
REMARK    4  A    between atoms: N_9  and  C_10
REMARK    5  A    between atoms: C_15  and  C_16
REMARK    6  A    between atoms: C_17  and  C_18
REMARK                            x       y       z     vdW  Elec       q    Type
REMARK                         _______ _______ _______ _____ _____    ______ ____
ROOT
ATOM      1  N   UNL     1      -1.526  11.330  18.877  0.00  0.00    +0.000 NA
ATOM      2  C   UNL     1      -0.482  12.098  18.961  0.00  0.00    +0.000 C 
ATOM      3  N   UNL     1       0.771  11.650  19.298  0.00  0.00    +0.000 N 
ATOM      4  H   UNL     1       1.466  12.369  19.432  0.00  0.00    +0.000 HD
ENDROOT
BRANCH   1   9
ATOM      5  C   UNL     1      -7.030  12.349  17.645  0.00  0.00    +0.000 C 
ATOM      6  C   UNL     1      -5.578  12.139  17.948  0.00  0.00    +0.000 A 
ATOM      7  C   UNL     1      -5.069  12.456  19.204  0.00  0.00    +0.000 A 
ATOM      8  C   UNL     1      -3.734  12.195  19.510  0.00  0.00    +0.000 A 
ATOM      9  C   UNL     1      -2.848  11.667  18.566  0.00  0.00    +0.000 A 
ATOM     10  C   UNL     1      -3.371  11.299  17.308  0.00  0.00    +0.000 A 
ATOM     11  C   UNL     1      -2.558  10.549  16.284  0.00  0.00    +0.000 C 
ATOM     12  C   UNL     1      -4.729  11.540  17.012  0.00  0.00    +0.000 A 
ENDBRANCH   1   9
BRANCH   3  13
ATOM     13  C   UNL     1       0.995  10.509  20.079  0.00  0.00    +0.000 A 
ATOM     14  N   UNL     1       0.852  10.594  21.420  0.00  0.00    +0.000 NA
ATOM     15  C   UNL     1       0.955   9.474  22.158  0.00  0.00    +0.000 A 
ATOM     16  C   UNL     1       1.231   8.236  21.622  0.00  0.00    +0.000 A 
ATOM     17  C   UNL     1       1.440   8.150  20.250  0.00  0.00    +0.000 A 
ATOM     18  C   UNL     1       1.336   9.300  19.454  0.00  0.00    +0.000 A 
ATOM     19  C   UNL     1       1.546   9.204  17.972  0.00  0.00    +0.000 C 
ENDBRANCH   3  13
BRANCH   2  20
ATOM     20  S   UNL     1      -0.435  13.821  18.603  0.00  0.00    +0.000 S 
ATOM     21  H   UNL     1      -1.189  14.183  19.651  0.00  0.00    +0.000 HD
ENDBRANCH   2  20
TORSDOF 3
ENDMDL
MODEL 9
REMARK VINA RESULT:      -6.3      1.638      2.588
REMARK  Name = 
REMARK  6 active torsions:
REMARK  status: ('A' for Active; 'I' for Inactive)
REMARK    1  A    between atoms: C_1  and  C_2
REMARK    2  A    between atoms: C_5  and  N_6
REMARK    3  A    between atoms: C_7  and  S_8
REMARK    4  A    between atoms: N_9  and  C_10
REMARK    5  A    between atoms: C_15  and  C_16
REMARK    6  A    between atoms: C_17  and  C_18
REMARK                            x       y       z     vdW  Elec       q    Type
REMARK                         _______ _______ _______ _____ _____    ______ ____
ROOT
ATOM      1  N   UNL     1       3.335   6.069  18.019  0.00  0.00    +0.000 NA
ATOM      2  C   UNL     1       2.976   4.864  17.692  0.00  0.00    +0.000 C 
ATOM      3  N   UNL     1       3.850   3.900  17.256  0.00  0.00    +0.000 N 
ATOM      4  H   UNL     1       3.423   3.043  16.934  0.00  0.00    +0.000 HD
ENDROOT
BRANCH   1   9
ATOM      5  C   UNL     1       0.393  10.572  19.998  0.00  0.00    +0.000 C 
ATOM      6  C   UNL     1       1.109   9.372  19.461  0.00  0.00    +0.000 A 
ATOM      7  C   UNL     1       1.606   9.374  18.160  0.00  0.00    +0.000 A 
ATOM      8  C   UNL     1       2.335   8.285  17.682  0.00  0.00    +0.000 A 
ATOM      9  C   UNL     1       2.545   7.138  18.454  0.00  0.00    +0.000 A 
ATOM     10  C   UNL     1       2.085   7.152  19.789  0.00  0.00    +0.000 A 
ATOM     11  C   UNL     1       2.420   6.057  20.769  0.00  0.00    +0.000 C 
ATOM     12  C   UNL     1       1.372   8.267  20.277  0.00  0.00    +0.000 A 
ENDBRANCH   1   9
BRANCH   3  13
ATOM     13  C   UNL     1       5.060   4.191  16.615  0.00  0.00    +0.000 A 
ATOM     14  N   UNL     1       5.103   4.194  15.264  0.00  0.00    +0.000 NA
ATOM     15  C   UNL     1       6.233   4.584  14.649  0.00  0.00    +0.000 A 
ATOM     16  C   UNL     1       7.373   4.959  15.324  0.00  0.00    +0.000 A 
ATOM     17  C   UNL     1       7.358   4.902  16.713  0.00  0.00    +0.000 A 
ATOM     18  C   UNL     1       6.192   4.500  17.383  0.00  0.00    +0.000 A 
ATOM     19  C   UNL     1       6.172   4.454  18.883  0.00  0.00    +0.000 C 
ENDBRANCH   3  13
BRANCH   2  20
ATOM     20  S   UNL     1       1.349   4.204  17.803  0.00  0.00    +0.000 S 
ATOM     21  H   UNL     1       1.572   3.522  18.936  0.00  0.00    +0.000 HD
ENDBRANCH   2  20
TORSDOF 3
ENDMDL
