MODEL 1
REMARK VINA RESULT:      -7.5      0.000      0.000
REMARK  Name = 
REMARK  5 active torsions:
REMARK  status: ('A' for Active; 'I' for Inactive)
REMARK    1  A    between atoms: C_1  and  C_2
REMARK    2  A    between atoms: C_2  and  C_3
REMARK    3  A    between atoms: C_2  and  C_4
REMARK    4  A    between atoms: N_8  and  S_9
REMARK    5  A    between atoms: S_9  and  C_12
REMARK                            x       y       z     vdW  Elec       q    Type
REMARK                         _______ _______ _______ _____ _____    ______ ____
ROOT
ATOM      1  S   UNL     1       4.714   3.936  18.252  0.00  0.00    +0.000 S 
ATOM      2  O   UNL     1       3.906   2.907  17.623  0.00  0.00    +0.000 OA
ATOM      3  O   UNL     1       5.598   3.659  19.363  0.00  0.00    +0.000 OA
ENDROOT
BRANCH   1   4
ATOM      4  C   UNL     1       3.614   5.232  18.753  0.00  0.00    +0.000 A 
ATOM      5  C   UNL     1       3.521   6.434  18.037  0.00  0.00    +0.000 A 
ATOM      6  C   UNL     1       2.664   7.442  18.490  0.00  0.00    +0.000 A 
ATOM      7 CL   UNL     1       2.555   8.921  17.619  0.00  0.00    +0.000 Cl
ATOM      8  C   UNL     1       1.900   7.267  19.641  0.00  0.00    +0.000 A 
ATOM      9  C   UNL     1       1.984   6.066  20.346  0.00  0.00    +0.000 A 
ATOM     10  C   UNL     1       2.835   5.046  19.907  0.00  0.00    +0.000 A 
ATOM     11 CL   UNL     1       2.855   3.605  20.859  0.00  0.00    +0.000 Cl
ENDBRANCH   1   4
BRANCH   1  16
ATOM     12  C   UNL     1       6.608   5.543  17.012  0.00  0.00    +0.000 A 
ATOM     13  N   UNL     1       7.119   5.692  15.796  0.00  0.00    +0.000 NA
ATOM     14  C   UNL     1       6.535   4.742  15.002  0.00  0.00    +0.000 A 
ATOM     15  C   UNL     1       5.620   4.014  15.717  0.00  0.00    +0.000 A 
ATOM     16  N   UNL     1       5.694   4.511  16.994  0.00  0.00    +0.000 N 
BRANCH  12  18
ATOM     17  C   UNL     1       8.079   5.603  19.027  0.00  0.00    +0.000 C 
ATOM     18  C   UNL     1       7.037   6.363  18.201  0.00  0.00    +0.000 C 
ATOM     19  C   UNL     1       7.637   7.705  17.754  0.00  0.00    +0.000 C 
ENDBRANCH  12  18
ENDBRANCH   1  16
TORSDOF 3
ENDMDL
MODEL 2
REMARK VINA RESULT:      -6.7      1.495      2.588
REMARK  Name = 
REMARK  5 active torsions:
REMARK  status: ('A' for Active; 'I' for Inactive)
REMARK    1  A    between atoms: C_1  and  C_2
REMARK    2  A    between atoms: C_2  and  C_3
REMARK    3  A    between atoms: C_2  and  C_4
REMARK    4  A    between atoms: N_8  and  S_9
REMARK    5  A    between atoms: S_9  and  C_12
REMARK                            x       y       z     vdW  Elec       q    Type
REMARK                         _______ _______ _______ _____ _____    ______ ____
ROOT
ATOM      1  S   UNL     1       4.709   3.582  18.761  0.00  0.00    +0.000 S 
ATOM      2  O   UNL     1       4.370   3.060  17.450  0.00  0.00    +0.000 OA
ATOM      3  O   UNL     1       5.261   2.752  19.809  0.00  0.00    +0.000 OA
ENDROOT
BRANCH   1   4
ATOM      4  C   UNL     1       3.256   4.364  19.406  0.00  0.00    +0.000 A 
ATOM      5  C   UNL     1       3.187   5.753  19.585  0.00  0.00    +0.000 A 
ATOM      6  C   UNL     1       2.032   6.323  20.130  0.00  0.00    +0.000 A 
ATOM      7 CL   UNL     1       1.949   8.025  20.359  0.00  0.00    +0.000 Cl
ATOM      8  C   UNL     1       0.948   5.529  20.494  0.00  0.00    +0.000 A 
ATOM      9  C   UNL     1       1.012   4.148  20.304  0.00  0.00    +0.000 A 
ATOM     10  C   UNL     1       2.160   3.561  19.760  0.00  0.00    +0.000 A 
ATOM     11 CL   UNL     1       2.124   1.844  19.571  0.00  0.00    +0.000 Cl
ENDBRANCH   1   4
BRANCH   1  16
ATOM     12  C   UNL     1       6.119   5.443  17.256  0.00  0.00    +0.000 A 
ATOM     13  N   UNL     1       7.151   6.259  17.428  0.00  0.00    +0.000 NA
ATOM     14  C   UNL     1       7.554   6.120  18.728  0.00  0.00    +0.000 A 
ATOM     15  C   UNL     1       6.792   5.178  19.370  0.00  0.00    +0.000 A 
ATOM     16  N   UNL     1       5.870   4.775  18.437  0.00  0.00    +0.000 N 
BRANCH  12  18
ATOM     17  C   UNL     1       4.989   6.736  15.446  0.00  0.00    +0.000 C 
ATOM     18  C   UNL     1       5.343   5.341  15.968  0.00  0.00    +0.000 C 
ATOM     19  C   UNL     1       6.156   4.599  14.896  0.00  0.00    +0.000 C 
ENDBRANCH  12  18
ENDBRANCH   1  16
TORSDOF 3
ENDMDL
MODEL 3
REMARK VINA RESULT:      -6.6      3.146      5.061
REMARK  Name = 
REMARK  5 active torsions:
REMARK  status: ('A' for Active; 'I' for Inactive)
REMARK    1  A    between atoms: C_1  and  C_2
REMARK    2  A    between atoms: C_2  and  C_3
REMARK    3  A    between atoms: C_2  and  C_4
REMARK    4  A    between atoms: N_8  and  S_9
REMARK    5  A    between atoms: S_9  and  C_12
REMARK                            x       y       z     vdW  Elec       q    Type
REMARK                         _______ _______ _______ _____ _____    ______ ____
ROOT
ATOM      1  S   UNL     1       2.088   3.485  17.633  0.00  0.00    +0.000 S 
ATOM      2  O   UNL     1       2.388   2.149  17.150  0.00  0.00    +0.000 OA
ATOM      3  O   UNL     1       0.873   4.185  17.279  0.00  0.00    +0.000 OA
ENDROOT
BRANCH   1   4
ATOM      4  C   UNL     1       3.454   4.522  17.186  0.00  0.00    +0.000 A 
ATOM      5  C   UNL     1       4.478   4.066  16.345  0.00  0.00    +0.000 A 
ATOM      6  C   UNL     1       5.554   4.908  16.048  0.00  0.00    +0.000 A 
ATOM      7 CL   UNL     1       6.817   4.348  15.023  0.00  0.00    +0.000 Cl
ATOM      8  C   UNL     1       5.620   6.195  16.574  0.00  0.00    +0.000 A 
ATOM      9  C   UNL     1       4.595   6.653  17.402  0.00  0.00    +0.000 A 
ATOM     10  C   UNL     1       3.510   5.824  17.710  0.00  0.00    +0.000 A 
ATOM     11 CL   UNL     1       2.301   6.499  18.743  0.00  0.00    +0.000 Cl
ENDBRANCH   1   4
BRANCH   1  16
ATOM     12  C   UNL     1       3.061   2.856  20.157  0.00  0.00    +0.000 A 
ATOM     13  N   UNL     1       2.606   2.835  21.403  0.00  0.00    +0.000 NA
ATOM     14  C   UNL     1       1.316   3.291  21.361  0.00  0.00    +0.000 A 
ATOM     15  C   UNL     1       0.945   3.566  20.070  0.00  0.00    +0.000 A 
ATOM     16  N   UNL     1       2.065   3.313  19.319  0.00  0.00    +0.000 N 
BRANCH  12  18
ATOM     17  C   UNL     1       5.371   3.721  19.779  0.00  0.00    +0.000 C 
ATOM     18  C   UNL     1       4.472   2.482  19.779  0.00  0.00    +0.000 C 
ATOM     19  C   UNL     1       5.046   1.450  20.761  0.00  0.00    +0.000 C 
ENDBRANCH  12  18
ENDBRANCH   1  16
TORSDOF 3
ENDMDL
MODEL 4
REMARK VINA RESULT:      -6.5      2.728      5.499
REMARK  Name = 
REMARK  5 active torsions:
REMARK  status: ('A' for Active; 'I' for Inactive)
REMARK    1  A    between atoms: C_1  and  C_2
REMARK    2  A    between atoms: C_2  and  C_3
REMARK    3  A    between atoms: C_2  and  C_4
REMARK    4  A    between atoms: N_8  and  S_9
REMARK    5  A    between atoms: S_9  and  C_12
REMARK                            x       y       z     vdW  Elec       q    Type
REMARK                         _______ _______ _______ _____ _____    ______ ____
ROOT
ATOM      1  S   UNL     1       4.740   3.656  18.036  0.00  0.00    +0.000 S 
ATOM      2  O   UNL     1       5.704   3.589  19.119  0.00  0.00    +0.000 OA
ATOM      3  O   UNL     1       3.898   2.537  17.675  0.00  0.00    +0.000 OA
ENDROOT
BRANCH   1   4
ATOM      4  C   UNL     1       5.621   4.155  16.581  0.00  0.00    +0.000 A 
ATOM      5  C   UNL     1       5.228   3.732  15.303  0.00  0.00    +0.000 A 
ATOM      6  C   UNL     1       5.973   4.122  14.187  0.00  0.00    +0.000 A 
ATOM      7 CL   UNL     1       5.498   3.597  12.619  0.00  0.00    +0.000 Cl
ATOM      8  C   UNL     1       7.100   4.928  14.327  0.00  0.00    +0.000 A 
ATOM      9  C   UNL     1       7.484   5.359  15.597  0.00  0.00    +0.000 A 
ATOM     10  C   UNL     1       6.749   4.978  16.726  0.00  0.00    +0.000 A 
ATOM     11 CL   UNL     1       7.319   5.572  18.245  0.00  0.00    +0.000 Cl
ENDBRANCH   1   4
BRANCH   1  16
ATOM     12  C   UNL     1       2.623   4.870  19.362  0.00  0.00    +0.000 A 
ATOM     13  N   UNL     1       2.048   6.065  19.396  0.00  0.00    +0.000 NA
ATOM     14  C   UNL     1       2.764   6.874  18.557  0.00  0.00    +0.000 A 
ATOM     15  C   UNL     1       3.778   6.170  17.959  0.00  0.00    +0.000 A 
ATOM     16  N   UNL     1       3.696   4.910  18.496  0.00  0.00    +0.000 N 
BRANCH  12  18
ATOM     17  C   UNL     1       2.264   4.045  21.689  0.00  0.00    +0.000 C 
ATOM     18  C   UNL     1       2.169   3.702  20.200  0.00  0.00    +0.000 C 
ATOM     19  C   UNL     1       0.719   3.321  19.867  0.00  0.00    +0.000 C 
ENDBRANCH  12  18
ENDBRANCH   1  16
TORSDOF 3
ENDMDL
MODEL 5
REMARK VINA RESULT:      -6.5      3.008      5.486
REMARK  Name = 
REMARK  5 active torsions:
REMARK  status: ('A' for Active; 'I' for Inactive)
REMARK    1  A    between atoms: C_1  and  C_2
REMARK    2  A    between atoms: C_2  and  C_3
REMARK    3  A    between atoms: C_2  and  C_4
REMARK    4  A    between atoms: N_8  and  S_9
REMARK    5  A    between atoms: S_9  and  C_12
REMARK                            x       y       z     vdW  Elec       q    Type
REMARK                         _______ _______ _______ _____ _____    ______ ____
ROOT
ATOM      1  S   UNL     1       4.821   4.699  18.587  0.00  0.00    +0.000 S 
ATOM      2  O   UNL     1       4.136   5.964  18.785  0.00  0.00    +0.000 OA
ATOM      3  O   UNL     1       5.773   4.174  19.540  0.00  0.00    +0.000 OA
ENDROOT
BRANCH   1   4
ATOM      4  C   UNL     1       5.628   4.781  17.012  0.00  0.00    +0.000 A 
ATOM      5  C   UNL     1       5.037   4.253  15.855  0.00  0.00    +0.000 A 
ATOM      6  C   UNL     1       5.726   4.309  14.640  0.00  0.00    +0.000 A 
ATOM      7 CL   UNL     1       5.008   3.653  13.222  0.00  0.00    +0.000 Cl
ATOM      8  C   UNL     1       6.991   4.886  14.563  0.00  0.00    +0.000 A 
ATOM      9  C   UNL     1       7.574   5.423  15.711  0.00  0.00    +0.000 A 
ATOM     10  C   UNL     1       6.898   5.375  16.936  0.00  0.00    +0.000 A 
ATOM     11 CL   UNL     1       7.717   6.071  18.288  0.00  0.00    +0.000 Cl
ENDBRANCH   1   4
BRANCH   1  16
ATOM     12  C   UNL     1       2.614   3.246  19.443  0.00  0.00    +0.000 A 
ATOM     13  N   UNL     1       1.850   2.266  18.980  0.00  0.00    +0.000 NA
ATOM     14  C   UNL     1       2.307   1.965  17.725  0.00  0.00    +0.000 A 
ATOM     15  C   UNL     1       3.395   2.740  17.412  0.00  0.00    +0.000 A 
ATOM     16  N   UNL     1       3.564   3.565  18.495  0.00  0.00    +0.000 N 
BRANCH  12  18
ATOM     17  C   UNL     1       1.395   5.058  20.652  0.00  0.00    +0.000 C 
ATOM     18  C   UNL     1       2.400   3.909  20.780  0.00  0.00    +0.000 C 
ATOM     19  C   UNL     1       1.875   2.901  21.813  0.00  0.00    +0.000 C 
ENDBRANCH  12  18
ENDBRANCH   1  16
TORSDOF 3
ENDMDL
MODEL 6
REMARK VINA RESULT:      -6.5      2.766      5.459
REMARK  Name = 
REMARK  5 active torsions:
REMARK  status: ('A' for Active; 'I' for Inactive)
REMARK    1  A    between atoms: C_1  and  C_2
REMARK    2  A    between atoms: C_2  and  C_3
REMARK    3  A    between atoms: C_2  and  C_4
REMARK    4  A    between atoms: N_8  and  S_9
REMARK    5  A    between atoms: S_9  and  C_12
REMARK                            x       y       z     vdW  Elec       q    Type
REMARK                         _______ _______ _______ _____ _____    ______ ____
ROOT
ATOM      1  S   UNL     1       4.037   3.532  18.653  0.00  0.00    +0.000 S 
ATOM      2  O   UNL     1       4.831   3.087  19.783  0.00  0.00    +0.000 OA
ATOM      3  O   UNL     1       3.075   2.676  17.994  0.00  0.00    +0.000 OA
ENDROOT
BRANCH   1   4
ATOM      4  C   UNL     1       5.164   4.120  17.419  0.00  0.00    +0.000 A 
ATOM      5  C   UNL     1       4.985   3.826  16.059  0.00  0.00    +0.000 A 
ATOM      6  C   UNL     1       5.919   4.283  15.125  0.00  0.00    +0.000 A 
ATOM      7 CL   UNL     1       5.706   3.916  13.458  0.00  0.00    +0.000 Cl
ATOM      8  C   UNL     1       7.025   5.028  15.526  0.00  0.00    +0.000 A 
ATOM      9  C   UNL     1       7.198   5.330  16.877  0.00  0.00    +0.000 A 
ATOM     10  C   UNL     1       6.272   4.882  17.826  0.00  0.00    +0.000 A 
ATOM     11 CL   UNL     1       6.588   5.318  19.468  0.00  0.00    +0.000 Cl
ENDBRANCH   1   4
BRANCH   1  16
ATOM     12  C   UNL     1       2.075   4.851  20.110  0.00  0.00    +0.000 A 
ATOM     13  N   UNL     1       1.667   6.100  20.293  0.00  0.00    +0.000 NA
ATOM     14  C   UNL     1       2.506   6.902  19.568  0.00  0.00    +0.000 A 
ATOM     15  C   UNL     1       3.428   6.145  18.891  0.00  0.00    +0.000 A 
ATOM     16  N   UNL     1       3.163   4.851  19.262  0.00  0.00    +0.000 N 
BRANCH  12  18
ATOM     17  C   UNL     1       0.774   2.751  19.758  0.00  0.00    +0.000 C 
ATOM     18  C   UNL     1       1.446   3.662  20.789  0.00  0.00    +0.000 C 
ATOM     19  C   UNL     1       2.500   2.851  21.559  0.00  0.00    +0.000 C 
ENDBRANCH  12  18
ENDBRANCH   1  16
TORSDOF 3
ENDMDL
MODEL 7
REMARK VINA RESULT:      -6.4      2.730      5.473
REMARK  Name = 
REMARK  5 active torsions:
REMARK  status: ('A' for Active; 'I' for Inactive)
REMARK    1  A    between atoms: C_1  and  C_2
REMARK    2  A    between atoms: C_2  and  C_3
REMARK    3  A    between atoms: C_2  and  C_4
REMARK    4  A    between atoms: N_8  and  S_9
REMARK    5  A    between atoms: S_9  and  C_12
REMARK                            x       y       z     vdW  Elec       q    Type
REMARK                         _______ _______ _______ _____ _____    ______ ____
ROOT
ATOM      1  S   UNL     1       3.552   3.499  17.427  0.00  0.00    +0.000 S 
ATOM      2  O   UNL     1       3.936   2.446  18.350  0.00  0.00    +0.000 OA
ATOM      3  O   UNL     1       2.531   3.315  16.420  0.00  0.00    +0.000 OA
ENDROOT
BRANCH   1   4
ATOM      4  C   UNL     1       5.026   4.038  16.605  0.00  0.00    +0.000 A 
ATOM      5  C   UNL     1       5.175   3.926  15.215  0.00  0.00    +0.000 A 
ATOM      6  C   UNL     1       6.370   4.333  14.614  0.00  0.00    +0.000 A 
ATOM      7 CL   UNL     1       6.558   4.188  12.910  0.00  0.00    +0.000 Cl
ATOM      8  C   UNL     1       7.414   4.849  15.377  0.00  0.00    +0.000 A 
ATOM      9  C   UNL     1       7.262   4.971  16.758  0.00  0.00    +0.000 A 
ATOM     10  C   UNL     1       6.072   4.570  17.377  0.00  0.00    +0.000 A 
ATOM     11 CL   UNL     1       5.998   4.769  19.091  0.00  0.00    +0.000 Cl
ENDBRANCH   1   4
BRANCH   1  16
ATOM     12  C   UNL     1       2.344   4.658  19.643  0.00  0.00    +0.000 A 
ATOM     13  N   UNL     1       2.056   5.880  20.072  0.00  0.00    +0.000 NA
ATOM     14  C   UNL     1       2.548   6.754  19.140  0.00  0.00    +0.000 A 
ATOM     15  C   UNL     1       3.117   6.072  18.095  0.00  0.00    +0.000 A 
ATOM     16  N   UNL     1       3.006   4.747  18.437  0.00  0.00    +0.000 N 
BRANCH  12  18
ATOM     17  C   UNL     1       2.207   3.646  21.920  0.00  0.00    +0.000 C 
ATOM     18  C   UNL     1       2.023   3.406  20.419  0.00  0.00    +0.000 C 
ATOM     19  C   UNL     1       0.578   2.956  20.159  0.00  0.00    +0.000 C 
ENDBRANCH  12  18
ENDBRANCH   1  16
TORSDOF 3
ENDMDL
MODEL 8
REMARK VINA RESULT:      -6.2      2.602      4.968
REMARK  Name = 
REMARK  5 active torsions:
REMARK  status: ('A' for Active; 'I' for Inactive)
REMARK    1  A    between atoms: C_1  and  C_2
REMARK    2  A    between atoms: C_2  and  C_3
REMARK    3  A    between atoms: C_2  and  C_4
REMARK    4  A    between atoms: N_8  and  S_9
REMARK    5  A    between atoms: S_9  and  C_12
REMARK                            x       y       z     vdW  Elec       q    Type
REMARK                         _______ _______ _______ _____ _____    ______ ____
ROOT
ATOM      1  S   UNL     1       3.158   3.408  17.752  0.00  0.00    +0.000 S 
ATOM      2  O   UNL     1       3.373   2.170  18.478  0.00  0.00    +0.000 OA
ATOM      3  O   UNL     1       2.191   3.524  16.683  0.00  0.00    +0.000 OA
ENDROOT
BRANCH   1   4
ATOM      4  C   UNL     1       4.729   3.921  17.113  0.00  0.00    +0.000 A 
ATOM      5  C   UNL     1       4.980   3.970  15.734  0.00  0.00    +0.000 A 
ATOM      6  C   UNL     1       6.246   4.347  15.277  0.00  0.00    +0.000 A 
ATOM      7 CL   UNL     1       6.560   4.400  13.586  0.00  0.00    +0.000 Cl
ATOM      8  C   UNL     1       7.260   4.678  16.172  0.00  0.00    +0.000 A 
ATOM      9  C   UNL     1       7.007   4.641  17.543  0.00  0.00    +0.000 A 
ATOM     10  C   UNL     1       5.745   4.265  18.019  0.00  0.00    +0.000 A 
ATOM     11 CL   UNL     1       5.547   4.257  19.735  0.00  0.00    +0.000 Cl
ENDBRANCH   1   4
BRANCH   1  16
ATOM     12  C   UNL     1       2.583   5.880  18.882  0.00  0.00    +0.000 A 
ATOM     13  N   UNL     1       2.214   6.351  20.065  0.00  0.00    +0.000 NA
ATOM     14  C   UNL     1       2.058   5.271  20.892  0.00  0.00    +0.000 A 
ATOM     15  C   UNL     1       2.370   4.111  20.230  0.00  0.00    +0.000 A 
ATOM     16  N   UNL     1       2.675   4.505  18.952  0.00  0.00    +0.000 N 
BRANCH  12  18
ATOM     17  C   UNL     1       1.917   7.998  17.742  0.00  0.00    +0.000 C 
ATOM     18  C   UNL     1       2.801   6.749  17.670  0.00  0.00    +0.000 C 
ATOM     19  C   UNL     1       4.271   7.184  17.565  0.00  0.00    +0.000 C 
ENDBRANCH  12  18
ENDBRANCH   1  16
TORSDOF 3
ENDMDL
MODEL 9
REMARK VINA RESULT:      -6.2      2.970      5.399
REMARK  Name = 
REMARK  5 active torsions:
REMARK  status: ('A' for Active; 'I' for Inactive)
REMARK    1  A    between atoms: C_1  and  C_2
REMARK    2  A    between atoms: C_2  and  C_3
REMARK    3  A    between atoms: C_2  and  C_4
REMARK    4  A    between atoms: N_8  and  S_9
REMARK    5  A    between atoms: S_9  and  C_12
REMARK                            x       y       z     vdW  Elec       q    Type
REMARK                         _______ _______ _______ _____ _____    ______ ____
ROOT
ATOM      1  S   UNL     1       3.443   5.331  18.018  0.00  0.00    +0.000 S 
ATOM      2  O   UNL     1       3.295   4.272  17.036  0.00  0.00    +0.000 OA
ATOM      3  O   UNL     1       2.719   6.579  17.930  0.00  0.00    +0.000 OA
ENDROOT
BRANCH   1   4
ATOM      4  C   UNL     1       5.170   5.718  18.114  0.00  0.00    +0.000 A 
ATOM      5  C   UNL     1       5.936   5.382  19.240  0.00  0.00    +0.000 A 
ATOM      6  C   UNL     1       7.287   5.739  19.286  0.00  0.00    +0.000 A 
ATOM      7 CL   UNL     1       8.227   5.336  20.669  0.00  0.00    +0.000 Cl
ATOM      8  C   UNL     1       7.883   6.421  18.228  0.00  0.00    +0.000 A 
ATOM      9  C   UNL     1       7.123   6.744  17.104  0.00  0.00    +0.000 A 
ATOM     10  C   UNL     1       5.770   6.395  17.040  0.00  0.00    +0.000 A 
ATOM     11 CL   UNL     1       4.931   6.846  15.599  0.00  0.00    +0.000 Cl
ENDBRANCH   1   4
BRANCH   1  16
ATOM     12  C   UNL     1       3.287   3.357  19.965  0.00  0.00    +0.000 A 
ATOM     13  N   UNL     1       2.659   3.169  21.119  0.00  0.00    +0.000 NA
ATOM     14  C   UNL     1       1.943   4.309  21.370  0.00  0.00    +0.000 A 
ATOM     15  C   UNL     1       2.093   5.207  20.345  0.00  0.00    +0.000 A 
ATOM     16  N   UNL     1       2.967   4.605  19.474  0.00  0.00    +0.000 N 
BRANCH  12  18
ATOM     17  C   UNL     1       4.975   1.586  20.459  0.00  0.00    +0.000 C 
ATOM     18  C   UNL     1       4.234   2.353  19.360  0.00  0.00    +0.000 C 
ATOM     19  C   UNL     1       3.477   1.350  18.476  0.00  0.00    +0.000 C 
ENDBRANCH  12  18
ENDBRANCH   1  16
TORSDOF 3
ENDMDL
