MODEL 1
REMARK VINA RESULT:      -7.2      0.000      0.000
REMARK  Name = 
REMARK  15 active torsions:
REMARK  status: ('A' for Active; 'I' for Inactive)
REMARK    1  A    between atoms: C_1  and  C_2
REMARK    2  A    between atoms: C_2  and  C_3
REMARK    3  A    between atoms: C_2  and  N_4
REMARK    4  A    between atoms: N_4  and  C_5
REMARK    5  A    between atoms: C_5  and  C_6
REMARK    6  A    between atoms: C_6  and  O_7
REMARK    7  A    between atoms: C_6  and  C_8
REMARK    8  A    between atoms: C_10  and  O_11
REMARK    9  A    between atoms: O_11  and  C_12
REMARK   10  A    between atoms: N_14  and  C_15
REMARK   11  A    between atoms: N_14  and  C_16
REMARK   12  A    between atoms: C_18  and  O_19
REMARK   13  A    between atoms: O_19  and  C_20
REMARK   14  A    between atoms: N_22  and  C_23
REMARK   15  A    between atoms: N_22  and  C_24
REMARK                            x       y       z     vdW  Elec       q    Type
REMARK                         _______ _______ _______ _____ _____    ______ ____
ROOT
ATOM      1  C   UNL     1       4.559   5.397  16.490  0.00  0.00    +0.000 A 
ATOM      2  C   UNL     1       4.185   6.595  17.128  0.00  0.00    +0.000 A 
ATOM      3  C   UNL     1       3.175   6.605  18.108  0.00  0.00    +0.000 A 
ATOM      4  C   UNL     1       2.558   5.380  18.453  0.00  0.00    +0.000 A 
ATOM      5  C   UNL     1       2.929   4.182  17.839  0.00  0.00    +0.000 A 
ATOM      6  C   UNL     1       3.905   4.206  16.837  0.00  0.00    +0.000 A 
ENDROOT
BRANCH   1   7
ATOM      7  C   UNL     1       5.718   5.344  15.505  0.00  0.00    +0.000 C 
BRANCH   7   8
ATOM      8  O   UNL     1       5.623   4.226  14.657  0.00  0.00    +0.000 OA
ATOM      9  H   UNL     1       5.932   4.492  13.753  0.00  0.00    +0.000 HD
ENDBRANCH   7   8
BRANCH   7  10
ATOM     10  C   UNL     1       7.026   5.349  16.335  0.00  0.00    +0.000 C 
BRANCH  10  11
ATOM     11  N   UNL     1       7.677   6.661  16.426  0.00  0.00    +0.000 NA
ATOM     12  H   UNL     1       8.707   6.515  16.306  0.00  0.00    +0.000 HD
BRANCH  11  14
ATOM     13  C   UNL     1       7.938   6.294  18.850  0.00  0.00    +0.000 C 
ATOM     14  C   UNL     1       7.461   7.263  17.766  0.00  0.00    +0.000 C 
ATOM     15  C   UNL     1       8.203   8.606  17.931  0.00  0.00    +0.000 C 
ENDBRANCH  11  14
ENDBRANCH  10  11
ENDBRANCH   7  10
ENDBRANCH   1   7
BRANCH   3  16
ATOM     16  O   UNL     1       2.880   7.805  18.701  0.00  0.00    +0.000 OA
BRANCH  16  17
ATOM     17  C   UNL     1       1.973   8.770  18.351  0.00  0.00    +0.000 C 
ATOM     18  O   UNL     1       1.931   9.195  17.208  0.00  0.00    +0.000 OA
ATOM     19  N   UNL     1       1.098   9.268  19.284  0.00  0.00    +0.000 N 
ATOM     20  C   UNL     1       0.113  10.286  18.933  0.00  0.00    +0.000 C 
ATOM     21  C   UNL     1       1.105   8.803  20.662  0.00  0.00    +0.000 C 
ENDBRANCH  16  17
ENDBRANCH   3  16
BRANCH   5  22
ATOM     22  O   UNL     1       2.348   3.030  18.271  0.00  0.00    +0.000 OA
BRANCH  22  23
ATOM     23  C   UNL     1       1.606   2.836  19.404  0.00  0.00    +0.000 C 
ATOM     24  O   UNL     1       0.383   2.806  19.342  0.00  0.00    +0.000 OA
ATOM     25  N   UNL     1       2.231   2.604  20.602  0.00  0.00    +0.000 N 
ATOM     26  C   UNL     1       1.468   2.354  21.820  0.00  0.00    +0.000 C 
ATOM     27  C   UNL     1       3.677   2.579  20.707  0.00  0.00    +0.000 C 
ENDBRANCH  22  23
ENDBRANCH   5  22
TORSDOF 9
ENDMDL
MODEL 2
REMARK VINA RESULT:      -7.1      1.178      1.831
REMARK  Name = 
REMARK  15 active torsions:
REMARK  status: ('A' for Active; 'I' for Inactive)
REMARK    1  A    between atoms: C_1  and  C_2
REMARK    2  A    between atoms: C_2  and  C_3
REMARK    3  A    between atoms: C_2  and  N_4
REMARK    4  A    between atoms: N_4  and  C_5
REMARK    5  A    between atoms: C_5  and  C_6
REMARK    6  A    between atoms: C_6  and  O_7
REMARK    7  A    between atoms: C_6  and  C_8
REMARK    8  A    between atoms: C_10  and  O_11
REMARK    9  A    between atoms: O_11  and  C_12
REMARK   10  A    between atoms: N_14  and  C_15
REMARK   11  A    between atoms: N_14  and  C_16
REMARK   12  A    between atoms: C_18  and  O_19
REMARK   13  A    between atoms: O_19  and  C_20
REMARK   14  A    between atoms: N_22  and  C_23
REMARK   15  A    between atoms: N_22  and  C_24
REMARK                            x       y       z     vdW  Elec       q    Type
REMARK                         _______ _______ _______ _____ _____    ______ ____
ROOT
ATOM      1  C   UNL     1       4.965   4.919  16.217  0.00  0.00    +0.000 A 
ATOM      2  C   UNL     1       4.435   6.158  16.623  0.00  0.00    +0.000 A 
ATOM      3  C   UNL     1       3.431   6.224  17.608  0.00  0.00    +0.000 A 
ATOM      4  C   UNL     1       2.982   5.019  18.196  0.00  0.00    +0.000 A 
ATOM      5  C   UNL     1       3.510   3.784  17.813  0.00  0.00    +0.000 A 
ATOM      6  C   UNL     1       4.475   3.742  16.801  0.00  0.00    +0.000 A 
ENDROOT
BRANCH   1   7
ATOM      7  C   UNL     1       6.122   4.830  15.232  0.00  0.00    +0.000 C 
BRANCH   7   8
ATOM      8  O   UNL     1       6.297   3.516  14.760  0.00  0.00    +0.000 OA
ATOM      9  H   UNL     1       7.167   3.177  15.093  0.00  0.00    +0.000 HD
ENDBRANCH   7   8
BRANCH   7  10
ATOM     10  C   UNL     1       7.381   5.372  15.953  0.00  0.00    +0.000 C 
BRANCH  10  11
ATOM     11  N   UNL     1       7.703   4.679  17.206  0.00  0.00    +0.000 NA
ATOM     12  H   UNL     1       6.917   4.019  17.416  0.00  0.00    +0.000 HD
BRANCH  11  14
ATOM     13  C   UNL     1       7.664   7.072  17.798  0.00  0.00    +0.000 C 
ATOM     14  C   UNL     1       7.793   5.644  18.331  0.00  0.00    +0.000 C 
ATOM     15  C   UNL     1       6.702   5.405  19.396  0.00  0.00    +0.000 C 
ENDBRANCH  11  14
ENDBRANCH  10  11
ENDBRANCH   7  10
ENDBRANCH   1   7
BRANCH   3  16
ATOM     16  O   UNL     1       2.978   7.467  17.968  0.00  0.00    +0.000 OA
BRANCH  16  17
ATOM     17  C   UNL     1       2.250   7.867  19.058  0.00  0.00    +0.000 C 
ATOM     18  O   UNL     1       2.218   7.180  20.067  0.00  0.00    +0.000 OA
ATOM     19  N   UNL     1       1.552   9.048  19.028  0.00  0.00    +0.000 N 
ATOM     20  C   UNL     1       0.782   9.503  20.180  0.00  0.00    +0.000 C 
ATOM     21  C   UNL     1       1.550   9.904  17.852  0.00  0.00    +0.000 C 
ENDBRANCH  16  17
ENDBRANCH   3  16
BRANCH   5  22
ATOM     22  O   UNL     1       3.087   2.671  18.472  0.00  0.00    +0.000 OA
BRANCH  22  23
ATOM     23  C   UNL     1       2.952   2.493  19.821  0.00  0.00    +0.000 C 
ATOM     24  O   UNL     1       3.941   2.320  20.522  0.00  0.00    +0.000 OA
ATOM     25  N   UNL     1       1.714   2.579  20.404  0.00  0.00    +0.000 N 
ATOM     26  C   UNL     1       1.542   2.434  21.845  0.00  0.00    +0.000 C 
ATOM     27  C   UNL     1       0.525   2.834  19.615  0.00  0.00    +0.000 C 
ENDBRANCH  22  23
ENDBRANCH   5  22
TORSDOF 9
ENDMDL
MODEL 3
REMARK VINA RESULT:      -7.1      1.885      3.025
REMARK  Name = 
REMARK  15 active torsions:
REMARK  status: ('A' for Active; 'I' for Inactive)
REMARK    1  A    between atoms: C_1  and  C_2
REMARK    2  A    between atoms: C_2  and  C_3
REMARK    3  A    between atoms: C_2  and  N_4
REMARK    4  A    between atoms: N_4  and  C_5
REMARK    5  A    between atoms: C_5  and  C_6
REMARK    6  A    between atoms: C_6  and  O_7
REMARK    7  A    between atoms: C_6  and  C_8
REMARK    8  A    between atoms: C_10  and  O_11
REMARK    9  A    between atoms: O_11  and  C_12
REMARK   10  A    between atoms: N_14  and  C_15
REMARK   11  A    between atoms: N_14  and  C_16
REMARK   12  A    between atoms: C_18  and  O_19
REMARK   13  A    between atoms: O_19  and  C_20
REMARK   14  A    between atoms: N_22  and  C_23
REMARK   15  A    between atoms: N_22  and  C_24
REMARK                            x       y       z     vdW  Elec       q    Type
REMARK                         _______ _______ _______ _____ _____    ______ ____
ROOT
ATOM      1  C   UNL     1       5.141   5.075  16.558  0.00  0.00    +0.000 A 
ATOM      2  C   UNL     1       4.639   6.321  16.978  0.00  0.00    +0.000 A 
ATOM      3  C   UNL     1       3.431   6.407  17.696  0.00  0.00    +0.000 A 
ATOM      4  C   UNL     1       2.743   5.210  18.004  0.00  0.00    +0.000 A 
ATOM      5  C   UNL     1       3.238   3.966  17.607  0.00  0.00    +0.000 A 
ATOM      6  C   UNL     1       4.417   3.911  16.857  0.00  0.00    +0.000 A 
ENDROOT
BRANCH   1   7
ATOM      7  C   UNL     1       6.495   4.949  15.874  0.00  0.00    +0.000 C 
BRANCH   7   8
ATOM      8  O   UNL     1       7.314   6.060  16.144  0.00  0.00    +0.000 OA
ATOM      9  H   UNL     1       8.073   6.051  15.506  0.00  0.00    +0.000 HD
ENDBRANCH   7   8
BRANCH   7  10
ATOM     10  C   UNL     1       6.228   4.764  14.359  0.00  0.00    +0.000 C 
BRANCH  10  11
ATOM     11  N   UNL     1       6.330   3.376  13.894  0.00  0.00    +0.000 NA
ATOM     12  H   UNL     1       7.244   2.993  14.235  0.00  0.00    +0.000 HD
BRANCH  11  14
ATOM     13  C   UNL     1       4.913   3.425  11.878  0.00  0.00    +0.000 C 
ATOM     14  C   UNL     1       6.343   3.318  12.411  0.00  0.00    +0.000 C 
ATOM     15  C   UNL     1       7.196   4.443  11.788  0.00  0.00    +0.000 C 
ENDBRANCH  11  14
ENDBRANCH  10  11
ENDBRANCH   7  10
ENDBRANCH   1   7
BRANCH   3  16
ATOM     16  O   UNL     1       3.016   7.652  18.090  0.00  0.00    +0.000 OA
BRANCH  16  17
ATOM     17  C   UNL     1       2.198   8.031  19.123  0.00  0.00    +0.000 C 
ATOM     18  O   UNL     1       2.122   7.352  20.134  0.00  0.00    +0.000 OA
ATOM     19  N   UNL     1       1.459   9.183  19.032  0.00  0.00    +0.000 N 
ATOM     20  C   UNL     1       0.593   9.617  20.123  0.00  0.00    +0.000 C 
ATOM     21  C   UNL     1       1.505  10.030  17.850  0.00  0.00    +0.000 C 
ENDBRANCH  16  17
ENDBRANCH   3  16
BRANCH   5  22
ATOM     22  O   UNL     1       2.565   2.850  18.001  0.00  0.00    +0.000 OA
BRANCH  22  23
ATOM     23  C   UNL     1       1.775   2.692  19.106  0.00  0.00    +0.000 C 
ATOM     24  O   UNL     1       0.561   2.593  18.987  0.00  0.00    +0.000 OA
ATOM     25  N   UNL     1       2.347   2.570  20.346  0.00  0.00    +0.000 N 
ATOM     26  C   UNL     1       1.536   2.360  21.539  0.00  0.00    +0.000 C 
ATOM     27  C   UNL     1       3.786   2.629  20.523  0.00  0.00    +0.000 C 
ENDBRANCH  22  23
ENDBRANCH   5  22
TORSDOF 9
ENDMDL
MODEL 4
REMARK VINA RESULT:      -6.9      2.162      3.359
REMARK  Name = 
REMARK  15 active torsions:
REMARK  status: ('A' for Active; 'I' for Inactive)
REMARK    1  A    between atoms: C_1  and  C_2
REMARK    2  A    between atoms: C_2  and  C_3
REMARK    3  A    between atoms: C_2  and  N_4
REMARK    4  A    between atoms: N_4  and  C_5
REMARK    5  A    between atoms: C_5  and  C_6
REMARK    6  A    between atoms: C_6  and  O_7
REMARK    7  A    between atoms: C_6  and  C_8
REMARK    8  A    between atoms: C_10  and  O_11
REMARK    9  A    between atoms: O_11  and  C_12
REMARK   10  A    between atoms: N_14  and  C_15
REMARK   11  A    between atoms: N_14  and  C_16
REMARK   12  A    between atoms: C_18  and  O_19
REMARK   13  A    between atoms: O_19  and  C_20
REMARK   14  A    between atoms: N_22  and  C_23
REMARK   15  A    between atoms: N_22  and  C_24
REMARK                            x       y       z     vdW  Elec       q    Type
REMARK                         _______ _______ _______ _____ _____    ______ ____
ROOT
ATOM      1  C   UNL     1       5.027   4.918  16.221  0.00  0.00    +0.000 A 
ATOM      2  C   UNL     1       4.793   6.233  16.665  0.00  0.00    +0.000 A 
ATOM      3  C   UNL     1       3.763   6.512  17.584  0.00  0.00    +0.000 A 
ATOM      4  C   UNL     1       2.981   5.436  18.067  0.00  0.00    +0.000 A 
ATOM      5  C   UNL     1       3.213   4.125  17.647  0.00  0.00    +0.000 A 
ATOM      6  C   UNL     1       4.213   3.881  16.701  0.00  0.00    +0.000 A 
ENDROOT
BRANCH   1   7
ATOM      7  C   UNL     1       6.198   4.579  15.312  0.00  0.00    +0.000 C 
BRANCH   7   8
ATOM      8  O   UNL     1       7.074   5.671  15.170  0.00  0.00    +0.000 OA
ATOM      9  H   UNL     1       7.079   5.946  14.217  0.00  0.00    +0.000 HD
ENDBRANCH   7   8
BRANCH   7  10
ATOM     10  C   UNL     1       5.608   4.114  13.957  0.00  0.00    +0.000 C 
BRANCH  10  11
ATOM     11  N   UNL     1       6.575   3.448  13.075  0.00  0.00    +0.000 NA
ATOM     12  H   UNL     1       7.357   4.121  12.895  0.00  0.00    +0.000 HD
BRANCH  11  14
ATOM     13  C   UNL     1       6.090   1.620  11.494  0.00  0.00    +0.000 C 
ATOM     14  C   UNL     1       5.954   3.120  11.767  0.00  0.00    +0.000 C 
ATOM     15  C   UNL     1       4.461   3.506  11.714  0.00  0.00    +0.000 C 
ENDBRANCH  11  14
ENDBRANCH  10  11
ENDBRANCH   7  10
ENDBRANCH   1   7
BRANCH   3  16
ATOM     16  O   UNL     1       3.608   7.812  17.987  0.00  0.00    +0.000 OA
BRANCH  16  17
ATOM     17  C   UNL     1       2.494   8.609  18.014  0.00  0.00    +0.000 C 
ATOM     18  O   UNL     1       2.198   9.293  17.047  0.00  0.00    +0.000 OA
ATOM     19  N   UNL     1       1.694   8.642  19.128  0.00  0.00    +0.000 N 
ATOM     20  C   UNL     1       0.494   9.469  19.177  0.00  0.00    +0.000 C 
ATOM     21  C   UNL     1       1.999   7.852  20.311  0.00  0.00    +0.000 C 
ENDBRANCH  16  17
ENDBRANCH   3  16
BRANCH   5  22
ATOM     22  O   UNL     1       2.473   3.129  18.208  0.00  0.00    +0.000 OA
BRANCH  22  23
ATOM     23  C   UNL     1       2.624   2.566  19.445  0.00  0.00    +0.000 C 
ATOM     24  O   UNL     1       3.565   1.815  19.669  0.00  0.00    +0.000 OA
ATOM     25  N   UNL     1       1.762   2.896  20.459  0.00  0.00    +0.000 N 
ATOM     26  C   UNL     1       1.920   2.343  21.799  0.00  0.00    +0.000 C 
ATOM     27  C   UNL     1       0.666   3.822  20.247  0.00  0.00    +0.000 C 
ENDBRANCH  22  23
ENDBRANCH   5  22
TORSDOF 9
ENDMDL
MODEL 5
REMARK VINA RESULT:      -6.9      1.978      3.001
REMARK  Name = 
REMARK  15 active torsions:
REMARK  status: ('A' for Active; 'I' for Inactive)
REMARK    1  A    between atoms: C_1  and  C_2
REMARK    2  A    between atoms: C_2  and  C_3
REMARK    3  A    between atoms: C_2  and  N_4
REMARK    4  A    between atoms: N_4  and  C_5
REMARK    5  A    between atoms: C_5  and  C_6
REMARK    6  A    between atoms: C_6  and  O_7
REMARK    7  A    between atoms: C_6  and  C_8
REMARK    8  A    between atoms: C_10  and  O_11
REMARK    9  A    between atoms: O_11  and  C_12
REMARK   10  A    between atoms: N_14  and  C_15
REMARK   11  A    between atoms: N_14  and  C_16
REMARK   12  A    between atoms: C_18  and  O_19
REMARK   13  A    between atoms: O_19  and  C_20
REMARK   14  A    between atoms: N_22  and  C_23
REMARK   15  A    between atoms: N_22  and  C_24
REMARK                            x       y       z     vdW  Elec       q    Type
REMARK                         _______ _______ _______ _____ _____    ______ ____
ROOT
ATOM      1  C   UNL     1       5.234   4.761  16.610  0.00  0.00    +0.000 A 
ATOM      2  C   UNL     1       4.963   6.070  17.051  0.00  0.00    +0.000 A 
ATOM      3  C   UNL     1       3.779   6.364  17.753  0.00  0.00    +0.000 A 
ATOM      4  C   UNL     1       2.875   5.310  18.024  0.00  0.00    +0.000 A 
ATOM      5  C   UNL     1       3.139   4.004  17.605  0.00  0.00    +0.000 A 
ATOM      6  C   UNL     1       4.302   3.747  16.872  0.00  0.00    +0.000 A 
ENDROOT
BRANCH   1   7
ATOM      7  C   UNL     1       6.553   4.400  15.943  0.00  0.00    +0.000 C 
BRANCH   7   8
ATOM      8  O   UNL     1       7.608   5.197  16.423  0.00  0.00    +0.000 OA
ATOM      9  H   UNL     1       7.978   4.770  17.237  0.00  0.00    +0.000 HD
ENDBRANCH   7   8
BRANCH   7  10
ATOM     10  C   UNL     1       6.349   4.545  14.414  0.00  0.00    +0.000 C 
BRANCH  10  11
ATOM     11  N   UNL     1       6.161   3.272  13.708  0.00  0.00    +0.000 NA
ATOM     12  H   UNL     1       6.916   2.619  14.022  0.00  0.00    +0.000 HD
BRANCH  11  14
ATOM     13  C   UNL     1       7.304   4.583  11.961  0.00  0.00    +0.000 C 
ATOM     14  C   UNL     1       6.306   3.457  12.243  0.00  0.00    +0.000 C 
ATOM     15  C   UNL     1       6.785   2.172  11.535  0.00  0.00    +0.000 C 
ENDBRANCH  11  14
ENDBRANCH  10  11
ENDBRANCH   7  10
ENDBRANCH   1   7
BRANCH   3  16
ATOM     16  O   UNL     1       3.593   7.657  18.170  0.00  0.00    +0.000 OA
BRANCH  16  17
ATOM     17  C   UNL     1       2.505   8.481  18.053  0.00  0.00    +0.000 C 
ATOM     18  O   UNL     1       2.292   9.082  17.013  0.00  0.00    +0.000 OA
ATOM     19  N   UNL     1       1.640   8.637  19.107  0.00  0.00    +0.000 N 
ATOM     20  C   UNL     1       0.466   9.497  19.004  0.00  0.00    +0.000 C 
ATOM     21  C   UNL     1       1.846   7.950  20.373  0.00  0.00    +0.000 C 
ENDBRANCH  16  17
ENDBRANCH   3  16
BRANCH   5  22
ATOM     22  O   UNL     1       2.264   3.025  17.964  0.00  0.00    +0.000 OA
BRANCH  22  23
ATOM     23  C   UNL     1       1.590   2.892  19.146  0.00  0.00    +0.000 C 
ATOM     24  O   UNL     1       0.367   2.951  19.169  0.00  0.00    +0.000 OA
ATOM     25  N   UNL     1       2.278   2.621  20.301  0.00  0.00    +0.000 N 
ATOM     26  C   UNL     1       1.585   2.434  21.571  0.00  0.00    +0.000 C 
ATOM     27  C   UNL     1       3.722   2.492  20.307  0.00  0.00    +0.000 C 
ENDBRANCH  22  23
ENDBRANCH   5  22
TORSDOF 9
ENDMDL
MODEL 6
REMARK VINA RESULT:      -6.8      0.612      4.824
REMARK  Name = 
REMARK  15 active torsions:
REMARK  status: ('A' for Active; 'I' for Inactive)
REMARK    1  A    between atoms: C_1  and  C_2
REMARK    2  A    between atoms: C_2  and  C_3
REMARK    3  A    between atoms: C_2  and  N_4
REMARK    4  A    between atoms: N_4  and  C_5
REMARK    5  A    between atoms: C_5  and  C_6
REMARK    6  A    between atoms: C_6  and  O_7
REMARK    7  A    between atoms: C_6  and  C_8
REMARK    8  A    between atoms: C_10  and  O_11
REMARK    9  A    between atoms: O_11  and  C_12
REMARK   10  A    between atoms: N_14  and  C_15
REMARK   11  A    between atoms: N_14  and  C_16
REMARK   12  A    between atoms: C_18  and  O_19
REMARK   13  A    between atoms: O_19  and  C_20
REMARK   14  A    between atoms: N_22  and  C_23
REMARK   15  A    between atoms: N_22  and  C_24
REMARK                            x       y       z     vdW  Elec       q    Type
REMARK                         _______ _______ _______ _____ _____    ______ ____
ROOT
ATOM      1  C   UNL     1       4.639   5.359  16.525  0.00  0.00    +0.000 A 
ATOM      2  C   UNL     1       3.822   4.274  16.895  0.00  0.00    +0.000 A 
ATOM      3  C   UNL     1       2.790   4.437  17.838  0.00  0.00    +0.000 A 
ATOM      4  C   UNL     1       2.578   5.722  18.391  0.00  0.00    +0.000 A 
ATOM      5  C   UNL     1       3.372   6.810  18.022  0.00  0.00    +0.000 A 
ATOM      6  C   UNL     1       4.419   6.612  17.115  0.00  0.00    +0.000 A 
ENDROOT
BRANCH   1   7
ATOM      7  C   UNL     1       5.691   5.230  15.432  0.00  0.00    +0.000 C 
BRANCH   7   8
ATOM      8  O   UNL     1       5.741   3.923  14.917  0.00  0.00    +0.000 OA
ATOM      9  H   UNL     1       6.184   3.953  14.030  0.00  0.00    +0.000 HD
ENDBRANCH   7   8
BRANCH   7  10
ATOM     10  C   UNL     1       7.043   5.679  16.042  0.00  0.00    +0.000 C 
BRANCH  10  11
ATOM     11  N   UNL     1       7.546   4.800  17.104  0.00  0.00    +0.000 NA
ATOM     12  H   UNL     1       6.795   4.103  17.323  0.00  0.00    +0.000 HD
BRANCH  11  14
ATOM     13  C   UNL     1       7.826   7.070  18.023  0.00  0.00    +0.000 C 
ATOM     14  C   UNL     1       7.818   5.573  18.342  0.00  0.00    +0.000 C 
ATOM     15  C   UNL     1       6.774   5.300  19.445  0.00  0.00    +0.000 C 
ENDBRANCH  11  14
ENDBRANCH  10  11
ENDBRANCH   7  10
ENDBRANCH   1   7
BRANCH   3  16
ATOM     16  O   UNL     1       2.021   3.341  18.132  0.00  0.00    +0.000 OA
BRANCH  16  17
ATOM     17  C   UNL     1       1.380   2.990  19.291  0.00  0.00    +0.000 C 
ATOM     18  O   UNL     1       0.163   2.900  19.323  0.00  0.00    +0.000 OA
ATOM     19  N   UNL     1       2.101   2.731  20.430  0.00  0.00    +0.000 N 
ATOM     20  C   UNL     1       1.443   2.341  21.672  0.00  0.00    +0.000 C 
ATOM     21  C   UNL     1       3.552   2.827  20.453  0.00  0.00    +0.000 C 
ENDBRANCH  16  17
ENDBRANCH   3  16
BRANCH   5  22
ATOM     22  O   UNL     1       3.067   8.033  18.536  0.00  0.00    +0.000 OA
BRANCH  22  23
ATOM     23  C   UNL     1       2.005   8.835  18.221  0.00  0.00    +0.000 C 
ATOM     24  O   UNL     1       1.816   9.181  17.061  0.00  0.00    +0.000 OA
ATOM     25  N   UNL     1       1.107   9.198  19.192  0.00  0.00    +0.000 N 
ATOM     26  C   UNL     1      -0.057  10.019  18.881  0.00  0.00    +0.000 C 
ATOM     27  C   UNL     1       1.267   8.766  20.567  0.00  0.00    +0.000 C 
ENDBRANCH  22  23
ENDBRANCH   5  22
TORSDOF 9
ENDMDL
MODEL 7
REMARK VINA RESULT:      -6.7      2.138      5.364
REMARK  Name = 
REMARK  15 active torsions:
REMARK  status: ('A' for Active; 'I' for Inactive)
REMARK    1  A    between atoms: C_1  and  C_2
REMARK    2  A    between atoms: C_2  and  C_3
REMARK    3  A    between atoms: C_2  and  N_4
REMARK    4  A    between atoms: N_4  and  C_5
REMARK    5  A    between atoms: C_5  and  C_6
REMARK    6  A    between atoms: C_6  and  O_7
REMARK    7  A    between atoms: C_6  and  C_8
REMARK    8  A    between atoms: C_10  and  O_11
REMARK    9  A    between atoms: O_11  and  C_12
REMARK   10  A    between atoms: N_14  and  C_15
REMARK   11  A    between atoms: N_14  and  C_16
REMARK   12  A    between atoms: C_18  and  O_19
REMARK   13  A    between atoms: O_19  and  C_20
REMARK   14  A    between atoms: N_22  and  C_23
REMARK   15  A    between atoms: N_22  and  C_24
REMARK                            x       y       z     vdW  Elec       q    Type
REMARK                         _______ _______ _______ _____ _____    ______ ____
ROOT
ATOM      1  C   UNL     1       2.179   6.324  19.719  0.00  0.00    +0.000 A 
ATOM      2  C   UNL     1       1.648   7.626  19.770  0.00  0.00    +0.000 A 
ATOM      3  C   UNL     1       2.033   8.599  18.829  0.00  0.00    +0.000 A 
ATOM      4  C   UNL     1       2.951   8.233  17.817  0.00  0.00    +0.000 A 
ATOM      5  C   UNL     1       3.474   6.940  17.746  0.00  0.00    +0.000 A 
ATOM      6  C   UNL     1       3.108   6.004  18.718  0.00  0.00    +0.000 A 
ENDROOT
BRANCH   1   7
ATOM      7  C   UNL     1       1.699   5.228  20.660  0.00  0.00    +0.000 C 
BRANCH   7   8
ATOM      8  O   UNL     1       2.698   4.866  21.582  0.00  0.00    +0.000 OA
ATOM      9  H   UNL     1       3.478   5.463  21.448  0.00  0.00    +0.000 HD
ENDBRANCH   7   8
BRANCH   7  10
ATOM     10  C   UNL     1       1.245   4.035  19.781  0.00  0.00    +0.000 C 
BRANCH  10  11
ATOM     11  N   UNL     1       1.652   2.721  20.293  0.00  0.00    +0.000 NA
ATOM     12  H   UNL     1       2.203   2.877  21.169  0.00  0.00    +0.000 HD
BRANCH  11  14
ATOM     13  C   UNL     1       2.156   2.437  17.896  0.00  0.00    +0.000 C 
ATOM     14  C   UNL     1       2.538   2.031  19.321  0.00  0.00    +0.000 C 
ATOM     15  C   UNL     1       4.029   2.356  19.554  0.00  0.00    +0.000 C 
ENDBRANCH  11  14
ENDBRANCH  10  11
ENDBRANCH   7  10
ENDBRANCH   1   7
BRANCH   3  16
ATOM     16  O   UNL     1       1.459   9.840  18.928  0.00  0.00    +0.000 OA
BRANCH  16  17
ATOM     17  C   UNL     1       0.173  10.246  18.687  0.00  0.00    +0.000 C 
ATOM     18  O   UNL     1      -0.443   9.816  17.725  0.00  0.00    +0.000 OA
ATOM     19  N   UNL     1      -0.441  11.138  19.530  0.00  0.00    +0.000 N 
ATOM     20  C   UNL     1      -1.814  11.575  19.304  0.00  0.00    +0.000 C 
ATOM     21  C   UNL     1       0.244  11.688  20.690  0.00  0.00    +0.000 C 
ENDBRANCH  16  17
ENDBRANCH   3  16
BRANCH   5  22
ATOM     22  O   UNL     1       4.294   6.634  16.703  0.00  0.00    +0.000 OA
BRANCH  22  23
ATOM     23  C   UNL     1       5.627   6.329  16.744  0.00  0.00    +0.000 C 
ATOM     24  O   UNL     1       6.451   7.200  16.989  0.00  0.00    +0.000 OA
ATOM     25  N   UNL     1       6.038   5.031  16.580  0.00  0.00    +0.000 N 
ATOM     26  C   UNL     1       7.448   4.666  16.658  0.00  0.00    +0.000 C 
ATOM     27  C   UNL     1       5.088   3.962  16.340  0.00  0.00    +0.000 C 
ENDBRANCH  22  23
ENDBRANCH   5  22
TORSDOF 9
ENDMDL
MODEL 8
REMARK VINA RESULT:      -6.7      2.149      5.576
REMARK  Name = 
REMARK  15 active torsions:
REMARK  status: ('A' for Active; 'I' for Inactive)
REMARK    1  A    between atoms: C_1  and  C_2
REMARK    2  A    between atoms: C_2  and  C_3
REMARK    3  A    between atoms: C_2  and  N_4
REMARK    4  A    between atoms: N_4  and  C_5
REMARK    5  A    between atoms: C_5  and  C_6
REMARK    6  A    between atoms: C_6  and  O_7
REMARK    7  A    between atoms: C_6  and  C_8
REMARK    8  A    between atoms: C_10  and  O_11
REMARK    9  A    between atoms: O_11  and  C_12
REMARK   10  A    between atoms: N_14  and  C_15
REMARK   11  A    between atoms: N_14  and  C_16
REMARK   12  A    between atoms: C_18  and  O_19
REMARK   13  A    between atoms: O_19  and  C_20
REMARK   14  A    between atoms: N_22  and  C_23
REMARK   15  A    between atoms: N_22  and  C_24
REMARK                            x       y       z     vdW  Elec       q    Type
REMARK                         _______ _______ _______ _____ _____    ______ ____
ROOT
ATOM      1  C   UNL     1       5.551   5.018  16.792  0.00  0.00    +0.000 A 
ATOM      2  C   UNL     1       5.096   3.877  17.478  0.00  0.00    +0.000 A 
ATOM      3  C   UNL     1       3.981   3.949  18.335  0.00  0.00    +0.000 A 
ATOM      4  C   UNL     1       3.316   5.189  18.474  0.00  0.00    +0.000 A 
ATOM      5  C   UNL     1       3.748   6.325  17.787  0.00  0.00    +0.000 A 
ATOM      6  C   UNL     1       4.884   6.238  16.976  0.00  0.00    +0.000 A 
ENDROOT
BRANCH   1   7
ATOM      7  C   UNL     1       6.687   4.942  15.781  0.00  0.00    +0.000 C 
BRANCH   7   8
ATOM      8  O   UNL     1       7.537   6.059  15.876  0.00  0.00    +0.000 OA
ATOM      9  H   UNL     1       8.474   5.748  15.783  0.00  0.00    +0.000 HD
ENDBRANCH   7   8
BRANCH   7  10
ATOM     10  C   UNL     1       6.045   4.804  14.378  0.00  0.00    +0.000 C 
BRANCH  10  11
ATOM     11  N   UNL     1       6.133   3.456  13.805  0.00  0.00    +0.000 NA
ATOM     12  H   UNL     1       7.067   3.060  14.065  0.00  0.00    +0.000 HD
BRANCH  11  14
ATOM     13  C   UNL     1       7.308   4.207  11.772  0.00  0.00    +0.000 C 
ATOM     14  C   UNL     1       6.062   3.509  12.323  0.00  0.00    +0.000 C 
ATOM     15  C   UNL     1       5.952   2.105  11.691  0.00  0.00    +0.000 C 
ENDBRANCH  11  14
ENDBRANCH  10  11
ENDBRANCH   7  10
ENDBRANCH   1   7
BRANCH   3  16
ATOM     16  O   UNL     1       3.582   2.792  18.954  0.00  0.00    +0.000 OA
BRANCH  16  17
ATOM     17  C   UNL     1       3.175   2.568  20.242  0.00  0.00    +0.000 C 
ATOM     18  O   UNL     1       3.991   2.335  21.119  0.00  0.00    +0.000 OA
ATOM     19  N   UNL     1       1.841   2.607  20.563  0.00  0.00    +0.000 N 
ATOM     20  C   UNL     1       1.382   2.387  21.929  0.00  0.00    +0.000 C 
ATOM     21  C   UNL     1       0.822   2.875  19.559  0.00  0.00    +0.000 C 
ENDBRANCH  16  17
ENDBRANCH   3  16
BRANCH   5  22
ATOM     22  O   UNL     1       3.018   7.467  17.908  0.00  0.00    +0.000 OA
BRANCH  22  23
ATOM     23  C   UNL     1       2.254   7.867  18.970  0.00  0.00    +0.000 C 
ATOM     24  O   UNL     1       2.174   7.167  19.971  0.00  0.00    +0.000 OA
ATOM     25  N   UNL     1       1.631   9.089  18.945  0.00  0.00    +0.000 N 
ATOM     26  C   UNL     1       0.842   9.562  20.077  0.00  0.00    +0.000 C 
ATOM     27  C   UNL     1       1.744   9.970  17.799  0.00  0.00    +0.000 C 
ENDBRANCH  22  23
ENDBRANCH   5  22
TORSDOF 9
ENDMDL
MODEL 9
REMARK VINA RESULT:      -6.6      2.129      5.317
REMARK  Name = 
REMARK  15 active torsions:
REMARK  status: ('A' for Active; 'I' for Inactive)
REMARK    1  A    between atoms: C_1  and  C_2
REMARK    2  A    between atoms: C_2  and  C_3
REMARK    3  A    between atoms: C_2  and  N_4
REMARK    4  A    between atoms: N_4  and  C_5
REMARK    5  A    between atoms: C_5  and  C_6
REMARK    6  A    between atoms: C_6  and  O_7
REMARK    7  A    between atoms: C_6  and  C_8
REMARK    8  A    between atoms: C_10  and  O_11
REMARK    9  A    between atoms: O_11  and  C_12
REMARK   10  A    between atoms: N_14  and  C_15
REMARK   11  A    between atoms: N_14  and  C_16
REMARK   12  A    between atoms: C_18  and  O_19
REMARK   13  A    between atoms: O_19  and  C_20
REMARK   14  A    between atoms: N_22  and  C_23
REMARK   15  A    between atoms: N_22  and  C_24
REMARK                            x       y       z     vdW  Elec       q    Type
REMARK                         _______ _______ _______ _____ _____    ______ ____
ROOT
ATOM      1  C   UNL     1       2.306   6.312  19.422  0.00  0.00    +0.000 A 
ATOM      2  C   UNL     1       1.559   7.447  19.056  0.00  0.00    +0.000 A 
ATOM      3  C   UNL     1       2.077   8.391  18.150  0.00  0.00    +0.000 A 
ATOM      4  C   UNL     1       3.359   8.161  17.597  0.00  0.00    +0.000 A 
ATOM      5  C   UNL     1       4.105   7.032  17.940  0.00  0.00    +0.000 A 
ATOM      6  C   UNL     1       3.585   6.132  18.875  0.00  0.00    +0.000 A 
ENDROOT
BRANCH   1   7
ATOM      7  C   UNL     1       1.724   5.227  20.317  0.00  0.00    +0.000 C 
BRANCH   7   8
ATOM      8  O   UNL     1       2.587   4.923  21.385  0.00  0.00    +0.000 OA
ATOM      9  H   UNL     1       2.096   5.067  22.234  0.00  0.00    +0.000 HD
ENDBRANCH   7   8
BRANCH   7  10
ATOM     10  C   UNL     1       1.438   3.997  19.420  0.00  0.00    +0.000 C 
BRANCH  10  11
ATOM     11  N   UNL     1       1.912   2.723  19.975  0.00  0.00    +0.000 NA
ATOM     12  H   UNL     1       2.340   2.923  20.909  0.00  0.00    +0.000 HD
BRANCH  11  14
ATOM     13  C   UNL     1       2.809   2.649  17.680  0.00  0.00    +0.000 C 
ATOM     14  C   UNL     1       2.967   2.134  19.112  0.00  0.00    +0.000 C 
ATOM     15  C   UNL     1       4.387   2.469  19.613  0.00  0.00    +0.000 C 
ENDBRANCH  11  14
ENDBRANCH  10  11
ENDBRANCH   7  10
ENDBRANCH   1   7
BRANCH   3  16
ATOM     16  O   UNL     1       1.284   9.460  17.824  0.00  0.00    +0.000 OA
BRANCH  16  17
ATOM     17  C   UNL     1       0.626  10.355  18.626  0.00  0.00    +0.000 C 
ATOM     18  O   UNL     1       1.221  10.948  19.512  0.00  0.00    +0.000 OA
ATOM     19  N   UNL     1      -0.711  10.600  18.438  0.00  0.00    +0.000 N 
ATOM     20  C   UNL     1      -1.431  11.560  19.267  0.00  0.00    +0.000 C 
ATOM     21  C   UNL     1      -1.473   9.921  17.401  0.00  0.00    +0.000 C 
ENDBRANCH  16  17
ENDBRANCH   3  16
BRANCH   5  22
ATOM     22  O   UNL     1       5.298   6.834  17.315  0.00  0.00    +0.000 OA
BRANCH  22  23
ATOM     23  C   UNL     1       5.535   6.159  16.149  0.00  0.00    +0.000 C 
ATOM     24  O   UNL     1       5.140   6.614  15.082  0.00  0.00    +0.000 OA
ATOM     25  N   UNL     1       6.276   5.006  16.162  0.00  0.00    +0.000 N 
ATOM     26  C   UNL     1       6.580   4.285  14.931  0.00  0.00    +0.000 C 
ATOM     27  C   UNL     1       6.805   4.463  17.398  0.00  0.00    +0.000 C 
ENDBRANCH  22  23
ENDBRANCH   5  22
TORSDOF 9
ENDMDL
