MODEL 1
REMARK VINA RESULT:      -9.1      0.000      0.000
REMARK  Name = 
REMARK  7 active torsions:
REMARK  status: ('A' for Active; 'I' for Inactive)
REMARK    1  A    between atoms: C_1  and  C_2
REMARK    2  A    between atoms: C_6  and  O_7
REMARK    3  A    between atoms: O_7  and  C_8
REMARK    4  A    between atoms: C_12  and  C_13
REMARK    5  A    between atoms: N_15  and  C_16
REMARK    6  A    between atoms: C_16  and  C_17
REMARK    7  A    between atoms: C_17  and  C_18
REMARK                            x       y       z     vdW  Elec       q    Type
REMARK                         _______ _______ _______ _____ _____    ______ ____
ROOT
ATOM      1  C   UNL     1       1.494   6.940  20.463  0.00  0.00    +0.000 C 
ATOM      2  O   UNL     1       0.681   7.240  21.322  0.00  0.00    +0.000 OA
ATOM      3  N   UNL     1       1.982   7.847  19.537  0.00  0.00    +0.000 N 
ATOM      4  H   UNL     1       2.744   7.597  18.931  0.00  0.00    +0.000 HD
ENDROOT
BRANCH   1   9
ATOM      5  C   UNL     1       3.757   3.925  19.758  0.00  0.00    +0.000 A 
ATOM      6  C   UNL     1       2.896   2.870  20.051  0.00  0.00    +0.000 A 
ATOM      7  C   UNL     1       1.590   3.132  20.469  0.00  0.00    +0.000 A 
ATOM      8  C   UNL     1       1.148   4.457  20.608  0.00  0.00    +0.000 A 
ATOM      9  C   UNL     1       2.018   5.528  20.359  0.00  0.00    +0.000 A 
ATOM     10  C   UNL     1       3.332   5.245  19.955  0.00  0.00    +0.000 A 
BRANCH   5  11
ATOM     11  O   UNL     1       5.019   3.590  19.312  0.00  0.00    +0.000 OA
BRANCH  11  17
ATOM     12  C   UNL     1       7.971   7.389  18.101  0.00  0.00    +0.000 C 
ATOM     13  C   UNL     1       7.075   6.249  17.718  0.00  0.00    +0.000 A 
ATOM     14  C   UNL     1       6.872   5.909  16.376  0.00  0.00    +0.000 A 
ATOM     15  C   UNL     1       6.036   4.843  16.039  0.00  0.00    +0.000 A 
ATOM     16  C   UNL     1       5.422   4.088  17.040  0.00  0.00    +0.000 A 
ATOM     17  C   UNL     1       5.641   4.399  18.383  0.00  0.00    +0.000 A 
ATOM     18  C   UNL     1       6.423   5.511  18.716  0.00  0.00    +0.000 A 
ENDBRANCH  11  17
ENDBRANCH   5  11
ENDBRANCH   1   9
BRANCH   3  19
ATOM     19  C   UNL     1       1.507   9.207  19.387  0.00  0.00    +0.000 C 
BRANCH  19  20
ATOM     20  C   UNL     1       0.755   9.548  18.106  0.00  0.00    +0.000 C 
BRANCH  20  21
ATOM     21  C   UNL     1      -0.480  10.393  18.184  0.00  0.00    +0.000 A 
ATOM     22  C   UNL     1      -0.589  11.423  19.097  0.00  0.00    +0.000 A 
ATOM     23  N   UNL     1      -1.912  11.414  19.413  0.00  0.00    +0.000 N 
ATOM     24  C   UNL     1      -2.597  11.193  18.249  0.00  0.00    +0.000 A 
ATOM     25  C   UNL     1      -3.903  11.536  17.911  0.00  0.00    +0.000 A 
ATOM     26  C   UNL     1      -4.319  11.201  16.627  0.00  0.00    +0.000 A 
ATOM     27  C   UNL     1      -3.504  10.424  15.811  0.00  0.00    +0.000 A 
ATOM     28 CL   UNL     1      -4.065  10.054  14.221  0.00  0.00    +0.000 Cl
ATOM     29  C   UNL     1      -2.232   9.977  16.224  0.00  0.00    +0.000 A 
ATOM     30  C   UNL     1      -1.717  10.451  17.446  0.00  0.00    +0.000 A 
ATOM     31  H   UNL     1      -2.294  11.309  20.341  0.00  0.00    +0.000 HD
ENDBRANCH  20  21
ENDBRANCH  19  20
ENDBRANCH   3  19
TORSDOF 6
ENDMDL
MODEL 2
REMARK VINA RESULT:      -9.0      3.709     10.573
REMARK  Name = 
REMARK  7 active torsions:
REMARK  status: ('A' for Active; 'I' for Inactive)
REMARK    1  A    between atoms: C_1  and  C_2
REMARK    2  A    between atoms: C_6  and  O_7
REMARK    3  A    between atoms: O_7  and  C_8
REMARK    4  A    between atoms: C_12  and  C_13
REMARK    5  A    between atoms: N_15  and  C_16
REMARK    6  A    between atoms: C_16  and  C_17
REMARK    7  A    between atoms: C_17  and  C_18
REMARK                            x       y       z     vdW  Elec       q    Type
REMARK                         _______ _______ _______ _____ _____    ______ ____
ROOT
ATOM      1  C   UNL     1      -0.900  10.596  18.389  0.00  0.00    +0.000 C 
ATOM      2  O   UNL     1      -0.792  11.194  19.447  0.00  0.00    +0.000 OA
ATOM      3  N   UNL     1       0.067   9.728  17.911  0.00  0.00    +0.000 N 
ATOM      4  H   UNL     1      -0.113   9.157  17.103  0.00  0.00    +0.000 HD
ENDROOT
BRANCH   1   9
ATOM      5  C   UNL     1      -4.399  11.579  17.164  0.00  0.00    +0.000 A 
ATOM      6  C   UNL     1      -4.424  10.974  15.910  0.00  0.00    +0.000 A 
ATOM      7  C   UNL     1      -3.317  10.249  15.466  0.00  0.00    +0.000 A 
ATOM      8  C   UNL     1      -2.175  10.140  16.275  0.00  0.00    +0.000 A 
ATOM      9  C   UNL     1      -2.121  10.781  17.521  0.00  0.00    +0.000 A 
ATOM     10  C   UNL     1      -3.238  11.520  17.943  0.00  0.00    +0.000 A 
BRANCH   5  11
ATOM     11  O   UNL     1      -5.544  12.246  17.553  0.00  0.00    +0.000 OA
BRANCH  11  17
ATOM     12  C   UNL     1      -7.457   8.572  20.283  0.00  0.00    +0.000 C 
ATOM     13  C   UNL     1      -7.223  10.030  20.025  0.00  0.00    +0.000 A 
ATOM     14  C   UNL     1      -7.672  11.005  20.924  0.00  0.00    +0.000 A 
ATOM     15  C   UNL     1      -7.442  12.357  20.668  0.00  0.00    +0.000 A 
ATOM     16  C   UNL     1      -6.735  12.746  19.530  0.00  0.00    +0.000 A 
ATOM     17  C   UNL     1      -6.256  11.782  18.641  0.00  0.00    +0.000 A 
ATOM     18  C   UNL     1      -6.548  10.432  18.864  0.00  0.00    +0.000 A 
ENDBRANCH  11  17
ENDBRANCH   5  11
ENDBRANCH   1   9
BRANCH   3  19
ATOM     19  C   UNL     1       1.361   9.518  18.526  0.00  0.00    +0.000 C 
BRANCH  19  20
ATOM     20  C   UNL     1       2.416   8.787  17.704  0.00  0.00    +0.000 C 
BRANCH  20  21
ATOM     21  C   UNL     1       2.918   7.455  18.173  0.00  0.00    +0.000 A 
ATOM     22  C   UNL     1       2.306   6.782  19.211  0.00  0.00    +0.000 A 
ATOM     23  N   UNL     1       3.345   6.149  19.820  0.00  0.00    +0.000 N 
ATOM     24  C   UNL     1       4.162   5.680  18.827  0.00  0.00    +0.000 A 
ATOM     25  C   UNL     1       5.059   4.616  18.847  0.00  0.00    +0.000 A 
ATOM     26  C   UNL     1       5.738   4.357  17.662  0.00  0.00    +0.000 A 
ATOM     27  C   UNL     1       5.623   5.231  16.586  0.00  0.00    +0.000 A 
ATOM     28 CL   UNL     1       6.475   4.848  15.135  0.00  0.00    +0.000 Cl
ATOM     29  C   UNL     1       4.803   6.378  16.634  0.00  0.00    +0.000 A 
ATOM     30  C   UNL     1       3.971   6.564  17.755  0.00  0.00    +0.000 A 
ATOM     31  H   UNL     1       3.606   6.246  20.790  0.00  0.00    +0.000 HD
ENDBRANCH  20  21
ENDBRANCH  19  20
ENDBRANCH   3  19
TORSDOF 6
ENDMDL
MODEL 3
REMARK VINA RESULT:      -8.9      3.450      9.436
REMARK  Name = 
REMARK  7 active torsions:
REMARK  status: ('A' for Active; 'I' for Inactive)
REMARK    1  A    between atoms: C_1  and  C_2
REMARK    2  A    between atoms: C_6  and  O_7
REMARK    3  A    between atoms: O_7  and  C_8
REMARK    4  A    between atoms: C_12  and  C_13
REMARK    5  A    between atoms: N_15  and  C_16
REMARK    6  A    between atoms: C_16  and  C_17
REMARK    7  A    between atoms: C_17  and  C_18
REMARK                            x       y       z     vdW  Elec       q    Type
REMARK                         _______ _______ _______ _____ _____    ______ ____
ROOT
ATOM      1  C   UNL     1       3.302   7.084  18.307  0.00  0.00    +0.000 C 
ATOM      2  O   UNL     1       3.658   7.371  17.176  0.00  0.00    +0.000 OA
ATOM      3  N   UNL     1       3.846   6.031  19.024  0.00  0.00    +0.000 N 
ATOM      4  H   UNL     1       3.621   5.906  19.996  0.00  0.00    +0.000 HD
ENDROOT
BRANCH   1   9
ATOM      5  C   UNL     1       0.671   9.760  19.098  0.00  0.00    +0.000 A 
ATOM      6  C   UNL     1       0.307   9.402  20.394  0.00  0.00    +0.000 A 
ATOM      7  C   UNL     1       0.913   8.305  21.009  0.00  0.00    +0.000 A 
ATOM      8  C   UNL     1       1.877   7.554  20.319  0.00  0.00    +0.000 A 
ATOM      9  C   UNL     1       2.221   7.878  18.999  0.00  0.00    +0.000 A 
ATOM     10  C   UNL     1       1.589   8.974  18.391  0.00  0.00    +0.000 A 
BRANCH   5  11
ATOM     11  O   UNL     1       0.060  10.879  18.569  0.00  0.00    +0.000 OA
BRANCH  11  17
ATOM     12  C   UNL     1      -4.637  12.347  19.203  0.00  0.00    +0.000 C 
ATOM     13  C   UNL     1      -3.608  11.499  18.516  0.00  0.00    +0.000 A 
ATOM     14  C   UNL     1      -3.960  10.643  17.467  0.00  0.00    +0.000 A 
ATOM     15  C   UNL     1      -2.988   9.863  16.839  0.00  0.00    +0.000 A 
ATOM     16  C   UNL     1      -1.652   9.954  17.232  0.00  0.00    +0.000 A 
ATOM     17  C   UNL     1      -1.284  10.827  18.257  0.00  0.00    +0.000 A 
ATOM     18  C   UNL     1      -2.270  11.555  18.931  0.00  0.00    +0.000 A 
ENDBRANCH  11  17
ENDBRANCH   5  11
ENDBRANCH   1   9
BRANCH   3  19
ATOM     19  C   UNL     1       4.793   5.074  18.491  0.00  0.00    +0.000 C 
BRANCH  19  20
ATOM     20  C   UNL     1       4.586   4.609  17.055  0.00  0.00    +0.000 C 
BRANCH  20  21
ATOM     21  C   UNL     1       5.728   4.681  16.088  0.00  0.00    +0.000 A 
ATOM     22  C   UNL     1       6.977   5.117  16.483  0.00  0.00    +0.000 A 
ATOM     23  N   UNL     1       7.443   5.755  15.376  0.00  0.00    +0.000 N 
ATOM     24  C   UNL     1       7.076   4.998  14.297  0.00  0.00    +0.000 A 
ATOM     25  C   UNL     1       7.654   4.918  13.033  0.00  0.00    +0.000 A 
ATOM     26  C   UNL     1       7.070   4.027  12.140  0.00  0.00    +0.000 A 
ATOM     27  C   UNL     1       5.878   3.389  12.471  0.00  0.00    +0.000 A 
ATOM     28 CL   UNL     1       5.209   2.280  11.330  0.00  0.00    +0.000 Cl
ATOM     29  C   UNL     1       5.239   3.585  13.713  0.00  0.00    +0.000 A 
ATOM     30  C   UNL     1       5.904   4.341  14.698  0.00  0.00    +0.000 A 
ATOM     31  H   UNL     1       7.746   6.717  15.335  0.00  0.00    +0.000 HD
ENDBRANCH  20  21
ENDBRANCH  19  20
ENDBRANCH   3  19
TORSDOF 6
ENDMDL
MODEL 4
REMARK VINA RESULT:      -8.9      0.378      1.288
REMARK  Name = 
REMARK  7 active torsions:
REMARK  status: ('A' for Active; 'I' for Inactive)
REMARK    1  A    between atoms: C_1  and  C_2
REMARK    2  A    between atoms: C_6  and  O_7
REMARK    3  A    between atoms: O_7  and  C_8
REMARK    4  A    between atoms: C_12  and  C_13
REMARK    5  A    between atoms: N_15  and  C_16
REMARK    6  A    between atoms: C_16  and  C_17
REMARK    7  A    between atoms: C_17  and  C_18
REMARK                            x       y       z     vdW  Elec       q    Type
REMARK                         _______ _______ _______ _____ _____    ______ ____
ROOT
ATOM      1  C   UNL     1       1.706   6.935  20.288  0.00  0.00    +0.000 C 
ATOM      2  O   UNL     1       0.855   7.276  21.093  0.00  0.00    +0.000 OA
ATOM      3  N   UNL     1       2.218   7.789  19.325  0.00  0.00    +0.000 N 
ATOM      4  H   UNL     1       3.007   7.513  18.766  0.00  0.00    +0.000 HD
ENDROOT
BRANCH   1   9
ATOM      5  C   UNL     1       3.996   3.903  19.766  0.00  0.00    +0.000 A 
ATOM      6  C   UNL     1       3.174   2.868  20.206  0.00  0.00    +0.000 A 
ATOM      7  C   UNL     1       1.886   3.149  20.663  0.00  0.00    +0.000 A 
ATOM      8  C   UNL     1       1.423   4.474  20.695  0.00  0.00    +0.000 A 
ATOM      9  C   UNL     1       2.255   5.529  20.296  0.00  0.00    +0.000 A 
ATOM     10  C   UNL     1       3.553   5.228  19.854  0.00  0.00    +0.000 A 
BRANCH   5  11
ATOM     11  O   UNL     1       5.241   3.546  19.290  0.00  0.00    +0.000 OA
BRANCH  11  17
ATOM     12  C   UNL     1       5.856   4.920  14.562  0.00  0.00    +0.000 C 
ATOM     13  C   UNL     1       6.190   5.043  16.019  0.00  0.00    +0.000 A 
ATOM     14  C   UNL     1       7.094   6.010  16.474  0.00  0.00    +0.000 A 
ATOM     15  C   UNL     1       7.390   6.111  17.834  0.00  0.00    +0.000 A 
ATOM     16  C   UNL     1       6.763   5.270  18.754  0.00  0.00    +0.000 A 
ATOM     17  C   UNL     1       5.837   4.322  18.316  0.00  0.00    +0.000 A 
ATOM     18  C   UNL     1       5.595   4.176  16.946  0.00  0.00    +0.000 A 
ENDBRANCH  11  17
ENDBRANCH   5  11
ENDBRANCH   1   9
BRANCH   3  19
ATOM     19  C   UNL     1       1.730   9.128  19.068  0.00  0.00    +0.000 C 
BRANCH  19  20
ATOM     20  C   UNL     1       0.787   9.314  17.886  0.00  0.00    +0.000 C 
BRANCH  20  21
ATOM     21  C   UNL     1      -0.418  10.193  18.038  0.00  0.00    +0.000 A 
ATOM     22  C   UNL     1      -0.466  11.185  18.998  0.00  0.00    +0.000 A 
ATOM     23  N   UNL     1      -1.778  11.201  19.355  0.00  0.00    +0.000 N 
ATOM     24  C   UNL     1      -2.505  11.052  18.205  0.00  0.00    +0.000 A 
ATOM     25  C   UNL     1      -3.809  11.450  17.925  0.00  0.00    +0.000 A 
ATOM     26  C   UNL     1      -4.275  11.184  16.641  0.00  0.00    +0.000 A 
ATOM     27  C   UNL     1      -3.510  10.419  15.767  0.00  0.00    +0.000 A 
ATOM     28 CL   UNL     1      -4.132  10.137  14.181  0.00  0.00    +0.000 Cl
ATOM     29  C   UNL     1      -2.241   9.915  16.120  0.00  0.00    +0.000 A 
ATOM     30  C   UNL     1      -1.675  10.320  17.344  0.00  0.00    +0.000 A 
ATOM     31  H   UNL     1      -2.135  11.067  20.290  0.00  0.00    +0.000 HD
ENDBRANCH  20  21
ENDBRANCH  19  20
ENDBRANCH   3  19
TORSDOF 6
ENDMDL
MODEL 5
REMARK VINA RESULT:      -8.8      3.416      9.274
REMARK  Name = 
REMARK  7 active torsions:
REMARK  status: ('A' for Active; 'I' for Inactive)
REMARK    1  A    between atoms: C_1  and  C_2
REMARK    2  A    between atoms: C_6  and  O_7
REMARK    3  A    between atoms: O_7  and  C_8
REMARK    4  A    between atoms: C_12  and  C_13
REMARK    5  A    between atoms: N_15  and  C_16
REMARK    6  A    between atoms: C_16  and  C_17
REMARK    7  A    between atoms: C_17  and  C_18
REMARK                            x       y       z     vdW  Elec       q    Type
REMARK                         _______ _______ _______ _____ _____    ______ ____
ROOT
ATOM      1  C   UNL     1       3.487   6.654  18.509  0.00  0.00    +0.000 C 
ATOM      2  O   UNL     1       3.933   7.012  17.431  0.00  0.00    +0.000 OA
ATOM      3  N   UNL     1       3.893   5.493  19.145  0.00  0.00    +0.000 N 
ATOM      4  H   UNL     1       3.602   5.299  20.088  0.00  0.00    +0.000 HD
ENDROOT
BRANCH   1   9
ATOM      5  C   UNL     1       1.096   9.499  19.458  0.00  0.00    +0.000 A 
ATOM      6  C   UNL     1       0.583   9.027  20.663  0.00  0.00    +0.000 A 
ATOM      7  C   UNL     1       1.011   7.798  21.168  0.00  0.00    +0.000 A 
ATOM      8  C   UNL     1       1.947   7.032  20.456  0.00  0.00    +0.000 A 
ATOM      9  C   UNL     1       2.439   7.476  19.220  0.00  0.00    +0.000 A 
ATOM     10  C   UNL     1       1.984   8.706  18.721  0.00  0.00    +0.000 A 
BRANCH   5  11
ATOM     11  O   UNL     1       0.657  10.740  19.041  0.00  0.00    +0.000 OA
BRANCH  11  17
ATOM     12  C   UNL     1      -3.046   9.625  15.933  0.00  0.00    +0.000 C 
ATOM     13  C   UNL     1      -2.502  10.381  17.108  0.00  0.00    +0.000 A 
ATOM     14  C   UNL     1      -3.317  11.234  17.861  0.00  0.00    +0.000 A 
ATOM     15  C   UNL     1      -2.793  11.927  18.952  0.00  0.00    +0.000 A 
ATOM     16  C   UNL     1      -1.458  11.750  19.321  0.00  0.00    +0.000 A 
ATOM     17  C   UNL     1      -0.643  10.879  18.597  0.00  0.00    +0.000 A 
ATOM     18  C   UNL     1      -1.152  10.240  17.461  0.00  0.00    +0.000 A 
ENDBRANCH  11  17
ENDBRANCH   5  11
ENDBRANCH   1   9
BRANCH   3  19
ATOM     19  C   UNL     1       4.784   4.507  18.570  0.00  0.00    +0.000 C 
BRANCH  19  20
ATOM     20  C   UNL     1       4.592   4.166  17.098  0.00  0.00    +0.000 C 
BRANCH  20  21
ATOM     21  C   UNL     1       5.725   4.383  16.140  0.00  0.00    +0.000 A 
ATOM     22  C   UNL     1       6.945   4.865  16.569  0.00  0.00    +0.000 A 
ATOM     23  N   UNL     1       7.367   5.614  15.515  0.00  0.00    +0.000 N 
ATOM     24  C   UNL     1       7.044   4.920  14.380  0.00  0.00    +0.000 A 
ATOM     25  C   UNL     1       7.621   4.973  13.115  0.00  0.00    +0.000 A 
ATOM     26  C   UNL     1       7.091   4.118  12.155  0.00  0.00    +0.000 A 
ATOM     27  C   UNL     1       5.943   3.383  12.435  0.00  0.00    +0.000 A 
ATOM     28 CL   UNL     1       5.340   2.324  11.212  0.00  0.00    +0.000 Cl
ATOM     29  C   UNL     1       5.297   3.443  13.688  0.00  0.00    +0.000 A 
ATOM     30  C   UNL     1       5.916   4.162  14.728  0.00  0.00    +0.000 A 
ATOM     31  H   UNL     1       7.608   6.593  15.547  0.00  0.00    +0.000 HD
ENDBRANCH  20  21
ENDBRANCH  19  20
ENDBRANCH   3  19
TORSDOF 6
ENDMDL
MODEL 6
REMARK VINA RESULT:      -8.8      5.593      9.122
REMARK  Name = 
REMARK  7 active torsions:
REMARK  status: ('A' for Active; 'I' for Inactive)
REMARK    1  A    between atoms: C_1  and  C_2
REMARK    2  A    between atoms: C_6  and  O_7
REMARK    3  A    between atoms: O_7  and  C_8
REMARK    4  A    between atoms: C_12  and  C_13
REMARK    5  A    between atoms: N_15  and  C_16
REMARK    6  A    between atoms: C_16  and  C_17
REMARK    7  A    between atoms: C_17  and  C_18
REMARK                            x       y       z     vdW  Elec       q    Type
REMARK                         _______ _______ _______ _____ _____    ______ ____
ROOT
ATOM      1  C   UNL     1       7.684   6.373  18.247  0.00  0.00    +0.000 C 
ATOM      2  O   UNL     1       8.228   5.857  19.209  0.00  0.00    +0.000 OA
ATOM      3  N   UNL     1       7.879   7.697  17.890  0.00  0.00    +0.000 N 
ATOM      4  H   UNL     1       7.518   8.050  17.020  0.00  0.00    +0.000 HD
ENDROOT
BRANCH   1   9
ATOM      5  C   UNL     1       4.535   4.665  16.876  0.00  0.00    +0.000 A 
ATOM      6  C   UNL     1       5.061   3.964  15.794  0.00  0.00    +0.000 A 
ATOM      7  C   UNL     1       6.426   4.039  15.512  0.00  0.00    +0.000 A 
ATOM      8  C   UNL     1       7.266   4.832  16.309  0.00  0.00    +0.000 A 
ATOM      9  C   UNL     1       6.743   5.577  17.376  0.00  0.00    +0.000 A 
ATOM     10  C   UNL     1       5.365   5.501  17.633  0.00  0.00    +0.000 A 
BRANCH   5  11
ATOM     11  O   UNL     1       3.185   4.511  17.118  0.00  0.00    +0.000 OA
BRANCH  11  17
ATOM     12  C   UNL     1       1.854   2.670  21.529  0.00  0.00    +0.000 C 
ATOM     13  C   UNL     1       2.040   3.825  20.591  0.00  0.00    +0.000 A 
ATOM     14  C   UNL     1       1.794   5.139  21.005  0.00  0.00    +0.000 A 
ATOM     15  C   UNL     1       1.975   6.201  20.118  0.00  0.00    +0.000 A 
ATOM     16  C   UNL     1       2.433   5.964  18.821  0.00  0.00    +0.000 A 
ATOM     17  C   UNL     1       2.711   4.660  18.406  0.00  0.00    +0.000 A 
ATOM     18  C   UNL     1       2.462   3.592  19.274  0.00  0.00    +0.000 A 
ENDBRANCH  11  17
ENDBRANCH   5  11
ENDBRANCH   1   9
BRANCH   3  19
ATOM     19  C   UNL     1       8.633   8.657  18.668  0.00  0.00    +0.000 C 
BRANCH  19  20
ATOM     20  C   UNL     1       8.746  10.072  18.115  0.00  0.00    +0.000 C 
BRANCH  20  21
ATOM     21  C   UNL     1       9.268  11.166  18.998  0.00  0.00    +0.000 A 
ATOM     22  C   UNL     1       9.501  10.954  20.342  0.00  0.00    +0.000 A 
ATOM     23  N   UNL     1       9.199  12.158  20.899  0.00  0.00    +0.000 N 
ATOM     24  C   UNL     1       9.694  13.119  20.059  0.00  0.00    +0.000 A 
ATOM     25  C   UNL     1      10.073  14.429  20.340  0.00  0.00    +0.000 A 
ATOM     26  C   UNL     1      10.573  15.170  19.275  0.00  0.00    +0.000 A 
ATOM     27  C   UNL     1      10.530  14.652  17.984  0.00  0.00    +0.000 A 
ATOM     28 CL   UNL     1      11.181  15.610  16.704  0.00  0.00    +0.000 Cl
ATOM     29  C   UNL     1      10.020  13.367  17.705  0.00  0.00    +0.000 A 
ATOM     30  C   UNL     1       9.675  12.532  18.786  0.00  0.00    +0.000 A 
ATOM     31  H   UNL     1       8.515  12.315  21.623  0.00  0.00    +0.000 HD
ENDBRANCH  20  21
ENDBRANCH  19  20
ENDBRANCH   3  19
TORSDOF 6
ENDMDL
MODEL 7
REMARK VINA RESULT:      -8.7      3.859      5.732
REMARK  Name = 
REMARK  7 active torsions:
REMARK  status: ('A' for Active; 'I' for Inactive)
REMARK    1  A    between atoms: C_1  and  C_2
REMARK    2  A    between atoms: C_6  and  O_7
REMARK    3  A    between atoms: O_7  and  C_8
REMARK    4  A    between atoms: C_12  and  C_13
REMARK    5  A    between atoms: N_15  and  C_16
REMARK    6  A    between atoms: C_16  and  C_17
REMARK    7  A    between atoms: C_17  and  C_18
REMARK                            x       y       z     vdW  Elec       q    Type
REMARK                         _______ _______ _______ _____ _____    ______ ____
ROOT
ATOM      1  C   UNL     1       0.420   9.701  21.812  0.00  0.00    +0.000 C 
ATOM      2  O   UNL     1       0.777   9.186  22.859  0.00  0.00    +0.000 OA
ATOM      3  N   UNL     1      -0.487  10.747  21.758  0.00  0.00    +0.000 N 
ATOM      4  H   UNL     1      -0.658  11.230  20.892  0.00  0.00    +0.000 HD
ENDROOT
BRANCH   1   9
ATOM      5  C   UNL     1       2.249   7.633  19.151  0.00  0.00    +0.000 A 
ATOM      6  C   UNL     1       2.050   8.418  18.018  0.00  0.00    +0.000 A 
ATOM      7  C   UNL     1       1.332   9.611  18.116  0.00  0.00    +0.000 A 
ATOM      8  C   UNL     1       0.799  10.013  19.350  0.00  0.00    +0.000 A 
ATOM      9  C   UNL     1       0.956   9.210  20.489  0.00  0.00    +0.000 A 
ATOM     10  C   UNL     1       1.667   8.006  20.368  0.00  0.00    +0.000 A 
BRANCH   5  11
ATOM     11  O   UNL     1       3.002   6.487  18.987  0.00  0.00    +0.000 OA
BRANCH  11  17
ATOM     12  C   UNL     1       1.540   2.634  21.749  0.00  0.00    +0.000 C 
ATOM     13  C   UNL     1       1.652   3.334  20.428  0.00  0.00    +0.000 A 
ATOM     14  C   UNL     1       1.083   2.790  19.270  0.00  0.00    +0.000 A 
ATOM     15  C   UNL     1       1.196   3.458  18.050  0.00  0.00    +0.000 A 
ATOM     16  C   UNL     1       1.849   4.689  17.981  0.00  0.00    +0.000 A 
ATOM     17  C   UNL     1       2.395   5.256  19.134  0.00  0.00    +0.000 A 
ATOM     18  C   UNL     1       2.342   4.552  20.341  0.00  0.00    +0.000 A 
ENDBRANCH  11  17
ENDBRANCH   5  11
ENDBRANCH   1   9
BRANCH   3  19
ATOM     19  C   UNL     1      -1.213  11.268  22.897  0.00  0.00    +0.000 C 
BRANCH  19  20
ATOM     20  C   UNL     1      -1.383  12.780  22.986  0.00  0.00    +0.000 C 
BRANCH  20  21
ATOM     21  C   UNL     1      -2.727  13.348  23.327  0.00  0.00    +0.000 A 
ATOM     22  C   UNL     1      -2.865  14.351  24.267  0.00  0.00    +0.000 A 
ATOM     23  N   UNL     1      -4.066  14.070  24.840  0.00  0.00    +0.000 N 
ATOM     24  C   UNL     1      -4.908  13.686  23.831  0.00  0.00    +0.000 A 
ATOM     25  C   UNL     1      -6.297  13.740  23.768  0.00  0.00    +0.000 A 
ATOM     26  C   UNL     1      -6.881  13.299  22.586  0.00  0.00    +0.000 A 
ATOM     27  C   UNL     1      -6.101  12.694  21.606  0.00  0.00    +0.000 A 
ATOM     28 CL   UNL     1      -6.878  12.183  20.152  0.00  0.00    +0.000 Cl
ATOM     29  C   UNL     1      -4.707  12.533  21.747  0.00  0.00    +0.000 A 
ATOM     30  C   UNL     1      -4.071  13.130  22.853  0.00  0.00    +0.000 A 
ATOM     31  H   UNL     1      -4.225  13.906  25.823  0.00  0.00    +0.000 HD
ENDBRANCH  20  21
ENDBRANCH  19  20
ENDBRANCH   3  19
TORSDOF 6
ENDMDL
MODEL 8
REMARK VINA RESULT:      -8.7      1.516      1.760
REMARK  Name = 
REMARK  7 active torsions:
REMARK  status: ('A' for Active; 'I' for Inactive)
REMARK    1  A    between atoms: C_1  and  C_2
REMARK    2  A    between atoms: C_6  and  O_7
REMARK    3  A    between atoms: O_7  and  C_8
REMARK    4  A    between atoms: C_12  and  C_13
REMARK    5  A    between atoms: N_15  and  C_16
REMARK    6  A    between atoms: C_16  and  C_17
REMARK    7  A    between atoms: C_17  and  C_18
REMARK                            x       y       z     vdW  Elec       q    Type
REMARK                         _______ _______ _______ _____ _____    ______ ____
ROOT
ATOM      1  C   UNL     1       1.359   8.480  20.949  0.00  0.00    +0.000 C 
ATOM      2  O   UNL     1       1.338   8.586  22.164  0.00  0.00    +0.000 OA
ATOM      3  N   UNL     1       0.993   9.509  20.096  0.00  0.00    +0.000 N 
ATOM      4  H   UNL     1       1.147   9.429  19.105  0.00  0.00    +0.000 HD
ENDROOT
BRANCH   1   9
ATOM      5  C   UNL     1       2.802   5.952  18.452  0.00  0.00    +0.000 A 
ATOM      6  C   UNL     1       2.445   4.748  19.054  0.00  0.00    +0.000 A 
ATOM      7  C   UNL     1       1.737   4.754  20.257  0.00  0.00    +0.000 A 
ATOM      8  C   UNL     1       1.398   5.971  20.868  0.00  0.00    +0.000 A 
ATOM      9  C   UNL     1       1.790   7.189  20.295  0.00  0.00    +0.000 A 
ATOM     10  C   UNL     1       2.514   7.163  19.093  0.00  0.00    +0.000 A 
BRANCH   5  11
ATOM     11  O   UNL     1       3.464   5.869  17.243  0.00  0.00    +0.000 OA
BRANCH  11  17
ATOM     12  C   UNL     1       8.016   5.780  19.215  0.00  0.00    +0.000 C 
ATOM     13  C   UNL     1       7.045   5.400  18.138  0.00  0.00    +0.000 A 
ATOM     14  C   UNL     1       7.429   4.571  17.077  0.00  0.00    +0.000 A 
ATOM     15  C   UNL     1       6.510   4.227  16.085  0.00  0.00    +0.000 A 
ATOM     16  C   UNL     1       5.192   4.680  16.160  0.00  0.00    +0.000 A 
ATOM     17  C   UNL     1       4.789   5.483  17.228  0.00  0.00    +0.000 A 
ATOM     18  C   UNL     1       5.730   5.884  18.183  0.00  0.00    +0.000 A 
ENDBRANCH  11  17
ENDBRANCH   5  11
ENDBRANCH   1   9
BRANCH   3  19
ATOM     19  C   UNL     1       0.428  10.771  20.523  0.00  0.00    +0.000 C 
BRANCH  19  20
ATOM     20  C   UNL     1       0.117  11.800  19.443  0.00  0.00    +0.000 C 
BRANCH  20  21
ATOM     21  C   UNL     1      -1.309  12.050  19.056  0.00  0.00    +0.000 A 
ATOM     22  C   UNL     1      -2.085  12.971  19.731  0.00  0.00    +0.000 A 
ATOM     23  N   UNL     1      -3.326  12.418  19.685  0.00  0.00    +0.000 N 
ATOM     24  C   UNL     1      -3.479  11.887  18.432  0.00  0.00    +0.000 A 
ATOM     25  C   UNL     1      -4.643  11.637  17.713  0.00  0.00    +0.000 A 
ATOM     26  C   UNL     1      -4.481  11.112  16.435  0.00  0.00    +0.000 A 
ATOM     27  C   UNL     1      -3.220  10.720  15.997  0.00  0.00    +0.000 A 
ATOM     28 CL   UNL     1      -3.077  10.091  14.396  0.00  0.00    +0.000 Cl
ATOM     29  C   UNL     1      -2.067  10.864  16.797  0.00  0.00    +0.000 A 
ATOM     30  C   UNL     1      -2.180  11.556  18.019  0.00  0.00    +0.000 A 
ATOM     31  H   UNL     1      -3.901  12.196  20.484  0.00  0.00    +0.000 HD
ENDBRANCH  20  21
ENDBRANCH  19  20
ENDBRANCH   3  19
TORSDOF 6
ENDMDL
MODEL 9
REMARK VINA RESULT:      -8.6      5.810      9.215
REMARK  Name = 
REMARK  7 active torsions:
REMARK  status: ('A' for Active; 'I' for Inactive)
REMARK    1  A    between atoms: C_1  and  C_2
REMARK    2  A    between atoms: C_6  and  O_7
REMARK    3  A    between atoms: O_7  and  C_8
REMARK    4  A    between atoms: C_12  and  C_13
REMARK    5  A    between atoms: N_15  and  C_16
REMARK    6  A    between atoms: C_16  and  C_17
REMARK    7  A    between atoms: C_17  and  C_18
REMARK                            x       y       z     vdW  Elec       q    Type
REMARK                         _______ _______ _______ _____ _____    ______ ____
ROOT
ATOM      1  C   UNL     1       7.713   7.185  18.156  0.00  0.00    +0.000 C 
ATOM      2  O   UNL     1       8.488   6.727  18.979  0.00  0.00    +0.000 OA
ATOM      3  N   UNL     1       7.733   8.512  17.758  0.00  0.00    +0.000 N 
ATOM      4  H   UNL     1       7.168   8.822  16.986  0.00  0.00    +0.000 HD
ENDROOT
BRANCH   1   9
ATOM      5  C   UNL     1       4.347   5.583  17.253  0.00  0.00    +0.000 A 
ATOM      6  C   UNL     1       4.758   4.561  16.402  0.00  0.00    +0.000 A 
ATOM      7  C   UNL     1       6.115   4.387  16.126  0.00  0.00    +0.000 A 
ATOM      8  C   UNL     1       7.065   5.251  16.693  0.00  0.00    +0.000 A 
ATOM      9  C   UNL     1       6.661   6.311  17.517  0.00  0.00    +0.000 A 
ATOM     10  C   UNL     1       5.291   6.479  17.770  0.00  0.00    +0.000 A 
BRANCH   5  11
ATOM     11  O   UNL     1       2.994   5.669  17.512  0.00  0.00    +0.000 OA
BRANCH  11  17
ATOM     12  C   UNL     1       2.278   3.460  21.896  0.00  0.00    +0.000 C 
ATOM     13  C   UNL     1       2.003   3.580  20.427  0.00  0.00    +0.000 A 
ATOM     14  C   UNL     1       1.068   2.752  19.795  0.00  0.00    +0.000 A 
ATOM     15  C   UNL     1       0.824   2.881  18.427  0.00  0.00    +0.000 A 
ATOM     16  C   UNL     1       1.487   3.860  17.685  0.00  0.00    +0.000 A 
ATOM     17  C   UNL     1       2.399   4.712  18.309  0.00  0.00    +0.000 A 
ATOM     18  C   UNL     1       2.694   4.534  19.665  0.00  0.00    +0.000 A 
ENDBRANCH  11  17
ENDBRANCH   5  11
ENDBRANCH   1   9
BRANCH   3  19
ATOM     19  C   UNL     1       8.572   9.535  18.346  0.00  0.00    +0.000 C 
BRANCH  19  20
ATOM     20  C   UNL     1       8.464  10.943  17.773  0.00  0.00    +0.000 C 
BRANCH  20  21
ATOM     21  C   UNL     1       9.545  11.940  18.066  0.00  0.00    +0.000 A 
ATOM     22  C   UNL     1      10.880  11.598  17.977  0.00  0.00    +0.000 A 
ATOM     23  N   UNL     1      11.453  12.344  18.960  0.00  0.00    +0.000 N 
ATOM     24  C   UNL     1      10.854  13.575  18.925  0.00  0.00    +0.000 A 
ATOM     25  C   UNL     1      11.339  14.807  19.353  0.00  0.00    +0.000 A 
ATOM     26  C   UNL     1      10.503  15.902  19.161  0.00  0.00    +0.000 A 
ATOM     27  C   UNL     1       9.200  15.713  18.711  0.00  0.00    +0.000 A 
ATOM     28 CL   UNL     1       8.215  17.111  18.474  0.00  0.00    +0.000 Cl
ATOM     29  C   UNL     1       8.687  14.436  18.405  0.00  0.00    +0.000 A 
ATOM     30  C   UNL     1       9.567  13.337  18.421  0.00  0.00    +0.000 A 
ATOM     31  H   UNL     1      11.997  11.984  19.729  0.00  0.00    +0.000 HD
ENDBRANCH  20  21
ENDBRANCH  19  20
ENDBRANCH   3  19
TORSDOF 6
ENDMDL
