MODEL 1
REMARK VINA RESULT:      -7.4      0.000      0.000
REMARK  Name = 
REMARK  9 active torsions:
REMARK  status: ('A' for Active; 'I' for Inactive)
REMARK    1  A    between atoms: C_1  and  C_2
REMARK    2  A    between atoms: C_4  and  O_5
REMARK    3  A    between atoms: C_11  and  O_12
REMARK    4  A    between atoms: C_14  and  C_15
REMARK    5  A    between atoms: C_14  and  C_16
REMARK    6  A    between atoms: C_20  and  O_21
REMARK    7  A    between atoms: C_22  and  C_23
REMARK    8  A    between atoms: C_23  and  N_24
REMARK    9  A    between atoms: C_29  and  O_30
REMARK                            x       y       z     vdW  Elec       q    Type
REMARK                         _______ _______ _______ _____ _____    ______ ____
ROOT
ATOM      1  C   UNL     1      -7.824  13.781  18.638  0.00  0.00    +0.000 C 
ATOM      2  C   UNL     1      -6.512  13.049  18.480  0.00  0.00    +0.000 A 
ATOM      3  C   UNL     1      -6.305  12.399  17.261  0.00  0.00    +0.000 A 
ATOM      4  C   UNL     1      -5.124  11.718  17.020  0.00  0.00    +0.000 A 
ATOM      5  C   UNL     1      -4.115  11.652  17.999  0.00  0.00    +0.000 A 
ATOM      6  C   UNL     1      -4.278  12.320  19.242  0.00  0.00    +0.000 A 
ATOM      7  C   UNL     1      -3.236  12.325  20.212  0.00  0.00    +0.000 A 
ATOM      8  C   UNL     1      -3.353  13.108  21.398  0.00  0.00    +0.000 A 
ATOM      9  C   UNL     1      -4.559  13.770  21.633  0.00  0.00    +0.000 A 
ATOM     10  C   UNL     1      -5.609  13.711  20.722  0.00  0.00    +0.000 A 
ATOM     11  C   UNL     1      -5.496  13.031  19.485  0.00  0.00    +0.000 A 
ATOM     12  C   UNL     1      -2.145  13.321  22.314  0.00  0.00    +0.000 C 
ATOM     13  C   UNL     1      -1.289  14.497  21.790  0.00  0.00    +0.000 C 
ATOM     14  C   UNL     1      -2.477  13.566  23.807  0.00  0.00    +0.000 C 
ATOM     15  C   UNL     1      -1.194  12.143  22.240  0.00  0.00    +0.000 C 
ATOM     16  O   UNL     1      -0.500  11.758  23.181  0.00  0.00    +0.000 OA
ATOM     17  C   UNL     1      -0.954  11.564  20.904  0.00  0.00    +0.000 A 
ATOM     18  C   UNL     1       0.323  11.067  20.618  0.00  0.00    +0.000 A 
ATOM     19  C   UNL     1       0.563  10.341  19.446  0.00  0.00    +0.000 A 
ATOM     20  C   UNL     1      -0.491  10.283  18.511  0.00  0.00    +0.000 A 
ATOM     21  C   UNL     1      -1.744  10.917  18.747  0.00  0.00    +0.000 A 
ATOM     22  C   UNL     1      -1.982  11.587  19.956  0.00  0.00    +0.000 A 
ATOM     23  C   UNL     1      -2.840  10.912  17.726  0.00  0.00    +0.000 C 
ATOM     24  O   UNL     1      -2.694  10.301  16.674  0.00  0.00    +0.000 OA
ENDROOT
BRANCH   4  25
ATOM     25  O   UNL     1      -4.973  11.134  15.792  0.00  0.00    +0.000 OA
ATOM     26  H   UNL     1      -4.038  11.067  15.553  0.00  0.00    +0.000 HD
ENDBRANCH   4  25
BRANCH  10  27
ATOM     27  O   UNL     1      -6.760  14.378  21.050  0.00  0.00    +0.000 OA
ATOM     28  H   UNL     1      -6.764  14.594  21.997  0.00  0.00    +0.000 HD
ENDBRANCH  10  27
BRANCH  18  29
ATOM     29  O   UNL     1       1.391  11.370  21.423  0.00  0.00    +0.000 OA
ATOM     30  H   UNL     1       1.440  12.343  21.544  0.00  0.00    +0.000 HD
ENDBRANCH  18  29
BRANCH  20  31
ATOM     31  O   UNL     1      -0.319   9.626  17.322  0.00  0.00    +0.000 OA
ATOM     32  H   UNL     1      -0.172  10.220  16.576  0.00  0.00    +0.000 HD
ENDBRANCH  20  31
BRANCH  19  33
ATOM     33  C   UNL     1       1.908   9.663  19.265  0.00  0.00    +0.000 C 
BRANCH  33  34
ATOM     34  N   UNL     1       1.897   8.283  18.765  0.00  0.00    +0.000 NA
ATOM     35  C   UNL     1       1.982   7.198  19.729  0.00  0.00    +0.000 C 
ATOM     36  C   UNL     1       3.251   6.439  19.400  0.00  0.00    +0.000 C 
ATOM     37  C   UNL     1       3.470   6.682  17.922  0.00  0.00    +0.000 C 
ATOM     38  C   UNL     1       2.759   7.993  17.623  0.00  0.00    +0.000 C 
ENDBRANCH  33  34
ENDBRANCH  19  33
TORSDOF 6
ENDMDL
MODEL 2
REMARK VINA RESULT:      -7.3      2.903      6.879
REMARK  Name = 
REMARK  9 active torsions:
REMARK  status: ('A' for Active; 'I' for Inactive)
REMARK    1  A    between atoms: C_1  and  C_2
REMARK    2  A    between atoms: C_4  and  O_5
REMARK    3  A    between atoms: C_11  and  O_12
REMARK    4  A    between atoms: C_14  and  C_15
REMARK    5  A    between atoms: C_14  and  C_16
REMARK    6  A    between atoms: C_20  and  O_21
REMARK    7  A    between atoms: C_22  and  C_23
REMARK    8  A    between atoms: C_23  and  N_24
REMARK    9  A    between atoms: C_29  and  O_30
REMARK                            x       y       z     vdW  Elec       q    Type
REMARK                         _______ _______ _______ _____ _____    ______ ____
ROOT
ATOM      1  C   UNL     1      -2.842  10.132  15.828  0.00  0.00    +0.000 C 
ATOM      2  C   UNL     1      -2.539  10.691  17.199  0.00  0.00    +0.000 A 
ATOM      3  C   UNL     1      -1.228  10.539  17.657  0.00  0.00    +0.000 A 
ATOM      4  C   UNL     1      -0.854  11.036  18.894  0.00  0.00    +0.000 A 
ATOM      5  C   UNL     1      -1.785  11.690  19.722  0.00  0.00    +0.000 A 
ATOM      6  C   UNL     1      -3.122  11.885  19.282  0.00  0.00    +0.000 A 
ATOM      7  C   UNL     1      -4.055  12.609  20.076  0.00  0.00    +0.000 A 
ATOM      8  C   UNL     1      -5.352  12.917  19.571  0.00  0.00    +0.000 A 
ATOM      9  C   UNL     1      -5.718  12.390  18.331  0.00  0.00    +0.000 A 
ATOM     10  C   UNL     1      -4.835  11.620  17.581  0.00  0.00    +0.000 A 
ATOM     11  C   UNL     1      -3.503  11.378  17.999  0.00  0.00    +0.000 A 
ATOM     12  C   UNL     1      -6.262  13.906  20.305  0.00  0.00    +0.000 C 
ATOM     13  C   UNL     1      -5.909  15.353  19.890  0.00  0.00    +0.000 C 
ATOM     14  C   UNL     1      -7.782  13.682  20.112  0.00  0.00    +0.000 C 
ATOM     15  C   UNL     1      -5.979  13.897  21.795  0.00  0.00    +0.000 C 
ATOM     16  O   UNL     1      -6.831  14.109  22.658  0.00  0.00    +0.000 OA
ATOM     17  C   UNL     1      -4.564  13.826  22.204  0.00  0.00    +0.000 A 
ATOM     18  C   UNL     1      -4.172  14.516  23.357  0.00  0.00    +0.000 A 
ATOM     19  C   UNL     1      -2.894  14.337  23.899  0.00  0.00    +0.000 A 
ATOM     20  C   UNL     1      -1.988  13.567  23.143  0.00  0.00    +0.000 A 
ATOM     21  C   UNL     1      -2.351  12.986  21.895  0.00  0.00    +0.000 A 
ATOM     22  C   UNL     1      -3.656  13.127  21.401  0.00  0.00    +0.000 A 
ATOM     23  C   UNL     1      -1.368  12.224  21.059  0.00  0.00    +0.000 C 
ATOM     24  O   UNL     1      -0.230  12.036  21.472  0.00  0.00    +0.000 OA
ENDROOT
BRANCH   4  25
ATOM     25  O   UNL     1       0.454  10.883  19.265  0.00  0.00    +0.000 OA
ATOM     26  H   UNL     1       1.046  11.015  18.511  0.00  0.00    +0.000 HD
ENDBRANCH   4  25
BRANCH  10  27
ATOM     27  O   UNL     1      -5.291  11.131  16.385  0.00  0.00    +0.000 OA
ATOM     28  H   UNL     1      -4.715  11.425  15.661  0.00  0.00    +0.000 HD
ENDBRANCH  10  27
BRANCH  18  29
ATOM     29  O   UNL     1      -4.989  15.463  23.920  0.00  0.00    +0.000 OA
ATOM     30  H   UNL     1      -5.504  15.054  24.648  0.00  0.00    +0.000 HD
ENDBRANCH  18  29
BRANCH  20  31
ATOM     31  O   UNL     1      -0.706  13.381  23.588  0.00  0.00    +0.000 OA
ATOM     32  H   UNL     1      -0.591  13.597  24.521  0.00  0.00    +0.000 HD
ENDBRANCH  20  31
BRANCH  19  33
ATOM     33  C   UNL     1      -2.576  14.957  25.248  0.00  0.00    +0.000 C 
BRANCH  33  34
ATOM     34  N   UNL     1      -1.340  15.741  25.346  0.00  0.00    +0.000 NA
ATOM     35  C   UNL     1      -0.792  16.006  26.666  0.00  0.00    +0.000 C 
ATOM     36  C   UNL     1      -0.791  17.513  26.829  0.00  0.00    +0.000 C 
ATOM     37  C   UNL     1      -0.696  18.050  25.417  0.00  0.00    +0.000 C 
ATOM     38  C   UNL     1      -1.266  16.951  24.532  0.00  0.00    +0.000 C 
ENDBRANCH  33  34
ENDBRANCH  19  33
TORSDOF 6
ENDMDL
MODEL 3
REMARK VINA RESULT:      -7.1      3.510      6.744
REMARK  Name = 
REMARK  9 active torsions:
REMARK  status: ('A' for Active; 'I' for Inactive)
REMARK    1  A    between atoms: C_1  and  C_2
REMARK    2  A    between atoms: C_4  and  O_5
REMARK    3  A    between atoms: C_11  and  O_12
REMARK    4  A    between atoms: C_14  and  C_15
REMARK    5  A    between atoms: C_14  and  C_16
REMARK    6  A    between atoms: C_20  and  O_21
REMARK    7  A    between atoms: C_22  and  C_23
REMARK    8  A    between atoms: C_23  and  N_24
REMARK    9  A    between atoms: C_29  and  O_30
REMARK                            x       y       z     vdW  Elec       q    Type
REMARK                         _______ _______ _______ _____ _____    ______ ____
ROOT
ATOM      1  C   UNL     1      -4.040  10.764  16.047  0.00  0.00    +0.000 C 
ATOM      2  C   UNL     1      -3.380  11.336  17.280  0.00  0.00    +0.000 A 
ATOM      3  C   UNL     1      -1.997  11.523  17.216  0.00  0.00    +0.000 A 
ATOM      4  C   UNL     1      -1.309  12.059  18.291  0.00  0.00    +0.000 A 
ATOM      5  C   UNL     1      -1.982  12.411  19.476  0.00  0.00    +0.000 A 
ATOM      6  C   UNL     1      -3.392  12.259  19.572  0.00  0.00    +0.000 A 
ATOM      7  C   UNL     1      -4.096  12.682  20.735  0.00  0.00    +0.000 A 
ATOM      8  C   UNL     1      -5.521  12.651  20.771  0.00  0.00    +0.000 A 
ATOM      9  C   UNL     1      -6.195  12.088  19.686  0.00  0.00    +0.000 A 
ATOM     10  C   UNL     1      -5.508  11.607  18.576  0.00  0.00    +0.000 A 
ATOM     11  C   UNL     1      -4.101  11.714  18.454  0.00  0.00    +0.000 A 
ATOM     12  C   UNL     1      -6.288  13.336  21.905  0.00  0.00    +0.000 C 
ATOM     13  C   UNL     1      -6.467  14.838  21.586  0.00  0.00    +0.000 C 
ATOM     14  C   UNL     1      -7.670  12.723  22.240  0.00  0.00    +0.000 C 
ATOM     15  C   UNL     1      -5.468  13.351  23.180  0.00  0.00    +0.000 C 
ATOM     16  O   UNL     1      -5.954  13.298  24.311  0.00  0.00    +0.000 OA
ATOM     17  C   UNL     1      -4.029  13.645  23.044  0.00  0.00    +0.000 A 
ATOM     18  C   UNL     1      -3.402  14.374  24.061  0.00  0.00    +0.000 A 
ATOM     19  C   UNL     1      -2.012  14.523  24.084  0.00  0.00    +0.000 A 
ATOM     20  C   UNL     1      -1.306  14.048  22.959  0.00  0.00    +0.000 A 
ATOM     21  C   UNL     1      -1.968  13.435  21.858  0.00  0.00    +0.000 A 
ATOM     22  C   UNL     1      -3.358  13.241  21.885  0.00  0.00    +0.000 A 
ATOM     23  C   UNL     1      -1.227  12.991  20.634  0.00  0.00    +0.000 C 
ATOM     24  O   UNL     1      -0.008  13.098  20.585  0.00  0.00    +0.000 OA
ENDROOT
BRANCH   4  25
ATOM     25  O   UNL     1       0.038  12.246  18.148  0.00  0.00    +0.000 OA
ATOM     26  H   UNL     1       0.521  11.878  18.901  0.00  0.00    +0.000 HD
ENDBRANCH   4  25
BRANCH  10  27
ATOM     27  O   UNL     1      -6.256  11.056  17.568  0.00  0.00    +0.000 OA
ATOM     28  H   UNL     1      -5.993  10.132  17.423  0.00  0.00    +0.000 HD
ENDBRANCH  10  27
BRANCH  18  29
ATOM     29  O   UNL     1      -4.142  15.049  24.998  0.00  0.00    +0.000 OA
ATOM     30  H   UNL     1      -4.675  15.743  24.552  0.00  0.00    +0.000 HD
ENDBRANCH  18  29
BRANCH  20  31
ATOM     31  O   UNL     1       0.054  14.194  22.888  0.00  0.00    +0.000 OA
ATOM     32  H   UNL     1       0.366  15.033  23.249  0.00  0.00    +0.000 HD
ENDBRANCH  20  31
BRANCH  19  33
ATOM     33  C   UNL     1      -1.360  15.158  25.299  0.00  0.00    +0.000 C 
BRANCH  33  34
ATOM     34  N   UNL     1      -1.578  16.595  25.496  0.00  0.00    +0.000 NA
ATOM     35  C   UNL     1      -1.428  17.481  24.354  0.00  0.00    +0.000 C 
ATOM     36  C   UNL     1      -0.304  18.436  24.704  0.00  0.00    +0.000 C 
ATOM     37  C   UNL     1      -0.319  18.505  26.216  0.00  0.00    +0.000 C 
ATOM     38  C   UNL     1      -0.951  17.198  26.669  0.00  0.00    +0.000 C 
ENDBRANCH  33  34
ENDBRANCH  19  33
TORSDOF 6
ENDMDL
MODEL 4
REMARK VINA RESULT:      -7.0      1.068      4.369
REMARK  Name = 
REMARK  9 active torsions:
REMARK  status: ('A' for Active; 'I' for Inactive)
REMARK    1  A    between atoms: C_1  and  C_2
REMARK    2  A    between atoms: C_4  and  O_5
REMARK    3  A    between atoms: C_11  and  O_12
REMARK    4  A    between atoms: C_14  and  C_15
REMARK    5  A    between atoms: C_14  and  C_16
REMARK    6  A    between atoms: C_20  and  O_21
REMARK    7  A    between atoms: C_22  and  C_23
REMARK    8  A    between atoms: C_23  and  N_24
REMARK    9  A    between atoms: C_29  and  O_30
REMARK                            x       y       z     vdW  Elec       q    Type
REMARK                         _______ _______ _______ _____ _____    ______ ____
ROOT
ATOM      1  C   UNL     1      -6.719  15.029  23.284  0.00  0.00    +0.000 C 
ATOM      2  C   UNL     1      -5.379  14.432  22.922  0.00  0.00    +0.000 A 
ATOM      3  C   UNL     1      -4.395  14.463  23.914  0.00  0.00    +0.000 A 
ATOM      4  C   UNL     1      -3.143  13.923  23.678  0.00  0.00    +0.000 A 
ATOM      5  C   UNL     1      -2.827  13.347  22.434  0.00  0.00    +0.000 A 
ATOM      6  C   UNL     1      -3.807  13.275  21.408  0.00  0.00    +0.000 A 
ATOM      7  C   UNL     1      -3.526  12.627  20.172  0.00  0.00    +0.000 A 
ATOM      8  C   UNL     1      -4.553  12.440  19.201  0.00  0.00    +0.000 A 
ATOM      9  C   UNL     1      -5.804  13.010  19.448  0.00  0.00    +0.000 A 
ATOM     10  C   UNL     1      -6.064  13.706  20.624  0.00  0.00    +0.000 A 
ATOM     11  C   UNL     1      -5.105  13.825  21.658  0.00  0.00    +0.000 A 
ATOM     12  C   UNL     1      -4.328  11.529  17.992  0.00  0.00    +0.000 C 
ATOM     13  C   UNL     1      -4.619  10.060  18.379  0.00  0.00    +0.000 C 
ATOM     14  C   UNL     1      -5.145  11.887  16.726  0.00  0.00    +0.000 C 
ATOM     15  C   UNL     1      -2.863  11.498  17.603  0.00  0.00    +0.000 C 
ATOM     16  O   UNL     1      -2.461  11.354  16.448  0.00  0.00    +0.000 OA
ATOM     17  C   UNL     1      -1.883  11.440  18.703  0.00  0.00    +0.000 A 
ATOM     18  C   UNL     1      -0.707  10.707  18.506  0.00  0.00    +0.000 A 
ATOM     19  C   UNL     1       0.339  10.767  19.432  0.00  0.00    +0.000 A 
ATOM     20  C   UNL     1       0.083  11.461  20.632  0.00  0.00    +0.000 A 
ATOM     21  C   UNL     1      -1.171  12.084  20.889  0.00  0.00    +0.000 A 
ATOM     22  C   UNL     1      -2.184  12.063  19.919  0.00  0.00    +0.000 A 
ATOM     23  C   UNL     1      -1.467  12.765  22.190  0.00  0.00    +0.000 C 
ATOM     24  O   UNL     1      -0.597  12.847  23.049  0.00  0.00    +0.000 OA
ENDROOT
BRANCH   4  25
ATOM     25  O   UNL     1      -2.239  13.956  24.704  0.00  0.00    +0.000 OA
ATOM     26  H   UNL     1      -1.563  13.273  24.593  0.00  0.00    +0.000 HD
ENDBRANCH   4  25
BRANCH  10  27
ATOM     27  O   UNL     1      -7.316  14.245  20.767  0.00  0.00    +0.000 OA
ATOM     28  H   UNL     1      -7.365  14.767  21.585  0.00  0.00    +0.000 HD
ENDBRANCH  10  27
BRANCH  18  29
ATOM     29  O   UNL     1      -0.595   9.830  17.457  0.00  0.00    +0.000 OA
ATOM     30  H   UNL     1      -1.422   9.306  17.383  0.00  0.00    +0.000 HD
ENDBRANCH  18  29
BRANCH  20  31
ATOM     31  O   UNL     1       1.044  11.529  21.606  0.00  0.00    +0.000 OA
ATOM     32  H   UNL     1       1.783  12.102  21.372  0.00  0.00    +0.000 HD
ENDBRANCH  20  31
BRANCH  19  33
ATOM     33  C   UNL     1       1.663  10.108  19.089  0.00  0.00    +0.000 C 
BRANCH  33  34
ATOM     34  N   UNL     1       1.625   8.689  18.717  0.00  0.00    +0.000 NA
ATOM     35  C   UNL     1       1.705   7.695  19.775  0.00  0.00    +0.000 C 
ATOM     36  C   UNL     1       2.959   6.888  19.504  0.00  0.00    +0.000 C 
ATOM     37  C   UNL     1       3.164   6.993  18.008  0.00  0.00    +0.000 C 
ATOM     38  C   UNL     1       2.469   8.282  17.598  0.00  0.00    +0.000 C 
ENDBRANCH  33  34
ENDBRANCH  19  33
TORSDOF 6
ENDMDL
MODEL 5
REMARK VINA RESULT:      -6.9      2.959      3.798
REMARK  Name = 
REMARK  9 active torsions:
REMARK  status: ('A' for Active; 'I' for Inactive)
REMARK    1  A    between atoms: C_1  and  C_2
REMARK    2  A    between atoms: C_4  and  O_5
REMARK    3  A    between atoms: C_11  and  O_12
REMARK    4  A    between atoms: C_14  and  C_15
REMARK    5  A    between atoms: C_14  and  C_16
REMARK    6  A    between atoms: C_20  and  O_21
REMARK    7  A    between atoms: C_22  and  C_23
REMARK    8  A    between atoms: C_23  and  N_24
REMARK    9  A    between atoms: C_29  and  O_30
REMARK                            x       y       z     vdW  Elec       q    Type
REMARK                         _______ _______ _______ _____ _____    ______ ____
ROOT
ATOM      1  C   UNL     1      -7.545  11.531  19.337  0.00  0.00    +0.000 C 
ATOM      2  C   UNL     1      -6.043  11.663  19.243  0.00  0.00    +0.000 A 
ATOM      3  C   UNL     1      -5.448  11.179  18.075  0.00  0.00    +0.000 A 
ATOM      4  C   UNL     1      -4.079  11.275  17.893  0.00  0.00    +0.000 A 
ATOM      5  C   UNL     1      -3.256  11.844  18.883  0.00  0.00    +0.000 A 
ATOM      6  C   UNL     1      -3.826  12.368  20.074  0.00  0.00    +0.000 A 
ATOM      7  C   UNL     1      -3.016  13.014  21.050  0.00  0.00    +0.000 A 
ATOM      8  C   UNL     1      -3.610  13.656  22.176  0.00  0.00    +0.000 A 
ATOM      9  C   UNL     1      -4.989  13.530  22.353  0.00  0.00    +0.000 A 
ATOM     10  C   UNL     1      -5.778  12.839  21.440  0.00  0.00    +0.000 A 
ATOM     11  C   UNL     1      -5.243  12.277  20.255  0.00  0.00    +0.000 A 
ATOM     12  C   UNL     1      -2.778  14.564  23.085  0.00  0.00    +0.000 C 
ATOM     13  C   UNL     1      -2.710  15.988  22.486  0.00  0.00    +0.000 C 
ATOM     14  C   UNL     1      -3.260  14.658  24.554  0.00  0.00    +0.000 C 
ATOM     15  C   UNL     1      -1.326  14.129  23.103  0.00  0.00    +0.000 C 
ATOM     16  O   UNL     1      -0.582  14.255  24.076  0.00  0.00    +0.000 OA
ATOM     17  C   UNL     1      -0.738  13.717  21.814  0.00  0.00    +0.000 A 
ATOM     18  C   UNL     1       0.608  14.014  21.575  0.00  0.00    +0.000 A 
ATOM     19  C   UNL     1       1.271  13.490  20.460  0.00  0.00    +0.000 A 
ATOM     20  C   UNL     1       0.479  12.796  19.522  0.00  0.00    +0.000 A 
ATOM     21  C   UNL     1      -0.922  12.621  19.702  0.00  0.00    +0.000 A 
ATOM     22  C   UNL     1      -1.554  13.103  20.858  0.00  0.00    +0.000 A 
ATOM     23  C   UNL     1      -1.775  11.942  18.674  0.00  0.00    +0.000 C 
ATOM     24  O   UNL     1      -1.260  11.465  17.670  0.00  0.00    +0.000 OA
ENDROOT
BRANCH   4  25
ATOM     25  O   UNL     1      -3.567  10.813  16.711  0.00  0.00    +0.000 OA
ATOM     26  H   UNL     1      -4.140  10.135  16.327  0.00  0.00    +0.000 HD
ENDBRANCH   4  25
BRANCH  10  27
ATOM     27  O   UNL     1      -7.119  12.755  21.709  0.00  0.00    +0.000 OA
ATOM     28  H   UNL     1      -7.616  13.351  21.126  0.00  0.00    +0.000 HD
ENDBRANCH  10  27
BRANCH  18  29
ATOM     29  O   UNL     1       1.280  14.911  22.366  0.00  0.00    +0.000 OA
ATOM     30  H   UNL     1       2.235  14.683  22.375  0.00  0.00    +0.000 HD
ENDBRANCH  18  29
BRANCH  20  31
ATOM     31  O   UNL     1       1.048  12.288  18.384  0.00  0.00    +0.000 OA
ATOM     32  H   UNL     1       1.482  12.959  17.844  0.00  0.00    +0.000 HD
ENDBRANCH  20  31
BRANCH  19  33
ATOM     33  C   UNL     1       2.772  13.683  20.339  0.00  0.00    +0.000 C 
BRANCH  33  34
ATOM     34  N   UNL     1       3.237  14.970  19.808  0.00  0.00    +0.000 NA
ATOM     35  C   UNL     1       2.562  15.523  18.647  0.00  0.00    +0.000 C 
ATOM     36  C   UNL     1       3.610  15.625  17.556  0.00  0.00    +0.000 C 
ATOM     37  C   UNL     1       4.921  15.768  18.300  0.00  0.00    +0.000 C 
ATOM     38  C   UNL     1       4.681  15.133  19.661  0.00  0.00    +0.000 C 
ENDBRANCH  33  34
ENDBRANCH  19  33
TORSDOF 6
ENDMDL
MODEL 6
REMARK VINA RESULT:      -6.8      1.294      1.749
REMARK  Name = 
REMARK  9 active torsions:
REMARK  status: ('A' for Active; 'I' for Inactive)
REMARK    1  A    between atoms: C_1  and  C_2
REMARK    2  A    between atoms: C_4  and  O_5
REMARK    3  A    between atoms: C_11  and  O_12
REMARK    4  A    between atoms: C_14  and  C_15
REMARK    5  A    between atoms: C_14  and  C_16
REMARK    6  A    between atoms: C_20  and  O_21
REMARK    7  A    between atoms: C_22  and  C_23
REMARK    8  A    between atoms: C_23  and  N_24
REMARK    9  A    between atoms: C_29  and  O_30
REMARK                            x       y       z     vdW  Elec       q    Type
REMARK                         _______ _______ _______ _____ _____    ______ ____
ROOT
ATOM      1  C   UNL     1      -7.827  14.928  20.852  0.00  0.00    +0.000 C 
ATOM      2  C   UNL     1      -6.788  14.007  20.256  0.00  0.00    +0.000 A 
ATOM      3  C   UNL     1      -7.219  13.169  19.224  0.00  0.00    +0.000 A 
ATOM      4  C   UNL     1      -6.332  12.304  18.605  0.00  0.00    +0.000 A 
ATOM      5  C   UNL     1      -4.985  12.238  19.010  0.00  0.00    +0.000 A 
ATOM      6  C   UNL     1      -4.504  13.091  20.040  0.00  0.00    +0.000 A 
ATOM      7  C   UNL     1      -3.129  13.089  20.408  0.00  0.00    +0.000 A 
ATOM      8  C   UNL     1      -2.628  14.040  21.345  0.00  0.00    +0.000 A 
ATOM      9  C   UNL     1      -3.541  14.889  21.973  0.00  0.00    +0.000 A 
ATOM     10  C   UNL     1      -4.898  14.847  21.670  0.00  0.00    +0.000 A 
ATOM     11  C   UNL     1      -5.421  13.991  20.670  0.00  0.00    +0.000 A 
ATOM     12  C   UNL     1      -1.121  14.212  21.552  0.00  0.00    +0.000 C 
ATOM     13  C   UNL     1      -0.549  15.172  20.483  0.00  0.00    +0.000 C 
ATOM     14  C   UNL     1      -0.694  14.708  22.955  0.00  0.00    +0.000 C 
ATOM     15  C   UNL     1      -0.386  12.915  21.277  0.00  0.00    +0.000 C 
ATOM     16  O   UNL     1       0.648  12.574  21.854  0.00  0.00    +0.000 OA
ATOM     17  C   UNL     1      -0.837  12.126  20.115  0.00  0.00    +0.000 A 
ATOM     18  C   UNL     1       0.122  11.421  19.380  0.00  0.00    +0.000 A 
ATOM     19  C   UNL     1      -0.261  10.511  18.388  0.00  0.00    +0.000 A 
ATOM     20  C   UNL     1      -1.632  10.467  18.066  0.00  0.00    +0.000 A 
ATOM     21  C   UNL     1      -2.587  11.296  18.721  0.00  0.00    +0.000 A 
ATOM     22  C   UNL     1      -2.188  12.156  19.754  0.00  0.00    +0.000 A 
ATOM     23  C   UNL     1      -4.034  11.298  18.332  0.00  0.00    +0.000 C 
ATOM     24  O   UNL     1      -4.437  10.530  17.467  0.00  0.00    +0.000 OA
ENDROOT
BRANCH   4  25
ATOM     25  O   UNL     1      -6.811  11.537  17.579  0.00  0.00    +0.000 OA
ATOM     26  H   UNL     1      -7.716  11.793  17.350  0.00  0.00    +0.000 HD
ENDBRANCH   4  25
BRANCH  10  27
ATOM     27  O   UNL     1      -5.718  15.707  22.352  0.00  0.00    +0.000 OA
ATOM     28  H   UNL     1      -5.486  15.714  23.295  0.00  0.00    +0.000 HD
ENDBRANCH  10  27
BRANCH  18  29
ATOM     29  O   UNL     1       1.459  11.684  19.537  0.00  0.00    +0.000 OA
ATOM     30  H   UNL     1       1.907  11.616  18.666  0.00  0.00    +0.000 HD
ENDBRANCH  18  29
BRANCH  20  31
ATOM     31  O   UNL     1      -2.080   9.632  17.077  0.00  0.00    +0.000 OA
ATOM     32  H   UNL     1      -3.037   9.512  17.084  0.00  0.00    +0.000 HD
ENDBRANCH  20  31
BRANCH  19  33
ATOM     33  C   UNL     1       0.799   9.634  17.747  0.00  0.00    +0.000 C 
BRANCH  33  34
ATOM     34  N   UNL     1       1.805   9.045  18.638  0.00  0.00    +0.000 NA
ATOM     35  C   UNL     1       2.816   8.175  18.059  0.00  0.00    +0.000 C 
ATOM     36  C   UNL     1       2.633   6.821  18.714  0.00  0.00    +0.000 C 
ATOM     37  C   UNL     1       2.017   7.128  20.062  0.00  0.00    +0.000 C 
ATOM     38  C   UNL     1       1.316   8.466  19.886  0.00  0.00    +0.000 C 
ENDBRANCH  33  34
ENDBRANCH  19  33
TORSDOF 6
ENDMDL
MODEL 7
REMARK VINA RESULT:      -6.8      3.199      6.969
REMARK  Name = 
REMARK  9 active torsions:
REMARK  status: ('A' for Active; 'I' for Inactive)
REMARK    1  A    between atoms: C_1  and  C_2
REMARK    2  A    between atoms: C_4  and  O_5
REMARK    3  A    between atoms: C_11  and  O_12
REMARK    4  A    between atoms: C_14  and  C_15
REMARK    5  A    between atoms: C_14  and  C_16
REMARK    6  A    between atoms: C_20  and  O_21
REMARK    7  A    between atoms: C_22  and  C_23
REMARK    8  A    between atoms: C_23  and  N_24
REMARK    9  A    between atoms: C_29  and  O_30
REMARK                            x       y       z     vdW  Elec       q    Type
REMARK                         _______ _______ _______ _____ _____    ______ ____
ROOT
ATOM      1  C   UNL     1      -4.137  10.330  15.983  0.00  0.00    +0.000 C 
ATOM      2  C   UNL     1      -4.310  11.144  17.244  0.00  0.00    +0.000 A 
ATOM      3  C   UNL     1      -5.617  11.513  17.571  0.00  0.00    +0.000 A 
ATOM      4  C   UNL     1      -5.874  12.244  18.719  0.00  0.00    +0.000 A 
ATOM      5  C   UNL     1      -4.827  12.645  19.570  0.00  0.00    +0.000 A 
ATOM      6  C   UNL     1      -3.487  12.270  19.283  0.00  0.00    +0.000 A 
ATOM      7  C   UNL     1      -2.427  12.602  20.174  0.00  0.00    +0.000 A 
ATOM      8  C   UNL     1      -1.109  12.108  19.950  0.00  0.00    +0.000 A 
ATOM      9  C   UNL     1      -0.866  11.390  18.777  0.00  0.00    +0.000 A 
ATOM     10  C   UNL     1      -1.883  11.122  17.867  0.00  0.00    +0.000 A 
ATOM     11  C   UNL     1      -3.226  11.505  18.102  0.00  0.00    +0.000 A 
ATOM     12  C   UNL     1      -0.030  12.245  21.027  0.00  0.00    +0.000 C 
ATOM     13  C   UNL     1      -0.145  11.080  22.038  0.00  0.00    +0.000 C 
ATOM     14  C   UNL     1       1.426  12.317  20.506  0.00  0.00    +0.000 C 
ATOM     15  C   UNL     1      -0.275  13.471  21.885  0.00  0.00    +0.000 C 
ATOM     16  O   UNL     1       0.620  14.136  22.405  0.00  0.00    +0.000 OA
ATOM     17  C   UNL     1      -1.673  13.747  22.268  0.00  0.00    +0.000 A 
ATOM     18  C   UNL     1      -1.917  14.301  23.530  0.00  0.00    +0.000 A 
ATOM     19  C   UNL     1      -3.193  14.758  23.877  0.00  0.00    +0.000 A 
ATOM     20  C   UNL     1      -4.233  14.483  22.967  0.00  0.00    +0.000 A 
ATOM     21  C   UNL     1      -4.002  13.788  21.746  0.00  0.00    +0.000 A 
ATOM     22  C   UNL     1      -2.703  13.393  21.390  0.00  0.00    +0.000 A 
ATOM     23  C   UNL     1      -5.117  13.437  20.809  0.00  0.00    +0.000 C 
ATOM     24  O   UNL     1      -6.261  13.800  21.056  0.00  0.00    +0.000 OA
ENDROOT
BRANCH   4  25
ATOM     25  O   UNL     1      -7.179  12.542  18.997  0.00  0.00    +0.000 OA
ATOM     26  H   UNL     1      -7.777  12.076  18.395  0.00  0.00    +0.000 HD
ENDBRANCH   4  25
BRANCH  10  27
ATOM     27  O   UNL     1      -1.543  10.426  16.736  0.00  0.00    +0.000 OA
ATOM     28  H   UNL     1      -1.349   9.500  16.957  0.00  0.00    +0.000 HD
ENDBRANCH  10  27
BRANCH  18  29
ATOM     29  O   UNL     1      -0.940  14.312  24.492  0.00  0.00    +0.000 OA
ATOM     30  H   UNL     1      -0.098  13.991  24.103  0.00  0.00    +0.000 HD
ENDBRANCH  18  29
BRANCH  20  31
ATOM     31  O   UNL     1      -5.517  14.862  23.255  0.00  0.00    +0.000 OA
ATOM     32  H   UNL     1      -5.828  15.597  22.713  0.00  0.00    +0.000 HD
ENDBRANCH  20  31
BRANCH  19  33
ATOM     33  C   UNL     1      -3.371  15.519  25.179  0.00  0.00    +0.000 C 
BRANCH  33  34
ATOM     34  N   UNL     1      -3.550  16.972  25.081  0.00  0.00    +0.000 NA
ATOM     35  C   UNL     1      -4.896  17.511  25.177  0.00  0.00    +0.000 C 
ATOM     36  C   UNL     1      -5.166  18.214  23.862  0.00  0.00    +0.000 C 
ATOM     37  C   UNL     1      -3.797  18.624  23.361  0.00  0.00    +0.000 C 
ATOM     38  C   UNL     1      -2.825  17.650  24.010  0.00  0.00    +0.000 C 
ENDBRANCH  33  34
ENDBRANCH  19  33
TORSDOF 6
ENDMDL
MODEL 8
REMARK VINA RESULT:      -6.7      3.172      6.975
REMARK  Name = 
REMARK  9 active torsions:
REMARK  status: ('A' for Active; 'I' for Inactive)
REMARK    1  A    between atoms: C_1  and  C_2
REMARK    2  A    between atoms: C_4  and  O_5
REMARK    3  A    between atoms: C_11  and  O_12
REMARK    4  A    between atoms: C_14  and  C_15
REMARK    5  A    between atoms: C_14  and  C_16
REMARK    6  A    between atoms: C_20  and  O_21
REMARK    7  A    between atoms: C_22  and  C_23
REMARK    8  A    between atoms: C_23  and  N_24
REMARK    9  A    between atoms: C_29  and  O_30
REMARK                            x       y       z     vdW  Elec       q    Type
REMARK                         _______ _______ _______ _____ _____    ______ ____
ROOT
ATOM      1  C   UNL     1      -2.766   9.654  15.729  0.00  0.00    +0.000 C 
ATOM      2  C   UNL     1      -3.372  10.558  16.776  0.00  0.00    +0.000 A 
ATOM      3  C   UNL     1      -4.722  10.880  16.614  0.00  0.00    +0.000 A 
ATOM      4  C   UNL     1      -5.367  11.688  17.535  0.00  0.00    +0.000 A 
ATOM      5  C   UNL     1      -4.676  12.215  18.642  0.00  0.00    +0.000 A 
ATOM      6  C   UNL     1      -3.309  11.891  18.855  0.00  0.00    +0.000 A 
ATOM      7  C   UNL     1      -2.619  12.354  20.010  0.00  0.00    +0.000 A 
ATOM      8  C   UNL     1      -1.291  11.916  20.286  0.00  0.00    +0.000 A 
ATOM      9  C   UNL     1      -0.650  11.119  19.336  0.00  0.00    +0.000 A 
ATOM     10  C   UNL     1      -1.296  10.721  18.169  0.00  0.00    +0.000 A 
ATOM     11  C   UNL     1      -2.648  11.047  17.907  0.00  0.00    +0.000 A 
ATOM     12  C   UNL     1      -0.640  12.201  21.642  0.00  0.00    +0.000 C 
ATOM     13  C   UNL     1      -1.060  11.119  22.664  0.00  0.00    +0.000 C 
ATOM     14  C   UNL     1       0.904  12.310  21.630  0.00  0.00    +0.000 C 
ATOM     15  C   UNL     1      -1.189  13.478  22.248  0.00  0.00    +0.000 C 
ATOM     16  O   UNL     1      -0.537  14.233  22.970  0.00  0.00    +0.000 OA
ATOM     17  C   UNL     1      -2.640  13.708  22.116  0.00  0.00    +0.000 A 
ATOM     18  C   UNL     1      -3.307  14.350  23.166  0.00  0.00    +0.000 A 
ATOM     19  C   UNL     1      -4.637  14.762  23.024  0.00  0.00    +0.000 A 
ATOM     20  C   UNL     1      -5.303  14.357  21.850  0.00  0.00    +0.000 A 
ATOM     21  C   UNL     1      -4.659  13.577  20.849  0.00  0.00    +0.000 A 
ATOM     22  C   UNL     1      -3.307  13.227  20.984  0.00  0.00    +0.000 A 
ATOM     23  C   UNL     1      -5.386  13.089  19.633  0.00  0.00    +0.000 C 
ATOM     24  O   UNL     1      -6.554  13.408  19.450  0.00  0.00    +0.000 OA
ENDROOT
BRANCH   4  25
ATOM     25  O   UNL     1      -6.697  11.935  17.333  0.00  0.00    +0.000 OA
ATOM     26  H   UNL     1      -6.919  12.848  17.567  0.00  0.00    +0.000 HD
ENDBRANCH   4  25
BRANCH  10  27
ATOM     27  O   UNL     1      -0.579   9.954  17.288  0.00  0.00    +0.000 OA
ATOM     28  H   UNL     1      -0.686   9.012  17.499  0.00  0.00    +0.000 HD
ENDBRANCH  10  27
BRANCH  18  29
ATOM     29  O   UNL     1      -2.711  14.493  24.392  0.00  0.00    +0.000 OA
ATOM     30  H   UNL     1      -3.368  14.840  25.034  0.00  0.00    +0.000 HD
ENDBRANCH  18  29
BRANCH  20  31
ATOM     31  O   UNL     1      -6.619  14.687  21.657  0.00  0.00    +0.000 OA
ATOM     32  H   UNL     1      -7.221  13.945  21.791  0.00  0.00    +0.000 HD
ENDBRANCH  20  31
BRANCH  19  33
ATOM     33  C   UNL     1      -5.260  15.617  24.112  0.00  0.00    +0.000 C 
BRANCH  33  34
ATOM     34  N   UNL     1      -4.894  17.038  24.136  0.00  0.00    +0.000 NA
ATOM     35  C   UNL     1      -4.419  17.649  22.906  0.00  0.00    +0.000 C 
ATOM     36  C   UNL     1      -3.007  18.124  23.186  0.00  0.00    +0.000 C 
ATOM     37  C   UNL     1      -2.979  18.374  24.679  0.00  0.00    +0.000 C 
ATOM     38  C   UNL     1      -4.069  17.483  25.255  0.00  0.00    +0.000 C 
ENDBRANCH  33  34
ENDBRANCH  19  33
TORSDOF 6
ENDMDL
MODEL 9
REMARK VINA RESULT:      -6.7      3.159      6.699
REMARK  Name = 
REMARK  9 active torsions:
REMARK  status: ('A' for Active; 'I' for Inactive)
REMARK    1  A    between atoms: C_1  and  C_2
REMARK    2  A    between atoms: C_4  and  O_5
REMARK    3  A    between atoms: C_11  and  O_12
REMARK    4  A    between atoms: C_14  and  C_15
REMARK    5  A    between atoms: C_14  and  C_16
REMARK    6  A    between atoms: C_20  and  O_21
REMARK    7  A    between atoms: C_22  and  C_23
REMARK    8  A    between atoms: C_23  and  N_24
REMARK    9  A    between atoms: C_29  and  O_30
REMARK                            x       y       z     vdW  Elec       q    Type
REMARK                         _______ _______ _______ _____ _____    ______ ____
ROOT
ATOM      1  C   UNL     1      -4.167  10.341  15.986  0.00  0.00    +0.000 C 
ATOM      2  C   UNL     1      -4.316  11.142  17.258  0.00  0.00    +0.000 A 
ATOM      3  C   UNL     1      -5.619  11.496  17.621  0.00  0.00    +0.000 A 
ATOM      4  C   UNL     1      -5.854  12.214  18.781  0.00  0.00    +0.000 A 
ATOM      5  C   UNL     1      -4.790  12.617  19.610  0.00  0.00    +0.000 A 
ATOM      6  C   UNL     1      -3.454  12.256  19.288  0.00  0.00    +0.000 A 
ATOM      7  C   UNL     1      -2.376  12.590  20.156  0.00  0.00    +0.000 A 
ATOM      8  C   UNL     1      -1.059  12.109  19.895  0.00  0.00    +0.000 A 
ATOM      9  C   UNL     1      -0.838  11.404  18.711  0.00  0.00    +0.000 A 
ATOM     10  C   UNL     1      -1.875  11.135  17.822  0.00  0.00    +0.000 A 
ATOM     11  C   UNL     1      -3.215  11.504  18.093  0.00  0.00    +0.000 A 
ATOM     12  C   UNL     1       0.044  12.246  20.948  0.00  0.00    +0.000 C 
ATOM     13  C   UNL     1      -0.037  11.072  21.950  0.00  0.00    +0.000 C 
ATOM     14  C   UNL     1       1.487  12.337  20.392  0.00  0.00    +0.000 C 
ATOM     15  C   UNL     1      -0.191  13.462  21.822  0.00  0.00    +0.000 C 
ATOM     16  O   UNL     1       0.711  14.131  22.327  0.00  0.00    +0.000 OA
ATOM     17  C   UNL     1      -1.581  13.722  22.242  0.00  0.00    +0.000 A 
ATOM     18  C   UNL     1      -1.799  14.263  23.514  0.00  0.00    +0.000 A 
ATOM     19  C   UNL     1      -3.070  14.705  23.897  0.00  0.00    +0.000 A 
ATOM     20  C   UNL     1      -4.130  14.429  23.009  0.00  0.00    +0.000 A 
ATOM     21  C   UNL     1      -3.922  13.747  21.776  0.00  0.00    +0.000 A 
ATOM     22  C   UNL     1      -2.629  13.367  21.386  0.00  0.00    +0.000 A 
ATOM     23  C   UNL     1      -5.057  13.394  20.864  0.00  0.00    +0.000 C 
ATOM     24  O   UNL     1      -6.197  13.746  21.141  0.00  0.00    +0.000 OA
ENDROOT
BRANCH   4  25
ATOM     25  O   UNL     1      -7.154  12.498  19.094  0.00  0.00    +0.000 OA
ATOM     26  H   UNL     1      -7.741  11.778  18.820  0.00  0.00    +0.000 HD
ENDBRANCH   4  25
BRANCH  10  27
ATOM     27  O   UNL     1      -1.556  10.453  16.677  0.00  0.00    +0.000 OA
ATOM     28  H   UNL     1      -2.363  10.132  16.243  0.00  0.00    +0.000 HD
ENDBRANCH  10  27
BRANCH  18  29
ATOM     29  O   UNL     1      -0.800  14.273  24.453  0.00  0.00    +0.000 OA
ATOM     30  H   UNL     1      -0.721  13.380  24.852  0.00  0.00    +0.000 HD
ENDBRANCH  18  29
BRANCH  20  31
ATOM     31  O   UNL     1      -5.410  14.794  23.331  0.00  0.00    +0.000 OA
ATOM     32  H   UNL     1      -5.755  14.329  24.103  0.00  0.00    +0.000 HD
ENDBRANCH  20  31
BRANCH  19  33
ATOM     33  C   UNL     1      -3.224  15.453  25.209  0.00  0.00    +0.000 C 
BRANCH  33  34
ATOM     34  N   UNL     1      -2.746  16.839  25.245  0.00  0.00    +0.000 NA
ATOM     35  C   UNL     1      -2.682  17.581  23.997  0.00  0.00    +0.000 C 
ATOM     36  C   UNL     1      -1.226  17.948  23.796  0.00  0.00    +0.000 C 
ATOM     37  C   UNL     1      -0.649  18.001  25.195  0.00  0.00    +0.000 C 
ATOM     38  C   UNL     1      -1.542  17.096  26.030  0.00  0.00    +0.000 C 
ENDBRANCH  33  34
ENDBRANCH  19  33
TORSDOF 6
ENDMDL
