MODEL 1
REMARK VINA RESULT:      -6.5      0.000      0.000
REMARK  Name = 
REMARK  12 active torsions:
REMARK  status: ('A' for Active; 'I' for Inactive)
REMARK    1  A    between atoms: C_1  and  C_2
REMARK    2  A    between atoms: N_4  and  C_5
REMARK    3  A    between atoms: C_5  and  C_6
REMARK    4  A    between atoms: C_6  and  O_7
REMARK    5  A    between atoms: O_7  and  C_8
REMARK    6  A    between atoms: C_8  and  C_9
REMARK    7  A    between atoms: C_9  and  O_10
REMARK    8  A    between atoms: O_10  and  C_11
REMARK    9  A    between atoms: C_11  and  C_12
REMARK   10  A    between atoms: C_12  and  N_13
REMARK   11  A    between atoms: C_18  and  O_19
REMARK   12  A    between atoms: C_20  and  C_21
REMARK                            x       y       z     vdW  Elec       q    Type
REMARK                         _______ _______ _______ _____ _____    ______ ____
ROOT
ATOM      1  C   UNL     1       5.659   4.856  19.084  0.00  0.00    +0.000 C 
ENDROOT
BRANCH   1   2
ATOM      2  O   UNL     1       6.733   5.552  19.739  0.00  0.00    +0.000 OA
BRANCH   2   3
ATOM      3  C   UNL     1       7.824   5.707  18.821  0.00  0.00    +0.000 C 
BRANCH   3   4
ATOM      4  C   UNL     1       7.344   5.973  17.398  0.00  0.00    +0.000 C 
BRANCH   4   5
ATOM      5  O   UNL     1       7.764   4.886  16.564  0.00  0.00    +0.000 OA
BRANCH   5   6
ATOM      6  C   UNL     1       6.661   4.293  15.879  0.00  0.00    +0.000 C 
BRANCH   6   7
ATOM      7  C   UNL     1       6.786   4.551  14.376  0.00  0.00    +0.000 C 
BRANCH   7  11
ATOM      8  C   UNL     1       5.781   2.168  11.613  0.00  0.00    +0.000 C 
ATOM      9  C   UNL     1       6.477   3.342  12.247  0.00  0.00    +0.000 C 
ATOM     10  O   UNL     1       7.243   4.069  11.626  0.00  0.00    +0.000 OA
ATOM     11  N   UNL     1       6.176   3.501  13.580  0.00  0.00    +0.000 N 
ATOM     12  H   UNL     1       5.587   2.820  14.041  0.00  0.00    +0.000 HD
ENDBRANCH   7  11
ENDBRANCH   6   7
ENDBRANCH   5   6
ENDBRANCH   4   5
ENDBRANCH   3   4
ENDBRANCH   2   3
ENDBRANCH   1   2
BRANCH   1  13
ATOM     13  C   UNL     1       4.290   5.493  19.355  0.00  0.00    +0.000 C 
BRANCH  13  14
ATOM     14  N   UNL     1       3.201   4.503  19.154  0.00  0.00    +0.000 N 
ATOM     15  C   UNL     1       3.017   3.965  17.877  0.00  0.00    +0.000 A 
ATOM     16  C   UNL     1       2.077   3.087  17.533  0.00  0.00    +0.000 A 
ATOM     17  C   UNL     1       1.137   2.660  18.576  0.00  0.00    +0.000 A 
ATOM     18  O   UNL     1       0.212   1.876  18.351  0.00  0.00    +0.000 OA
ATOM     19  C   UNL     1       1.334   3.183  19.961  0.00  0.00    +0.000 A 
ATOM     20  C   UNL     1       2.352   4.043  20.201  0.00  0.00    +0.000 A 
ATOM     21  C   UNL     1       2.591   4.493  21.624  0.00  0.00    +0.000 C 
BRANCH  19  22
ATOM     22  O   UNL     1       0.449   2.748  20.931  0.00  0.00    +0.000 OA
ATOM     23  H   UNL     1       0.115   3.572  21.348  0.00  0.00    +0.000 HD
ENDBRANCH  19  22
ENDBRANCH  13  14
ENDBRANCH   1  13
TORSDOF 10
ENDMDL
MODEL 2
REMARK VINA RESULT:      -6.3      1.019      1.084
REMARK  Name = 
REMARK  12 active torsions:
REMARK  status: ('A' for Active; 'I' for Inactive)
REMARK    1  A    between atoms: C_1  and  C_2
REMARK    2  A    between atoms: N_4  and  C_5
REMARK    3  A    between atoms: C_5  and  C_6
REMARK    4  A    between atoms: C_6  and  O_7
REMARK    5  A    between atoms: O_7  and  C_8
REMARK    6  A    between atoms: C_8  and  C_9
REMARK    7  A    between atoms: C_9  and  O_10
REMARK    8  A    between atoms: O_10  and  C_11
REMARK    9  A    between atoms: C_11  and  C_12
REMARK   10  A    between atoms: C_12  and  N_13
REMARK   11  A    between atoms: C_18  and  O_19
REMARK   12  A    between atoms: C_20  and  C_21
REMARK                            x       y       z     vdW  Elec       q    Type
REMARK                         _______ _______ _______ _____ _____    ______ ____
ROOT
ATOM      1  C   UNL     1       5.605   5.131  19.141  0.00  0.00    +0.000 C 
ENDROOT
BRANCH   1   2
ATOM      2  O   UNL     1       6.557   6.054  18.585  0.00  0.00    +0.000 OA
BRANCH   2   3
ATOM      3  C   UNL     1       6.655   5.835  17.171  0.00  0.00    +0.000 C 
BRANCH   3   4
ATOM      4  C   UNL     1       7.565   4.659  16.833  0.00  0.00    +0.000 C 
BRANCH   4   5
ATOM      5  O   UNL     1       7.378   4.319  15.454  0.00  0.00    +0.000 OA
BRANCH   5   6
ATOM      6  C   UNL     1       6.018   3.979  15.177  0.00  0.00    +0.000 C 
BRANCH   6   7
ATOM      7  C   UNL     1       5.740   4.138  13.681  0.00  0.00    +0.000 C 
BRANCH   7  11
ATOM      8  C   UNL     1       6.538   1.500  11.087  0.00  0.00    +0.000 C 
ATOM      9  C   UNL     1       5.714   2.534  11.805  0.00  0.00    +0.000 C 
ATOM     10  O   UNL     1       4.586   2.849  11.443  0.00  0.00    +0.000 OA
ATOM     11  N   UNL     1       6.356   3.090  12.888  0.00  0.00    +0.000 N 
ATOM     12  H   UNL     1       7.313   2.827  13.086  0.00  0.00    +0.000 HD
ENDBRANCH   7  11
ENDBRANCH   6   7
ENDBRANCH   5   6
ENDBRANCH   4   5
ENDBRANCH   3   4
ENDBRANCH   2   3
ENDBRANCH   1   2
BRANCH   1  13
ATOM     13  C   UNL     1       4.205   5.743  19.287  0.00  0.00    +0.000 C 
BRANCH  13  14
ATOM     14  N   UNL     1       3.158   4.711  19.083  0.00  0.00    +0.000 N 
ATOM     15  C   UNL     1       2.980   4.184  17.800  0.00  0.00    +0.000 A 
ATOM     16  C   UNL     1       2.074   3.273  17.454  0.00  0.00    +0.000 A 
ATOM     17  C   UNL     1       1.166   2.789  18.501  0.00  0.00    +0.000 A 
ATOM     18  O   UNL     1       0.274   1.970  18.274  0.00  0.00    +0.000 OA
ATOM     19  C   UNL     1       1.359   3.299  19.891  0.00  0.00    +0.000 A 
ATOM     20  C   UNL     1       2.343   4.198  20.133  0.00  0.00    +0.000 A 
ATOM     21  C   UNL     1       2.581   4.635  21.560  0.00  0.00    +0.000 C 
BRANCH  19  22
ATOM     22  O   UNL     1       0.507   2.811  20.865  0.00  0.00    +0.000 OA
ATOM     23  H   UNL     1       0.136   1.988  20.479  0.00  0.00    +0.000 HD
ENDBRANCH  19  22
ENDBRANCH  13  14
ENDBRANCH   1  13
TORSDOF 10
ENDMDL
MODEL 3
REMARK VINA RESULT:      -6.2      1.196      2.168
REMARK  Name = 
REMARK  12 active torsions:
REMARK  status: ('A' for Active; 'I' for Inactive)
REMARK    1  A    between atoms: C_1  and  C_2
REMARK    2  A    between atoms: N_4  and  C_5
REMARK    3  A    between atoms: C_5  and  C_6
REMARK    4  A    between atoms: C_6  and  O_7
REMARK    5  A    between atoms: O_7  and  C_8
REMARK    6  A    between atoms: C_8  and  C_9
REMARK    7  A    between atoms: C_9  and  O_10
REMARK    8  A    between atoms: O_10  and  C_11
REMARK    9  A    between atoms: C_11  and  C_12
REMARK   10  A    between atoms: C_12  and  N_13
REMARK   11  A    between atoms: C_18  and  O_19
REMARK   12  A    between atoms: C_20  and  C_21
REMARK                            x       y       z     vdW  Elec       q    Type
REMARK                         _______ _______ _______ _____ _____    ______ ____
ROOT
ATOM      1  C   UNL     1       4.314   6.581  18.236  0.00  0.00    +0.000 C 
ENDROOT
BRANCH   1   2
ATOM      2  O   UNL     1       5.385   5.917  17.545  0.00  0.00    +0.000 OA
BRANCH   2   3
ATOM      3  C   UNL     1       6.445   5.641  18.471  0.00  0.00    +0.000 C 
BRANCH   3   4
ATOM      4  C   UNL     1       7.569   4.830  17.834  0.00  0.00    +0.000 C 
BRANCH   4   5
ATOM      5  O   UNL     1       7.557   5.067  16.422  0.00  0.00    +0.000 OA
BRANCH   5   6
ATOM      6  C   UNL     1       6.878   4.024  15.720  0.00  0.00    +0.000 C 
BRANCH   6   7
ATOM      7  C   UNL     1       6.354   4.555  14.384  0.00  0.00    +0.000 C 
BRANCH   7  11
ATOM      8  C   UNL     1       5.843   2.166  11.494  0.00  0.00    +0.000 C 
ATOM      9  C   UNL     1       6.399   3.356  12.227  0.00  0.00    +0.000 C 
ATOM     10  O   UNL     1       7.223   4.114  11.728  0.00  0.00    +0.000 OA
ATOM     11  N   UNL     1       5.903   3.493  13.504  0.00  0.00    +0.000 N 
ATOM     12  H   UNL     1       5.276   2.789  13.871  0.00  0.00    +0.000 HD
ENDBRANCH   7  11
ENDBRANCH   6   7
ENDBRANCH   5   6
ENDBRANCH   4   5
ENDBRANCH   3   4
ENDBRANCH   2   3
ENDBRANCH   1   2
BRANCH   1  13
ATOM     13  C   UNL     1       2.940   5.979  17.913  0.00  0.00    +0.000 C 
BRANCH  13  14
ATOM     14  N   UNL     1       2.570   4.949  18.917  0.00  0.00    +0.000 N 
ATOM     15  C   UNL     1       2.391   5.346  20.245  0.00  0.00    +0.000 A 
ATOM     16  C   UNL     1       2.080   4.543  21.260  0.00  0.00    +0.000 A 
ATOM     17  C   UNL     1       1.930   3.112  20.969  0.00  0.00    +0.000 A 
ATOM     18  O   UNL     1       1.675   2.283  21.845  0.00  0.00    +0.000 OA
ATOM     19  C   UNL     1       2.071   2.663  19.552  0.00  0.00    +0.000 A 
ATOM     20  C   UNL     1       2.351   3.580  18.595  0.00  0.00    +0.000 A 
ATOM     21  C   UNL     1       2.402   3.121  17.155  0.00  0.00    +0.000 C 
BRANCH  19  22
ATOM     22  O   UNL     1       1.903   1.313  19.298  0.00  0.00    +0.000 OA
ATOM     23  H   UNL     1       2.432   0.864  19.993  0.00  0.00    +0.000 HD
ENDBRANCH  19  22
ENDBRANCH  13  14
ENDBRANCH   1  13
TORSDOF 10
ENDMDL
MODEL 4
REMARK VINA RESULT:      -6.2      1.747      2.574
REMARK  Name = 
REMARK  12 active torsions:
REMARK  status: ('A' for Active; 'I' for Inactive)
REMARK    1  A    between atoms: C_1  and  C_2
REMARK    2  A    between atoms: N_4  and  C_5
REMARK    3  A    between atoms: C_5  and  C_6
REMARK    4  A    between atoms: C_6  and  O_7
REMARK    5  A    between atoms: O_7  and  C_8
REMARK    6  A    between atoms: C_8  and  C_9
REMARK    7  A    between atoms: C_9  and  O_10
REMARK    8  A    between atoms: O_10  and  C_11
REMARK    9  A    between atoms: C_11  and  C_12
REMARK   10  A    between atoms: C_12  and  N_13
REMARK   11  A    between atoms: C_18  and  O_19
REMARK   12  A    between atoms: C_20  and  C_21
REMARK                            x       y       z     vdW  Elec       q    Type
REMARK                         _______ _______ _______ _____ _____    ______ ____
ROOT
ATOM      1  C   UNL     1       4.024   6.667  18.208  0.00  0.00    +0.000 C 
ENDROOT
BRANCH   1   2
ATOM      2  O   UNL     1       4.537   7.115  16.942  0.00  0.00    +0.000 OA
BRANCH   2   3
ATOM      3  C   UNL     1       5.827   6.528  16.722  0.00  0.00    +0.000 C 
BRANCH   3   4
ATOM      4  C   UNL     1       5.898   5.090  17.227  0.00  0.00    +0.000 C 
BRANCH   4   5
ATOM      5  O   UNL     1       5.441   4.219  16.187  0.00  0.00    +0.000 OA
BRANCH   5   6
ATOM      6  C   UNL     1       6.431   4.049  15.171  0.00  0.00    +0.000 C 
BRANCH   6   7
ATOM      7  C   UNL     1       5.762   4.025  13.795  0.00  0.00    +0.000 C 
BRANCH   7  11
ATOM      8  C   UNL     1       6.403   1.539  11.015  0.00  0.00    +0.000 C 
ATOM      9  C   UNL     1       5.643   2.567  11.807  0.00  0.00    +0.000 C 
ATOM     10  O   UNL     1       4.539   2.979  11.469  0.00  0.00    +0.000 OA
ATOM     11  N   UNL     1       6.314   3.001  12.928  0.00  0.00    +0.000 N 
ATOM     12  H   UNL     1       7.252   2.665  13.106  0.00  0.00    +0.000 HD
ENDBRANCH   7  11
ENDBRANCH   6   7
ENDBRANCH   5   6
ENDBRANCH   4   5
ENDBRANCH   3   4
ENDBRANCH   2   3
ENDBRANCH   1   2
BRANCH   1  13
ATOM     13  C   UNL     1       2.570   6.187  18.119  0.00  0.00    +0.000 C 
BRANCH  13  14
ATOM     14  N   UNL     1       2.323   5.080  19.077  0.00  0.00    +0.000 N 
ATOM     15  C   UNL     1       2.181   5.390  20.433  0.00  0.00    +0.000 A 
ATOM     16  C   UNL     1       1.979   4.512  21.413  0.00  0.00    +0.000 A 
ATOM     17  C   UNL     1       1.918   3.091  21.047  0.00  0.00    +0.000 A 
ATOM     18  O   UNL     1       1.766   2.200  21.884  0.00  0.00    +0.000 OA
ATOM     19  C   UNL     1       2.022   2.731  19.601  0.00  0.00    +0.000 A 
ATOM     20  C   UNL     1       2.188   3.717  18.687  0.00  0.00    +0.000 A 
ATOM     21  C   UNL     1       2.203   3.342  17.223  0.00  0.00    +0.000 C 
BRANCH  19  22
ATOM     22  O   UNL     1       1.940   1.389  19.279  0.00  0.00    +0.000 OA
ATOM     23  H   UNL     1       0.987   1.236  19.100  0.00  0.00    +0.000 HD
ENDBRANCH  19  22
ENDBRANCH  13  14
ENDBRANCH   1  13
TORSDOF 10
ENDMDL
MODEL 5
REMARK VINA RESULT:      -6.2      1.619      2.143
REMARK  Name = 
REMARK  12 active torsions:
REMARK  status: ('A' for Active; 'I' for Inactive)
REMARK    1  A    between atoms: C_1  and  C_2
REMARK    2  A    between atoms: N_4  and  C_5
REMARK    3  A    between atoms: C_5  and  C_6
REMARK    4  A    between atoms: C_6  and  O_7
REMARK    5  A    between atoms: O_7  and  C_8
REMARK    6  A    between atoms: C_8  and  C_9
REMARK    7  A    between atoms: C_9  and  O_10
REMARK    8  A    between atoms: O_10  and  C_11
REMARK    9  A    between atoms: C_11  and  C_12
REMARK   10  A    between atoms: C_12  and  N_13
REMARK   11  A    between atoms: C_18  and  O_19
REMARK   12  A    between atoms: C_20  and  C_21
REMARK                            x       y       z     vdW  Elec       q    Type
REMARK                         _______ _______ _______ _____ _____    ______ ____
ROOT
ATOM      1  C   UNL     1       5.940   4.655  18.811  0.00  0.00    +0.000 C 
ENDROOT
BRANCH   1   2
ATOM      2  O   UNL     1       5.668   6.062  18.697  0.00  0.00    +0.000 OA
BRANCH   2   3
ATOM      3  C   UNL     1       5.871   6.472  17.337  0.00  0.00    +0.000 C 
BRANCH   3   4
ATOM      4  C   UNL     1       7.289   6.183  16.855  0.00  0.00    +0.000 C 
BRANCH   4   5
ATOM      5  O   UNL     1       7.212   5.484  15.607  0.00  0.00    +0.000 OA
BRANCH   5   6
ATOM      6  C   UNL     1       5.892   5.528  15.061  0.00  0.00    +0.000 C 
BRANCH   6   7
ATOM      7  C   UNL     1       5.489   4.136  14.570  0.00  0.00    +0.000 C 
BRANCH   7  11
ATOM      8  C   UNL     1       7.119   2.775  11.437  0.00  0.00    +0.000 C 
ATOM      9  C   UNL     1       6.001   3.256  12.321  0.00  0.00    +0.000 C 
ATOM     10  O   UNL     1       4.841   3.337  11.935  0.00  0.00    +0.000 OA
ATOM     11  N   UNL     1       6.415   3.605  13.587  0.00  0.00    +0.000 N 
ATOM     12  H   UNL     1       7.401   3.576  13.812  0.00  0.00    +0.000 HD
ENDBRANCH   7  11
ENDBRANCH   6   7
ENDBRANCH   5   6
ENDBRANCH   4   5
ENDBRANCH   3   4
ENDBRANCH   2   3
ENDBRANCH   1   2
BRANCH   1  13
ATOM     13  C   UNL     1       4.805   3.788  18.251  0.00  0.00    +0.000 C 
BRANCH  13  14
ATOM     14  N   UNL     1       3.822   3.458  19.314  0.00  0.00    +0.000 N 
ATOM     15  C   UNL     1       4.197   2.551  20.310  0.00  0.00    +0.000 A 
ATOM     16  C   UNL     1       3.426   2.139  21.314  0.00  0.00    +0.000 A 
ATOM     17  C   UNL     1       2.056   2.664  21.375  0.00  0.00    +0.000 A 
ATOM     18  O   UNL     1       1.255   2.320  22.247  0.00  0.00    +0.000 OA
ATOM     19  C   UNL     1       1.641   3.669  20.352  0.00  0.00    +0.000 A 
ATOM     20  C   UNL     1       2.527   4.043  19.398  0.00  0.00    +0.000 A 
ATOM     21  C   UNL     1       2.119   5.125  18.424  0.00  0.00    +0.000 C 
BRANCH  19  22
ATOM     22  O   UNL     1       0.353   4.166  20.443  0.00  0.00    +0.000 OA
ATOM     23  H   UNL     1       0.461   5.058  20.840  0.00  0.00    +0.000 HD
ENDBRANCH  19  22
ENDBRANCH  13  14
ENDBRANCH   1  13
TORSDOF 10
ENDMDL
MODEL 6
REMARK VINA RESULT:      -6.1      1.563      1.871
REMARK  Name = 
REMARK  12 active torsions:
REMARK  status: ('A' for Active; 'I' for Inactive)
REMARK    1  A    between atoms: C_1  and  C_2
REMARK    2  A    between atoms: N_4  and  C_5
REMARK    3  A    between atoms: C_5  and  C_6
REMARK    4  A    between atoms: C_6  and  O_7
REMARK    5  A    between atoms: O_7  and  C_8
REMARK    6  A    between atoms: C_8  and  C_9
REMARK    7  A    between atoms: C_9  and  O_10
REMARK    8  A    between atoms: O_10  and  C_11
REMARK    9  A    between atoms: C_11  and  C_12
REMARK   10  A    between atoms: C_12  and  N_13
REMARK   11  A    between atoms: C_18  and  O_19
REMARK   12  A    between atoms: C_20  and  C_21
REMARK                            x       y       z     vdW  Elec       q    Type
REMARK                         _______ _______ _______ _____ _____    ______ ____
ROOT
ATOM      1  C   UNL     1       4.603   6.350  16.771  0.00  0.00    +0.000 C 
ENDROOT
BRANCH   1   2
ATOM      2  O   UNL     1       5.880   6.817  16.303  0.00  0.00    +0.000 OA
BRANCH   2   3
ATOM      3  C   UNL     1       6.911   5.967  16.824  0.00  0.00    +0.000 C 
BRANCH   3   4
ATOM      4  C   UNL     1       6.992   4.638  16.079  0.00  0.00    +0.000 C 
BRANCH   4   5
ATOM      5  O   UNL     1       6.872   4.896  14.675  0.00  0.00    +0.000 OA
BRANCH   5   6
ATOM      6  C   UNL     1       5.964   3.988  14.050  0.00  0.00    +0.000 C 
BRANCH   6   7
ATOM      7  C   UNL     1       6.410   3.716  12.612  0.00  0.00    +0.000 C 
BRANCH   7  11
ATOM      8  C   UNL     1       5.958   0.343  10.957  0.00  0.00    +0.000 C 
ATOM      9  C   UNL     1       6.669   1.607  11.356  0.00  0.00    +0.000 C 
ATOM     10  O   UNL     1       7.835   1.833  11.055  0.00  0.00    +0.000 OA
ATOM     11  N   UNL     1       5.887   2.464  12.096  0.00  0.00    +0.000 N 
ATOM     12  H   UNL     1       4.954   2.179  12.363  0.00  0.00    +0.000 HD
ENDBRANCH   7  11
ENDBRANCH   6   7
ENDBRANCH   5   6
ENDBRANCH   4   5
ENDBRANCH   3   4
ENDBRANCH   2   3
ENDBRANCH   1   2
BRANCH   1  13
ATOM     13  C   UNL     1       4.671   5.758  18.184  0.00  0.00    +0.000 C 
BRANCH  13  14
ATOM     14  N   UNL     1       3.605   4.743  18.380  0.00  0.00    +0.000 N 
ATOM     15  C   UNL     1       3.650   3.573  17.617  0.00  0.00    +0.000 A 
ATOM     16  C   UNL     1       2.761   2.583  17.661  0.00  0.00    +0.000 A 
ATOM     17  C   UNL     1       1.622   2.737  18.574  0.00  0.00    +0.000 A 
ATOM     18  O   UNL     1       0.729   1.892  18.665  0.00  0.00    +0.000 OA
ATOM     19  C   UNL     1       1.569   3.956  19.435  0.00  0.00    +0.000 A 
ATOM     20  C   UNL     1       2.554   4.880  19.331  0.00  0.00    +0.000 A 
ATOM     21  C   UNL     1       2.531   6.062  20.272  0.00  0.00    +0.000 C 
BRANCH  19  22
ATOM     22  O   UNL     1       0.498   4.068  20.304  0.00  0.00    +0.000 OA
ATOM     23  H   UNL     1       0.898   4.007  21.198  0.00  0.00    +0.000 HD
ENDBRANCH  19  22
ENDBRANCH  13  14
ENDBRANCH   1  13
TORSDOF 10
ENDMDL
MODEL 7
REMARK VINA RESULT:      -6.1      2.577      4.541
REMARK  Name = 
REMARK  12 active torsions:
REMARK  status: ('A' for Active; 'I' for Inactive)
REMARK    1  A    between atoms: C_1  and  C_2
REMARK    2  A    between atoms: N_4  and  C_5
REMARK    3  A    between atoms: C_5  and  C_6
REMARK    4  A    between atoms: C_6  and  O_7
REMARK    5  A    between atoms: O_7  and  C_8
REMARK    6  A    between atoms: C_8  and  C_9
REMARK    7  A    between atoms: C_9  and  O_10
REMARK    8  A    between atoms: O_10  and  C_11
REMARK    9  A    between atoms: C_11  and  C_12
REMARK   10  A    between atoms: C_12  and  N_13
REMARK   11  A    between atoms: C_18  and  O_19
REMARK   12  A    between atoms: C_20  and  C_21
REMARK                            x       y       z     vdW  Elec       q    Type
REMARK                         _______ _______ _______ _____ _____    ______ ____
ROOT
ATOM      1  C   UNL     1       4.777   4.229  16.569  0.00  0.00    +0.000 C 
ENDROOT
BRANCH   1   2
ATOM      2  O   UNL     1       5.404   3.488  15.509  0.00  0.00    +0.000 OA
BRANCH   2   3
ATOM      3  C   UNL     1       6.554   4.210  15.046  0.00  0.00    +0.000 C 
BRANCH   3   4
ATOM      4  C   UNL     1       7.177   5.065  16.144  0.00  0.00    +0.000 C 
BRANCH   4   5
ATOM      5  O   UNL     1       8.058   4.242  16.918  0.00  0.00    +0.000 OA
BRANCH   5   6
ATOM      6  C   UNL     1       8.133   4.683  18.274  0.00  0.00    +0.000 C 
BRANCH   6   7
ATOM      7  C   UNL     1       7.316   5.965  18.448  0.00  0.00    +0.000 C 
BRANCH   7  11
ATOM      8  C   UNL     1       8.989   9.350  18.715  0.00  0.00    +0.000 C 
ATOM      9  C   UNL     1       8.103   8.283  18.131  0.00  0.00    +0.000 C 
ATOM     10  O   UNL     1       7.412   8.470  17.136  0.00  0.00    +0.000 OA
ATOM     11  N   UNL     1       8.139   7.098  18.831  0.00  0.00    +0.000 N 
ATOM     12  H   UNL     1       8.682   7.041  19.682  0.00  0.00    +0.000 HD
ENDBRANCH   7  11
ENDBRANCH   6   7
ENDBRANCH   5   6
ENDBRANCH   4   5
ENDBRANCH   3   4
ENDBRANCH   2   3
ENDBRANCH   1   2
BRANCH   1  13
ATOM     13  C   UNL     1       3.332   3.784  16.826  0.00  0.00    +0.000 C 
BRANCH  13  14
ATOM     14  N   UNL     1       3.041   3.760  18.282  0.00  0.00    +0.000 N 
ATOM     15  C   UNL     1       3.225   2.563  18.980  0.00  0.00    +0.000 A 
ATOM     16  C   UNL     1       2.989   2.376  20.277  0.00  0.00    +0.000 A 
ATOM     17  C   UNL     1       2.471   3.518  21.042  0.00  0.00    +0.000 A 
ATOM     18  O   UNL     1       2.191   3.437  22.240  0.00  0.00    +0.000 OA
ATOM     19  C   UNL     1       2.305   4.822  20.335  0.00  0.00    +0.000 A 
ATOM     20  C   UNL     1       2.615   4.903  19.019  0.00  0.00    +0.000 A 
ATOM     21  C   UNL     1       2.525   6.251  18.341  0.00  0.00    +0.000 C 
BRANCH  19  22
ATOM     22  O   UNL     1       1.836   5.888  21.081  0.00  0.00    +0.000 OA
ATOM     23  H   UNL     1       1.669   6.596  20.423  0.00  0.00    +0.000 HD
ENDBRANCH  19  22
ENDBRANCH  13  14
ENDBRANCH   1  13
TORSDOF 10
ENDMDL
MODEL 8
REMARK VINA RESULT:      -6.1      2.147      2.887
REMARK  Name = 
REMARK  12 active torsions:
REMARK  status: ('A' for Active; 'I' for Inactive)
REMARK    1  A    between atoms: C_1  and  C_2
REMARK    2  A    between atoms: N_4  and  C_5
REMARK    3  A    between atoms: C_5  and  C_6
REMARK    4  A    between atoms: C_6  and  O_7
REMARK    5  A    between atoms: O_7  and  C_8
REMARK    6  A    between atoms: C_8  and  C_9
REMARK    7  A    between atoms: C_9  and  O_10
REMARK    8  A    between atoms: O_10  and  C_11
REMARK    9  A    between atoms: C_11  and  C_12
REMARK   10  A    between atoms: C_12  and  N_13
REMARK   11  A    between atoms: C_18  and  O_19
REMARK   12  A    between atoms: C_20  and  C_21
REMARK                            x       y       z     vdW  Elec       q    Type
REMARK                         _______ _______ _______ _____ _____    ______ ____
ROOT
ATOM      1  C   UNL     1       2.258   6.493  18.142  0.00  0.00    +0.000 C 
ENDROOT
BRANCH   1   2
ATOM      2  O   UNL     1       3.684   6.623  18.278  0.00  0.00    +0.000 OA
BRANCH   2   3
ATOM      3  C   UNL     1       4.218   7.223  17.089  0.00  0.00    +0.000 C 
BRANCH   3   4
ATOM      4  C   UNL     1       5.629   6.732  16.782  0.00  0.00    +0.000 C 
BRANCH   4   5
ATOM      5  O   UNL     1       5.538   5.600  15.909  0.00  0.00    +0.000 OA
BRANCH   5   6
ATOM      6  C   UNL     1       6.733   4.819  15.934  0.00  0.00    +0.000 C 
BRANCH   6   7
ATOM      7  C   UNL     1       7.206   4.550  14.504  0.00  0.00    +0.000 C 
BRANCH   7  11
ATOM      8  C   UNL     1       5.347   2.637  11.820  0.00  0.00    +0.000 C 
ATOM      9  C   UNL     1       6.361   3.589  12.394  0.00  0.00    +0.000 C 
ATOM     10  O   UNL     1       7.180   4.179  11.700  0.00  0.00    +0.000 OA
ATOM     11  N   UNL     1       6.281   3.713  13.762  0.00  0.00    +0.000 N 
ATOM     12  H   UNL     1       5.623   3.141  14.275  0.00  0.00    +0.000 HD
ENDBRANCH   7  11
ENDBRANCH   6   7
ENDBRANCH   5   6
ENDBRANCH   4   5
ENDBRANCH   3   4
ENDBRANCH   2   3
ENDBRANCH   1   2
BRANCH   1  13
ATOM     13  C   UNL     1       1.819   5.047  17.879  0.00  0.00    +0.000 C 
BRANCH  13  14
ATOM     14  N   UNL     1       2.259   4.156  18.981  0.00  0.00    +0.000 N 
ATOM     15  C   UNL     1       1.540   4.174  20.181  0.00  0.00    +0.000 A 
ATOM     16  C   UNL     1       1.821   3.453  21.264  0.00  0.00    +0.000 A 
ATOM     17  C   UNL     1       2.997   2.576  21.208  0.00  0.00    +0.000 A 
ATOM     18  O   UNL     1       3.357   1.893  22.169  0.00  0.00    +0.000 OA
ATOM     19  C   UNL     1       3.759   2.502  19.927  0.00  0.00    +0.000 A 
ATOM     20  C   UNL     1       3.356   3.254  18.875  0.00  0.00    +0.000 A 
ATOM     21  C   UNL     1       4.086   3.100  17.560  0.00  0.00    +0.000 C 
BRANCH  19  22
ATOM     22  O   UNL     1       4.850   1.652  19.891  0.00  0.00    +0.000 OA
ATOM     23  H   UNL     1       4.768   1.110  20.705  0.00  0.00    +0.000 HD
ENDBRANCH  19  22
ENDBRANCH  13  14
ENDBRANCH   1  13
TORSDOF 10
ENDMDL
MODEL 9
REMARK VINA RESULT:      -6.1      1.420      2.334
REMARK  Name = 
REMARK  12 active torsions:
REMARK  status: ('A' for Active; 'I' for Inactive)
REMARK    1  A    between atoms: C_1  and  C_2
REMARK    2  A    between atoms: N_4  and  C_5
REMARK    3  A    between atoms: C_5  and  C_6
REMARK    4  A    between atoms: C_6  and  O_7
REMARK    5  A    between atoms: O_7  and  C_8
REMARK    6  A    between atoms: C_8  and  C_9
REMARK    7  A    between atoms: C_9  and  O_10
REMARK    8  A    between atoms: O_10  and  C_11
REMARK    9  A    between atoms: C_11  and  C_12
REMARK   10  A    between atoms: C_12  and  N_13
REMARK   11  A    between atoms: C_18  and  O_19
REMARK   12  A    between atoms: C_20  and  C_21
REMARK                            x       y       z     vdW  Elec       q    Type
REMARK                         _______ _______ _______ _____ _____    ______ ____
ROOT
ATOM      1  C   UNL     1       4.543   6.727  17.544  0.00  0.00    +0.000 C 
ENDROOT
BRANCH   1   2
ATOM      2  O   UNL     1       5.945   6.894  17.275  0.00  0.00    +0.000 OA
BRANCH   2   3
ATOM      3  C   UNL     1       6.650   5.721  17.706  0.00  0.00    +0.000 C 
BRANCH   3   4
ATOM      4  C   UNL     1       7.105   4.861  16.531  0.00  0.00    +0.000 C 
BRANCH   4   5
ATOM      5  O   UNL     1       7.239   5.699  15.377  0.00  0.00    +0.000 OA
BRANCH   5   6
ATOM      6  C   UNL     1       7.406   4.929  14.185  0.00  0.00    +0.000 C 
BRANCH   6   7
ATOM      7  C   UNL     1       6.129   4.137  13.899  0.00  0.00    +0.000 C 
BRANCH   7  11
ATOM      8  C   UNL     1       5.985   1.566  11.125  0.00  0.00    +0.000 C 
ATOM      9  C   UNL     1       5.545   2.750  11.942  0.00  0.00    +0.000 C 
ATOM     10  O   UNL     1       4.559   3.419  11.658  0.00  0.00    +0.000 OA
ATOM     11  N   UNL     1       6.364   3.007  13.018  0.00  0.00    +0.000 N 
ATOM     12  H   UNL     1       7.200   2.452  13.150  0.00  0.00    +0.000 HD
ENDBRANCH   7  11
ENDBRANCH   6   7
ENDBRANCH   5   6
ENDBRANCH   4   5
ENDBRANCH   3   4
ENDBRANCH   2   3
ENDBRANCH   1   2
BRANCH   1  13
ATOM     13  C   UNL     1       4.028   5.336  17.155  0.00  0.00    +0.000 C 
BRANCH  13  14
ATOM     14  N   UNL     1       3.238   4.740  18.262  0.00  0.00    +0.000 N 
ATOM     15  C   UNL     1       2.939   5.536  19.372  0.00  0.00    +0.000 A 
ATOM     16  C   UNL     1       2.261   5.144  20.448  0.00  0.00    +0.000 A 
ATOM     17  C   UNL     1       1.802   3.750  20.489  0.00  0.00    +0.000 A 
ATOM     18  O   UNL     1       1.195   3.283  21.454  0.00  0.00    +0.000 OA
ATOM     19  C   UNL     1       2.068   2.887  19.300  0.00  0.00    +0.000 A 
ATOM     20  C   UNL     1       2.735   3.408  18.243  0.00  0.00    +0.000 A 
ATOM     21  C   UNL     1       2.917   2.547  17.014  0.00  0.00    +0.000 C 
BRANCH  19  22
ATOM     22  O   UNL     1       1.607   1.583  19.352  0.00  0.00    +0.000 OA
ATOM     23  H   UNL     1       1.644   1.271  18.423  0.00  0.00    +0.000 HD
ENDBRANCH  19  22
ENDBRANCH  13  14
ENDBRANCH   1  13
TORSDOF 10
ENDMDL
