MODEL 1
REMARK VINA RESULT:      -5.1      0.000      0.000
REMARK  Name = 
REMARK  7 active torsions:
REMARK  status: ('A' for Active; 'I' for Inactive)
REMARK    1  A    between atoms: C_1  and  S_2
REMARK    2  A    between atoms: S_2  and  C_3
REMARK    3  A    between atoms: C_4  and  C_5
REMARK    4  A    between atoms: C_5  and  C_6
REMARK    5  A    between atoms: C_6  and  O_8
REMARK    6  A    between atoms: N_9  and  C_10
REMARK    7  A    between atoms: N_12  and  C_13
REMARK                            x       y       z     vdW  Elec       q    Type
REMARK                         _______ _______ _______ _____ _____    ______ ____
ROOT
ATOM      1  C   UNL     1       3.579   5.175  19.199  0.00  0.00    +0.000 A 
ATOM      2  C   UNL     1       3.428   3.900  19.730  0.00  0.00    +0.000 A 
ATOM      3  N   UNL     1       2.389   4.013  20.682  0.00  0.00    +0.000 N 
ATOM      4  C   UNL     1       1.976   3.059  21.704  0.00  0.00    +0.000 C 
ATOM      5  C   UNL     1       1.774   5.183  20.505  0.00  0.00    +0.000 A 
ATOM      6  N   UNL     1       2.582   5.969  19.795  0.00  0.00    +0.000 N 
ATOM      7  C   UNL     1       2.240   7.369  19.568  0.00  0.00    +0.000 C 
ENDROOT
BRANCH   1   9
ATOM      8  C   UNL     1       4.801   4.851  16.637  0.00  0.00    +0.000 C 
ATOM      9  S   UNL     1       4.881   5.784  18.189  0.00  0.00    +0.000 S 
ENDBRANCH   1   9
BRANCH   2  10
ATOM     10  C   UNL     1       4.129   2.620  19.494  0.00  0.00    +0.000 C 
BRANCH  10  11
ATOM     11  C   UNL     1       3.463   1.787  18.442  0.00  0.00    +0.000 C 
ATOM     12  O   UNL     1       2.536   2.076  17.709  0.00  0.00    +0.000 OA
BRANCH  11  13
ATOM     13  O   UNL     1       4.089   0.583  18.321  0.00  0.00    +0.000 OA
ATOM     14  H   UNL     1       4.577   0.450  19.162  0.00  0.00    +0.000 HD
ENDBRANCH  11  13
ENDBRANCH  10  11
ENDBRANCH   2  10
TORSDOF 4
ENDMDL
MODEL 2
REMARK VINA RESULT:      -5.1      1.096      1.307
REMARK  Name = 
REMARK  7 active torsions:
REMARK  status: ('A' for Active; 'I' for Inactive)
REMARK    1  A    between atoms: C_1  and  S_2
REMARK    2  A    between atoms: S_2  and  C_3
REMARK    3  A    between atoms: C_4  and  C_5
REMARK    4  A    between atoms: C_5  and  C_6
REMARK    5  A    between atoms: C_6  and  O_8
REMARK    6  A    between atoms: N_9  and  C_10
REMARK    7  A    between atoms: N_12  and  C_13
REMARK                            x       y       z     vdW  Elec       q    Type
REMARK                         _______ _______ _______ _____ _____    ______ ____
ROOT
ATOM      1  C   UNL     1       2.824   4.930  18.907  0.00  0.00    +0.000 A 
ATOM      2  C   UNL     1       2.504   3.649  19.337  0.00  0.00    +0.000 A 
ATOM      3  N   UNL     1       1.815   3.827  20.558  0.00  0.00    +0.000 N 
ATOM      4  C   UNL     1       1.460   2.832  21.563  0.00  0.00    +0.000 C 
ATOM      5  C   UNL     1       1.489   5.114  20.681  0.00  0.00    +0.000 A 
ATOM      6  N   UNL     1       2.252   5.813  19.841  0.00  0.00    +0.000 N 
ATOM      7  C   UNL     1       2.225   7.272  19.856  0.00  0.00    +0.000 C 
ENDROOT
BRANCH   1   9
ATOM      8  C   UNL     1       5.598   5.103  18.248  0.00  0.00    +0.000 C 
ATOM      9  S   UNL     1       3.924   5.401  17.620  0.00  0.00    +0.000 S 
ENDBRANCH   1   9
BRANCH   2  10
ATOM     10  C   UNL     1       2.773   2.303  18.787  0.00  0.00    +0.000 C 
BRANCH  10  11
ATOM     11  C   UNL     1       4.095   1.756  19.231  0.00  0.00    +0.000 C 
ATOM     12  O   UNL     1       4.831   2.154  20.114  0.00  0.00    +0.000 OA
BRANCH  11  13
ATOM     13  O   UNL     1       4.399   0.624  18.536  0.00  0.00    +0.000 OA
ATOM     14  H   UNL     1       3.557   0.128  18.453  0.00  0.00    +0.000 HD
ENDBRANCH  11  13
ENDBRANCH  10  11
ENDBRANCH   2  10
TORSDOF 4
ENDMDL
MODEL 3
REMARK VINA RESULT:      -5.0      2.909      4.024
REMARK  Name = 
REMARK  7 active torsions:
REMARK  status: ('A' for Active; 'I' for Inactive)
REMARK    1  A    between atoms: C_1  and  S_2
REMARK    2  A    between atoms: S_2  and  C_3
REMARK    3  A    between atoms: C_4  and  C_5
REMARK    4  A    between atoms: C_5  and  C_6
REMARK    5  A    between atoms: C_6  and  O_8
REMARK    6  A    between atoms: N_9  and  C_10
REMARK    7  A    between atoms: N_12  and  C_13
REMARK                            x       y       z     vdW  Elec       q    Type
REMARK                         _______ _______ _______ _____ _____    ______ ____
ROOT
ATOM      1  C   UNL     1       4.173   4.046  19.359  0.00  0.00    +0.000 A 
ATOM      2  C   UNL     1       4.812   4.767  18.358  0.00  0.00    +0.000 A 
ATOM      3  N   UNL     1       4.114   5.993  18.279  0.00  0.00    +0.000 N 
ATOM      4  C   UNL     1       4.191   7.027  17.253  0.00  0.00    +0.000 C 
ATOM      5  C   UNL     1       3.327   6.107  19.350  0.00  0.00    +0.000 A 
ATOM      6  N   UNL     1       3.180   4.895  19.881  0.00  0.00    +0.000 N 
ATOM      7  C   UNL     1       2.249   4.679  20.984  0.00  0.00    +0.000 C 
ENDROOT
BRANCH   1   9
ATOM      8  C   UNL     1       3.476   1.424  18.466  0.00  0.00    +0.000 C 
ATOM      9  S   UNL     1       4.355   2.345  19.757  0.00  0.00    +0.000 S 
ENDBRANCH   1   9
BRANCH   2  10
ATOM     10  C   UNL     1       5.948   4.461  17.463  0.00  0.00    +0.000 C 
BRANCH  10  11
ATOM     11  C   UNL     1       7.264   4.883  18.041  0.00  0.00    +0.000 C 
ATOM     12  O   UNL     1       7.509   5.806  18.793  0.00  0.00    +0.000 OA
BRANCH  11  13
ATOM     13  O   UNL     1       8.248   4.018  17.666  0.00  0.00    +0.000 OA
ATOM     14  H   UNL     1       8.884   4.549  17.140  0.00  0.00    +0.000 HD
ENDBRANCH  11  13
ENDBRANCH  10  11
ENDBRANCH   2  10
TORSDOF 4
ENDMDL
MODEL 4
REMARK VINA RESULT:      -5.0      2.116      3.518
REMARK  Name = 
REMARK  7 active torsions:
REMARK  status: ('A' for Active; 'I' for Inactive)
REMARK    1  A    between atoms: C_1  and  S_2
REMARK    2  A    between atoms: S_2  and  C_3
REMARK    3  A    between atoms: C_4  and  C_5
REMARK    4  A    between atoms: C_5  and  C_6
REMARK    5  A    between atoms: C_6  and  O_8
REMARK    6  A    between atoms: N_9  and  C_10
REMARK    7  A    between atoms: N_12  and  C_13
REMARK                            x       y       z     vdW  Elec       q    Type
REMARK                         _______ _______ _______ _____ _____    ______ ____
ROOT
ATOM      1  C   UNL     1       3.618   4.313  19.067  0.00  0.00    +0.000 A 
ATOM      2  C   UNL     1       2.779   5.003  19.933  0.00  0.00    +0.000 A 
ATOM      3  N   UNL     1       2.602   6.276  19.346  0.00  0.00    +0.000 N 
ATOM      4  C   UNL     1       2.022   7.480  19.929  0.00  0.00    +0.000 C 
ATOM      5  C   UNL     1       3.049   6.233  18.090  0.00  0.00    +0.000 A 
ATOM      6  N   UNL     1       3.842   5.169  17.973  0.00  0.00    +0.000 N 
ATOM      7  C   UNL     1       4.598   4.942  16.745  0.00  0.00    +0.000 C 
ENDROOT
BRANCH   1   9
ATOM      8  C   UNL     1       3.436   1.502  18.595  0.00  0.00    +0.000 C 
ATOM      9  S   UNL     1       4.459   2.796  19.346  0.00  0.00    +0.000 S 
ENDBRANCH   1   9
BRANCH   2  10
ATOM     10  C   UNL     1       2.155   4.649  21.226  0.00  0.00    +0.000 C 
BRANCH  10  11
ATOM     11  C   UNL     1       1.419   3.346  21.170  0.00  0.00    +0.000 C 
ATOM     12  O   UNL     1       1.523   2.376  21.897  0.00  0.00    +0.000 OA
BRANCH  11  13
ATOM     13  O   UNL     1       0.484   3.369  20.179  0.00  0.00    +0.000 OA
ATOM     14  H   UNL     1       0.779   4.062  19.551  0.00  0.00    +0.000 HD
ENDBRANCH  11  13
ENDBRANCH  10  11
ENDBRANCH   2  10
TORSDOF 4
ENDMDL
MODEL 5
REMARK VINA RESULT:      -5.0      1.726      3.031
REMARK  Name = 
REMARK  7 active torsions:
REMARK  status: ('A' for Active; 'I' for Inactive)
REMARK    1  A    between atoms: C_1  and  S_2
REMARK    2  A    between atoms: S_2  and  C_3
REMARK    3  A    between atoms: C_4  and  C_5
REMARK    4  A    between atoms: C_5  and  C_6
REMARK    5  A    between atoms: C_6  and  O_8
REMARK    6  A    between atoms: N_9  and  C_10
REMARK    7  A    between atoms: N_12  and  C_13
REMARK                            x       y       z     vdW  Elec       q    Type
REMARK                         _______ _______ _______ _____ _____    ______ ____
ROOT
ATOM      1  C   UNL     1       3.076   5.220  19.297  0.00  0.00    +0.000 A 
ATOM      2  C   UNL     1       3.889   4.296  18.653  0.00  0.00    +0.000 A 
ATOM      3  N   UNL     1       4.290   4.926  17.453  0.00  0.00    +0.000 N 
ATOM      4  C   UNL     1       4.946   4.342  16.288  0.00  0.00    +0.000 C 
ATOM      5  C   UNL     1       3.990   6.223  17.529  0.00  0.00    +0.000 A 
ATOM      6  N   UNL     1       3.089   6.379  18.498  0.00  0.00    +0.000 N 
ATOM      7  C   UNL     1       2.458   7.676  18.719  0.00  0.00    +0.000 C 
ENDROOT
BRANCH   1   9
ATOM      8  C   UNL     1       0.817   3.710  20.179  0.00  0.00    +0.000 C 
ATOM      9  S   UNL     1       2.025   4.965  20.681  0.00  0.00    +0.000 S 
ENDBRANCH   1   9
BRANCH   2  10
ATOM     10  C   UNL     1       4.311   2.919  18.987  0.00  0.00    +0.000 C 
BRANCH  10  11
ATOM     11  C   UNL     1       3.477   1.881  18.301  0.00  0.00    +0.000 C 
ATOM     12  O   UNL     1       2.451   2.022  17.662  0.00  0.00    +0.000 OA
BRANCH  11  13
ATOM     13  O   UNL     1       4.059   0.654  18.410  0.00  0.00    +0.000 OA
ATOM     14  H   UNL     1       4.694   0.726  19.154  0.00  0.00    +0.000 HD
ENDBRANCH  11  13
ENDBRANCH  10  11
ENDBRANCH   2  10
TORSDOF 4
ENDMDL
MODEL 6
REMARK VINA RESULT:      -4.9      3.441      4.583
REMARK  Name = 
REMARK  7 active torsions:
REMARK  status: ('A' for Active; 'I' for Inactive)
REMARK    1  A    between atoms: C_1  and  S_2
REMARK    2  A    between atoms: S_2  and  C_3
REMARK    3  A    between atoms: C_4  and  C_5
REMARK    4  A    between atoms: C_5  and  C_6
REMARK    5  A    between atoms: C_6  and  O_8
REMARK    6  A    between atoms: N_9  and  C_10
REMARK    7  A    between atoms: N_12  and  C_13
REMARK                            x       y       z     vdW  Elec       q    Type
REMARK                         _______ _______ _______ _____ _____    ______ ____
ROOT
ATOM      1  C   UNL     1       4.384   4.245  18.844  0.00  0.00    +0.000 A 
ATOM      2  C   UNL     1       5.415   4.919  18.202  0.00  0.00    +0.000 A 
ATOM      3  N   UNL     1       4.784   5.936  17.451  0.00  0.00    +0.000 N 
ATOM      4  C   UNL     1       5.346   6.786  16.407  0.00  0.00    +0.000 C 
ATOM      5  C   UNL     1       3.519   6.046  17.857  0.00  0.00    +0.000 A 
ATOM      6  N   UNL     1       3.201   4.930  18.512  0.00  0.00    +0.000 N 
ATOM      7  C   UNL     1       1.828   4.696  18.950  0.00  0.00    +0.000 C 
ENDROOT
BRANCH   1   9
ATOM      8  C   UNL     1       3.629   1.499  18.622  0.00  0.00    +0.000 C 
ATOM      9  S   UNL     1       4.453   2.708  19.692  0.00  0.00    +0.000 S 
ENDBRANCH   1   9
BRANCH   2  10
ATOM     10  C   UNL     1       6.881   4.728  18.174  0.00  0.00    +0.000 C 
BRANCH  10  11
ATOM     11  C   UNL     1       7.610   5.763  18.974  0.00  0.00    +0.000 C 
ATOM     12  O   UNL     1       8.049   6.839  18.614  0.00  0.00    +0.000 OA
BRANCH  11  13
ATOM     13  O   UNL     1       7.688   5.387  20.281  0.00  0.00    +0.000 OA
ATOM     14  H   UNL     1       8.405   4.719  20.324  0.00  0.00    +0.000 HD
ENDBRANCH  11  13
ENDBRANCH  10  11
ENDBRANCH   2  10
TORSDOF 4
ENDMDL
MODEL 7
REMARK VINA RESULT:      -4.9      2.745      3.898
REMARK  Name = 
REMARK  7 active torsions:
REMARK  status: ('A' for Active; 'I' for Inactive)
REMARK    1  A    between atoms: C_1  and  S_2
REMARK    2  A    between atoms: S_2  and  C_3
REMARK    3  A    between atoms: C_4  and  C_5
REMARK    4  A    between atoms: C_5  and  C_6
REMARK    5  A    between atoms: C_6  and  O_8
REMARK    6  A    between atoms: N_9  and  C_10
REMARK    7  A    between atoms: N_12  and  C_13
REMARK                            x       y       z     vdW  Elec       q    Type
REMARK                         _______ _______ _______ _____ _____    ______ ____
ROOT
ATOM      1  C   UNL     1       3.971   4.120  19.148  0.00  0.00    +0.000 A 
ATOM      2  C   UNL     1       4.864   5.060  18.649  0.00  0.00    +0.000 A 
ATOM      3  N   UNL     1       4.061   6.054  18.047  0.00  0.00    +0.000 N 
ATOM      4  C   UNL     1       4.461   7.144  17.164  0.00  0.00    +0.000 C 
ATOM      5  C   UNL     1       2.797   5.871  18.428  0.00  0.00    +0.000 A 
ATOM      6  N   UNL     1       2.684   4.627  18.893  0.00  0.00    +0.000 N 
ATOM      7  C   UNL     1       1.376   4.086  19.249  0.00  0.00    +0.000 C 
ENDROOT
BRANCH   1   9
ATOM      8  C   UNL     1       3.680   1.352  18.503  0.00  0.00    +0.000 C 
ATOM      9  S   UNL     1       4.316   2.506  19.749  0.00  0.00    +0.000 S 
ENDBRANCH   1   9
BRANCH   2  10
ATOM     10  C   UNL     1       6.341   5.139  18.634  0.00  0.00    +0.000 C 
BRANCH  10  11
ATOM     11  C   UNL     1       6.940   4.443  17.451  0.00  0.00    +0.000 C 
ATOM     12  O   UNL     1       6.455   4.240  16.354  0.00  0.00    +0.000 OA
BRANCH  11  13
ATOM     13  O   UNL     1       8.227   4.079  17.714  0.00  0.00    +0.000 OA
ATOM     14  H   UNL     1       8.712   4.916  17.879  0.00  0.00    +0.000 HD
ENDBRANCH  11  13
ENDBRANCH  10  11
ENDBRANCH   2  10
TORSDOF 4
ENDMDL
MODEL 8
REMARK VINA RESULT:      -4.9      2.724      3.959
REMARK  Name = 
REMARK  7 active torsions:
REMARK  status: ('A' for Active; 'I' for Inactive)
REMARK    1  A    between atoms: C_1  and  S_2
REMARK    2  A    between atoms: S_2  and  C_3
REMARK    3  A    between atoms: C_4  and  C_5
REMARK    4  A    between atoms: C_5  and  C_6
REMARK    5  A    between atoms: C_6  and  O_8
REMARK    6  A    between atoms: N_9  and  C_10
REMARK    7  A    between atoms: N_12  and  C_13
REMARK                            x       y       z     vdW  Elec       q    Type
REMARK                         _______ _______ _______ _____ _____    ______ ____
ROOT
ATOM      1  C   UNL     1       3.668   3.861  18.821  0.00  0.00    +0.000 A 
ATOM      2  C   UNL     1       4.372   4.539  17.835  0.00  0.00    +0.000 A 
ATOM      3  N   UNL     1       4.121   5.909  18.073  0.00  0.00    +0.000 N 
ATOM      4  C   UNL     1       4.403   7.055  17.216  0.00  0.00    +0.000 C 
ATOM      5  C   UNL     1       3.568   6.039  19.279  0.00  0.00    +0.000 A 
ATOM      6  N   UNL     1       3.095   4.848  19.644  0.00  0.00    +0.000 N 
ATOM      7  C   UNL     1       2.301   4.708  20.860  0.00  0.00    +0.000 C 
ENDROOT
BRANCH   1   9
ATOM      8  C   UNL     1       1.527   1.972  18.714  0.00  0.00    +0.000 C 
ATOM      9  S   UNL     1       3.320   2.141  18.920  0.00  0.00    +0.000 S 
ENDBRANCH   1   9
BRANCH   2  10
ATOM     10  C   UNL     1       5.210   4.088  16.703  0.00  0.00    +0.000 C 
BRANCH  10  11
ATOM     11  C   UNL     1       6.663   4.383  16.912  0.00  0.00    +0.000 C 
ATOM     12  O   UNL     1       7.477   4.824  16.122  0.00  0.00    +0.000 OA
BRANCH  11  13
ATOM     13  O   UNL     1       7.014   4.154  18.209  0.00  0.00    +0.000 OA
ATOM     14  H   UNL     1       6.352   4.632  18.752  0.00  0.00    +0.000 HD
ENDBRANCH  11  13
ENDBRANCH  10  11
ENDBRANCH   2  10
TORSDOF 4
ENDMDL
MODEL 9
REMARK VINA RESULT:      -4.9      3.240      4.325
REMARK  Name = 
REMARK  7 active torsions:
REMARK  status: ('A' for Active; 'I' for Inactive)
REMARK    1  A    between atoms: C_1  and  S_2
REMARK    2  A    between atoms: S_2  and  C_3
REMARK    3  A    between atoms: C_4  and  C_5
REMARK    4  A    between atoms: C_5  and  C_6
REMARK    5  A    between atoms: C_6  and  O_8
REMARK    6  A    between atoms: N_9  and  C_10
REMARK    7  A    between atoms: N_12  and  C_13
REMARK                            x       y       z     vdW  Elec       q    Type
REMARK                         _______ _______ _______ _____ _____    ______ ____
ROOT
ATOM      1  C   UNL     1       4.064   4.165  19.294  0.00  0.00    +0.000 A 
ATOM      2  C   UNL     1       4.927   4.979  18.572  0.00  0.00    +0.000 A 
ATOM      3  N   UNL     1       4.150   6.093  18.183  0.00  0.00    +0.000 N 
ATOM      4  C   UNL     1       4.466   7.137  17.214  0.00  0.00    +0.000 C 
ATOM      5  C   UNL     1       3.011   6.084  18.876  0.00  0.00    +0.000 A 
ATOM      6  N   UNL     1       2.842   4.858  19.369  0.00  0.00    +0.000 N 
ATOM      7  C   UNL     1       1.604   4.500  20.054  0.00  0.00    +0.000 C 
ENDROOT
BRANCH   1   9
ATOM      8  C   UNL     1       3.541   1.459  18.541  0.00  0.00    +0.000 C 
ATOM      9  S   UNL     1       4.312   2.503  19.806  0.00  0.00    +0.000 S 
ENDBRANCH   1   9
BRANCH   2  10
ATOM     10  C   UNL     1       6.346   4.846  18.179  0.00  0.00    +0.000 C 
BRANCH  10  11
ATOM     11  C   UNL     1       7.265   5.611  19.081  0.00  0.00    +0.000 C 
ATOM     12  O   UNL     1       7.596   5.364  20.226  0.00  0.00    +0.000 OA
BRANCH  11  13
ATOM     13  O   UNL     1       7.802   6.676  18.422  0.00  0.00    +0.000 OA
ATOM     14  H   UNL     1       7.818   7.411  19.072  0.00  0.00    +0.000 HD
ENDBRANCH  11  13
ENDBRANCH  10  11
ENDBRANCH   2  10
TORSDOF 4
ENDMDL
