MODEL 1
REMARK VINA RESULT:      -5.2      0.000      0.000
REMARK  Name = 
REMARK  4 active torsions:
REMARK  status: ('A' for Active; 'I' for Inactive)
REMARK    1  A    between atoms: C_2  and  C_3
REMARK    2  A    between atoms: C_3  and  N_4
REMARK    3  A    between atoms: N_4  and  C_5
REMARK    4  A    between atoms: C_5  and  C_6
REMARK                            x       y       z     vdW  Elec       q    Type
REMARK                         _______ _______ _______ _____ _____    ______ ____
ROOT
ATOM      1  C   UNL     1       4.072   4.223  18.714  0.00  0.00    +0.000 A 
ATOM      2  C   UNL     1       3.916   2.831  18.842  0.00  0.00    +0.000 A 
ATOM      3  C   UNL     1       2.697   2.223  18.533  0.00  0.00    +0.000 A 
ATOM      4  C   UNL     1       1.620   2.997  18.099  0.00  0.00    +0.000 A 
ATOM      5  C   UNL     1       1.757   4.380  17.974  0.00  0.00    +0.000 A 
ATOM      6  C   UNL     1       2.974   5.001  18.278  0.00  0.00    +0.000 A 
ATOM      7 BR   UNL     1       3.085   6.908  18.086  0.00  0.00    +0.000 Br
ENDROOT
BRANCH   1   8
ATOM      8  C   UNL     1       5.403   4.857  19.032  0.00  0.00    +0.000 C 
BRANCH   8   9
ATOM      9  N   UNL     1       6.478   4.032  18.470  0.00  0.00    +0.000 NA
ATOM     10  H   UNL     1       6.999   3.581  19.258  0.00  0.00    +0.000 HD
BRANCH   9  11
ATOM     11  C   UNL     1       7.413   4.840  17.682  0.00  0.00    +0.000 C 
BRANCH  11  13
ATOM     12 CL   UNL     1       6.002   3.725  15.627  0.00  0.00    +0.000 Cl
ATOM     13  C   UNL     1       6.807   5.161  16.316  0.00  0.00    +0.000 C 
ENDBRANCH  11  13
ENDBRANCH   9  11
ENDBRANCH   8   9
ENDBRANCH   1   8
TORSDOF 4
ENDMDL
MODEL 2
REMARK VINA RESULT:      -5.1      2.971      4.647
REMARK  Name = 
REMARK  4 active torsions:
REMARK  status: ('A' for Active; 'I' for Inactive)
REMARK    1  A    between atoms: C_2  and  C_3
REMARK    2  A    between atoms: C_3  and  N_4
REMARK    3  A    between atoms: N_4  and  C_5
REMARK    4  A    between atoms: C_5  and  C_6
REMARK                            x       y       z     vdW  Elec       q    Type
REMARK                         _______ _______ _______ _____ _____    ______ ____
ROOT
ATOM      1  C   UNL     1       3.997   4.361  17.319  0.00  0.00    +0.000 A 
ATOM      2  C   UNL     1       4.809   4.157  16.190  0.00  0.00    +0.000 A 
ATOM      3  C   UNL     1       5.412   5.240  15.545  0.00  0.00    +0.000 A 
ATOM      4  C   UNL     1       5.207   6.537  16.017  0.00  0.00    +0.000 A 
ATOM      5  C   UNL     1       4.397   6.756  17.133  0.00  0.00    +0.000 A 
ATOM      6  C   UNL     1       3.790   5.679  17.788  0.00  0.00    +0.000 A 
ATOM      7 BR   UNL     1       2.686   6.060  19.313  0.00  0.00    +0.000 Br
ENDROOT
BRANCH   1   8
ATOM      8  C   UNL     1       3.372   3.177  18.013  0.00  0.00    +0.000 C 
BRANCH   8   9
ATOM      9  N   UNL     1       2.000   2.999  17.525  0.00  0.00    +0.000 NA
ATOM     10  H   UNL     1       1.633   3.928  17.214  0.00  0.00    +0.000 HD
BRANCH   9  11
ATOM     11  C   UNL     1       1.125   2.468  18.574  0.00  0.00    +0.000 C 
BRANCH  11  13
ATOM     12 CL   UNL     1       1.199   3.178  21.209  0.00  0.00    +0.000 Cl
ATOM     13  C   UNL     1       1.919   2.255  19.862  0.00  0.00    +0.000 C 
ENDBRANCH  11  13
ENDBRANCH   9  11
ENDBRANCH   8   9
ENDBRANCH   1   8
TORSDOF 4
ENDMDL
MODEL 3
REMARK VINA RESULT:      -5.1      1.848      1.896
REMARK  Name = 
REMARK  4 active torsions:
REMARK  status: ('A' for Active; 'I' for Inactive)
REMARK    1  A    between atoms: C_2  and  C_3
REMARK    2  A    between atoms: C_3  and  N_4
REMARK    3  A    between atoms: N_4  and  C_5
REMARK    4  A    between atoms: C_5  and  C_6
REMARK                            x       y       z     vdW  Elec       q    Type
REMARK                         _______ _______ _______ _____ _____    ______ ____
ROOT
ATOM      1  C   UNL     1       4.007   4.023  18.945  0.00  0.00    +0.000 A 
ATOM      2  C   UNL     1       3.930   2.866  19.741  0.00  0.00    +0.000 A 
ATOM      3  C   UNL     1       2.954   2.754  20.735  0.00  0.00    +0.000 A 
ATOM      4  C   UNL     1       2.049   3.794  20.946  0.00  0.00    +0.000 A 
ATOM      5  C   UNL     1       2.118   4.951  20.168  0.00  0.00    +0.000 A 
ATOM      6  C   UNL     1       3.090   5.075  19.169  0.00  0.00    +0.000 A 
ATOM      7 BR   UNL     1       3.125   6.698  18.143  0.00  0.00    +0.000 Br
ENDROOT
BRANCH   1   8
ATOM      8  C   UNL     1       5.055   4.115  17.864  0.00  0.00    +0.000 C 
BRANCH   8   9
ATOM      9  N   UNL     1       6.386   4.144  18.482  0.00  0.00    +0.000 NA
ATOM     10  H   UNL     1       6.358   4.791  19.305  0.00  0.00    +0.000 HD
BRANCH   9  11
ATOM     11  C   UNL     1       7.402   4.617  17.538  0.00  0.00    +0.000 C 
BRANCH  11  13
ATOM     12 CL   UNL     1       7.564   7.343  17.527  0.00  0.00    +0.000 Cl
ATOM     13  C   UNL     1       6.897   5.856  16.799  0.00  0.00    +0.000 C 
ENDBRANCH  11  13
ENDBRANCH   9  11
ENDBRANCH   8   9
ENDBRANCH   1   8
TORSDOF 4
ENDMDL
MODEL 4
REMARK VINA RESULT:      -5.0      3.008      4.706
REMARK  Name = 
REMARK  4 active torsions:
REMARK  status: ('A' for Active; 'I' for Inactive)
REMARK    1  A    between atoms: C_2  and  C_3
REMARK    2  A    between atoms: C_3  and  N_4
REMARK    3  A    between atoms: N_4  and  C_5
REMARK    4  A    between atoms: C_5  and  C_6
REMARK                            x       y       z     vdW  Elec       q    Type
REMARK                         _______ _______ _______ _____ _____    ______ ____
ROOT
ATOM      1  C   UNL     1       3.556   4.906  17.476  0.00  0.00    +0.000 A 
ATOM      2  C   UNL     1       4.290   3.873  16.867  0.00  0.00    +0.000 A 
ATOM      3  C   UNL     1       5.364   4.168  16.024  0.00  0.00    +0.000 A 
ATOM      4  C   UNL     1       5.714   5.496  15.776  0.00  0.00    +0.000 A 
ATOM      5  C   UNL     1       4.991   6.533  16.369  0.00  0.00    +0.000 A 
ATOM      6  C   UNL     1       3.914   6.249  17.217  0.00  0.00    +0.000 A 
ATOM      7 BR   UNL     1       2.964   7.728  17.990  0.00  0.00    +0.000 Br
ENDROOT
BRANCH   1   8
ATOM      8  C   UNL     1       2.414   4.565  18.400  0.00  0.00    +0.000 C 
BRANCH   8   9
ATOM      9  N   UNL     1       1.625   3.477  17.811  0.00  0.00    +0.000 NA
ATOM     10  H   UNL     1       0.862   3.894  17.229  0.00  0.00    +0.000 HD
BRANCH   9  11
ATOM     11  C   UNL     1       1.027   2.631  18.848  0.00  0.00    +0.000 C 
BRANCH  11  13
ATOM     12 CL   UNL     1       1.489   2.602  21.539  0.00  0.00    +0.000 Cl
ATOM     13  C   UNL     1       0.802   3.443  20.123  0.00  0.00    +0.000 C 
ENDBRANCH  11  13
ENDBRANCH   9  11
ENDBRANCH   8   9
ENDBRANCH   1   8
TORSDOF 4
ENDMDL
MODEL 5
REMARK VINA RESULT:      -5.0      2.802      4.323
REMARK  Name = 
REMARK  4 active torsions:
REMARK  status: ('A' for Active; 'I' for Inactive)
REMARK    1  A    between atoms: C_2  and  C_3
REMARK    2  A    between atoms: C_3  and  N_4
REMARK    3  A    between atoms: N_4  and  C_5
REMARK    4  A    between atoms: C_5  and  C_6
REMARK                            x       y       z     vdW  Elec       q    Type
REMARK                         _______ _______ _______ _____ _____    ______ ____
ROOT
ATOM      1  C   UNL     1       4.077   4.362  17.190  0.00  0.00    +0.000 A 
ATOM      2  C   UNL     1       4.949   4.213  16.097  0.00  0.00    +0.000 A 
ATOM      3  C   UNL     1       5.535   5.332  15.500  0.00  0.00    +0.000 A 
ATOM      4  C   UNL     1       5.254   6.610  15.984  0.00  0.00    +0.000 A 
ATOM      5  C   UNL     1       4.385   6.774  17.064  0.00  0.00    +0.000 A 
ATOM      6  C   UNL     1       3.793   5.660  17.671  0.00  0.00    +0.000 A 
ATOM      7 BR   UNL     1       2.606   5.966  19.149  0.00  0.00    +0.000 Br
ENDROOT
BRANCH   1   8
ATOM      8  C   UNL     1       3.471   3.139  17.832  0.00  0.00    +0.000 C 
BRANCH   8   9
ATOM      9  N   UNL     1       4.394   2.618  18.847  0.00  0.00    +0.000 NA
ATOM     10  H   UNL     1       4.730   1.675  18.540  0.00  0.00    +0.000 HD
BRANCH   9  11
ATOM     11  C   UNL     1       3.737   2.490  20.151  0.00  0.00    +0.000 C 
BRANCH  11  13
ATOM     12 CL   UNL     1       1.333   3.070  21.310  0.00  0.00    +0.000 Cl
ATOM     13  C   UNL     1       2.230   2.315  19.964  0.00  0.00    +0.000 C 
ENDBRANCH  11  13
ENDBRANCH   9  11
ENDBRANCH   8   9
ENDBRANCH   1   8
TORSDOF 4
ENDMDL
MODEL 6
REMARK VINA RESULT:      -5.0      1.676      1.799
REMARK  Name = 
REMARK  4 active torsions:
REMARK  status: ('A' for Active; 'I' for Inactive)
REMARK    1  A    between atoms: C_2  and  C_3
REMARK    2  A    between atoms: C_3  and  N_4
REMARK    3  A    between atoms: N_4  and  C_5
REMARK    4  A    between atoms: C_5  and  C_6
REMARK                            x       y       z     vdW  Elec       q    Type
REMARK                         _______ _______ _______ _____ _____    ______ ____
ROOT
ATOM      1  C   UNL     1       3.303   4.039  17.650  0.00  0.00    +0.000 A 
ATOM      2  C   UNL     1       3.068   2.653  17.639  0.00  0.00    +0.000 A 
ATOM      3  C   UNL     1       2.025   2.104  18.390  0.00  0.00    +0.000 A 
ATOM      4  C   UNL     1       1.209   2.932  19.162  0.00  0.00    +0.000 A 
ATOM      5  C   UNL     1       1.435   4.310  19.188  0.00  0.00    +0.000 A 
ATOM      6  C   UNL     1       2.476   4.871  18.439  0.00  0.00    +0.000 A 
ATOM      7 BR   UNL     1       2.727   6.772  18.530  0.00  0.00    +0.000 Br
ENDROOT
BRANCH   1   8
ATOM      8  C   UNL     1       4.422   4.612  16.816  0.00  0.00    +0.000 C 
BRANCH   8   9
ATOM      9  N   UNL     1       5.582   3.718  16.883  0.00  0.00    +0.000 NA
ATOM     10  H   UNL     1       5.660   3.344  17.858  0.00  0.00    +0.000 HD
BRANCH   9  11
ATOM     11  C   UNL     1       6.821   4.423  16.543  0.00  0.00    +0.000 C 
BRANCH  11  13
ATOM     12 CL   UNL     1       7.627   6.463  18.170  0.00  0.00    +0.000 Cl
ATOM     13  C   UNL     1       7.624   4.715  17.810  0.00  0.00    +0.000 C 
ENDBRANCH  11  13
ENDBRANCH   9  11
ENDBRANCH   8   9
ENDBRANCH   1   8
TORSDOF 4
ENDMDL
MODEL 7
REMARK VINA RESULT:      -5.0      2.148      2.413
REMARK  Name = 
REMARK  4 active torsions:
REMARK  status: ('A' for Active; 'I' for Inactive)
REMARK    1  A    between atoms: C_2  and  C_3
REMARK    2  A    between atoms: C_3  and  N_4
REMARK    3  A    between atoms: N_4  and  C_5
REMARK    4  A    between atoms: C_5  and  C_6
REMARK                            x       y       z     vdW  Elec       q    Type
REMARK                         _______ _______ _______ _____ _____    ______ ____
ROOT
ATOM      1  C   UNL     1       3.279   3.126  19.463  0.00  0.00    +0.000 A 
ATOM      2  C   UNL     1       3.532   2.501  20.698  0.00  0.00    +0.000 A 
ATOM      3  C   UNL     1       2.537   2.434  21.676  0.00  0.00    +0.000 A 
ATOM      4  C   UNL     1       1.281   2.993  21.435  0.00  0.00    +0.000 A 
ATOM      5  C   UNL     1       1.018   3.623  20.217  0.00  0.00    +0.000 A 
ATOM      6  C   UNL     1       2.006   3.694  19.229  0.00  0.00    +0.000 A 
ATOM      7 BR   UNL     1       1.569   4.580  17.583  0.00  0.00    +0.000 Br
ENDROOT
BRANCH   1   8
ATOM      8  C   UNL     1       4.361   3.169  18.413  0.00  0.00    +0.000 C 
BRANCH   8   9
ATOM      9  N   UNL     1       5.579   3.740  18.998  0.00  0.00    +0.000 NA
ATOM     10  H   UNL     1       5.716   3.330  19.951  0.00  0.00    +0.000 HD
BRANCH   9  11
ATOM     11  C   UNL     1       5.482   5.198  19.114  0.00  0.00    +0.000 C 
BRANCH  11  13
ATOM     12 CL   UNL     1       4.787   6.421  16.774  0.00  0.00    +0.000 Cl
ATOM     13  C   UNL     1       6.077   5.864  17.874  0.00  0.00    +0.000 C 
ENDBRANCH  11  13
ENDBRANCH   9  11
ENDBRANCH   8   9
ENDBRANCH   1   8
TORSDOF 4
ENDMDL
MODEL 8
REMARK VINA RESULT:      -5.0      2.192      2.338
REMARK  Name = 
REMARK  4 active torsions:
REMARK  status: ('A' for Active; 'I' for Inactive)
REMARK    1  A    between atoms: C_2  and  C_3
REMARK    2  A    between atoms: C_3  and  N_4
REMARK    3  A    between atoms: N_4  and  C_5
REMARK    4  A    between atoms: C_5  and  C_6
REMARK                            x       y       z     vdW  Elec       q    Type
REMARK                         _______ _______ _______ _____ _____    ______ ____
ROOT
ATOM      1  C   UNL     1       3.400   3.705  19.206  0.00  0.00    +0.000 A 
ATOM      2  C   UNL     1       3.214   2.588  20.039  0.00  0.00    +0.000 A 
ATOM      3  C   UNL     1       2.230   2.598  21.030  0.00  0.00    +0.000 A 
ATOM      4  C   UNL     1       1.424   3.724  21.204  0.00  0.00    +0.000 A 
ATOM      5  C   UNL     1       1.601   4.844  20.389  0.00  0.00    +0.000 A 
ATOM      6  C   UNL     1       2.583   4.844  19.391  0.00  0.00    +0.000 A 
ATOM      7 BR   UNL     1       2.770   6.423  18.314  0.00  0.00    +0.000 Br
ENDROOT
BRANCH   1   8
ATOM      8  C   UNL     1       4.455   3.666  18.129  0.00  0.00    +0.000 C 
BRANCH   8   9
ATOM      9  N   UNL     1       5.766   3.945  18.725  0.00  0.00    +0.000 NA
ATOM     10  H   UNL     1       5.638   4.107  19.751  0.00  0.00    +0.000 HD
BRANCH   9  11
ATOM     11  C   UNL     1       6.382   5.133  18.127  0.00  0.00    +0.000 C 
BRANCH  11  13
ATOM     12 CL   UNL     1       8.102   7.234  18.418  0.00  0.00    +0.000 Cl
ATOM     13  C   UNL     1       7.400   5.738  19.094  0.00  0.00    +0.000 C 
ENDBRANCH  11  13
ENDBRANCH   9  11
ENDBRANCH   8   9
ENDBRANCH   1   8
TORSDOF 4
ENDMDL
MODEL 9
REMARK VINA RESULT:      -5.0      1.449      1.678
REMARK  Name = 
REMARK  4 active torsions:
REMARK  status: ('A' for Active; 'I' for Inactive)
REMARK    1  A    between atoms: C_2  and  C_3
REMARK    2  A    between atoms: C_3  and  N_4
REMARK    3  A    between atoms: N_4  and  C_5
REMARK    4  A    between atoms: C_5  and  C_6
REMARK                            x       y       z     vdW  Elec       q    Type
REMARK                         _______ _______ _______ _____ _____    ______ ____
ROOT
ATOM      1  C   UNL     1       2.910   3.616  17.917  0.00  0.00    +0.000 A 
ATOM      2  C   UNL     1       2.467   2.300  18.140  0.00  0.00    +0.000 A 
ATOM      3  C   UNL     1       1.507   2.032  19.119  0.00  0.00    +0.000 A 
ATOM      4  C   UNL     1       0.982   3.072  19.887  0.00  0.00    +0.000 A 
ATOM      5  C   UNL     1       1.417   4.382  19.682  0.00  0.00    +0.000 A 
ATOM      6  C   UNL     1       2.378   4.664  18.703  0.00  0.00    +0.000 A 
ATOM      7 BR   UNL     1       2.929   6.489  18.483  0.00  0.00    +0.000 Br
ENDROOT
BRANCH   1   8
ATOM      8  C   UNL     1       3.932   3.887  16.841  0.00  0.00    +0.000 C 
BRANCH   8   9
ATOM      9  N   UNL     1       5.278   3.756  17.410  0.00  0.00    +0.000 NA
ATOM     10  H   UNL     1       5.299   4.245  18.336  0.00  0.00    +0.000 HD
BRANCH   9  11
ATOM     11  C   UNL     1       6.288   4.354  16.533  0.00  0.00    +0.000 C 
BRANCH  11  13
ATOM     12 CL   UNL     1       5.993   3.958  13.847  0.00  0.00    +0.000 Cl
ATOM     13  C   UNL     1       5.622   4.942  15.289  0.00  0.00    +0.000 C 
ENDBRANCH  11  13
ENDBRANCH   9  11
ENDBRANCH   8   9
ENDBRANCH   1   8
TORSDOF 4
ENDMDL
