MODEL 1
REMARK VINA RESULT:      -6.3      0.000      0.000
REMARK  Name = 
REMARK  5 active torsions:
REMARK  status: ('A' for Active; 'I' for Inactive)
REMARK    1  A    between atoms: C_1  and  O_2
REMARK    2  A    between atoms: O_2  and  C_3
REMARK    3  A    between atoms: C_6  and  C_7
REMARK    4  A    between atoms: N_9  and  C_10
REMARK    5  A    between atoms: N_13  and  C_14
REMARK                            x       y       z     vdW  Elec       q    Type
REMARK                         _______ _______ _______ _____ _____    ______ ____
ROOT
ATOM      1  C   UNL     1       4.356   5.200  16.894  0.00  0.00    +0.000 C 
ATOM      2  O   UNL     1       4.437   6.400  16.636  0.00  0.00    +0.000 OA
ATOM      3  N   UNL     1       5.082   4.201  16.271  0.00  0.00    +0.000 N 
ATOM      4  H   UNL     1       4.913   3.232  16.497  0.00  0.00    +0.000 HD
ENDROOT
BRANCH   1   8
ATOM      5  C   UNL     1       1.684   3.976  20.025  0.00  0.00    +0.000 A 
ATOM      6  C   UNL     1       2.860   4.673  20.302  0.00  0.00    +0.000 A 
ATOM      7  C   UNL     1       3.697   5.082  19.266  0.00  0.00    +0.000 A 
ATOM      8  C   UNL     1       3.375   4.790  17.933  0.00  0.00    +0.000 A 
ATOM      9  C   UNL     1       2.208   4.072  17.651  0.00  0.00    +0.000 A 
ATOM     10  C   UNL     1       1.364   3.666  18.699  0.00  0.00    +0.000 A 
BRANCH   5  12
ATOM     11  C   UNL     1       1.475   2.491  21.853  0.00  0.00    +0.000 C 
ATOM     12  O   UNL     1       0.967   3.601  21.125  0.00  0.00    +0.000 OA
ENDBRANCH   5  12
ENDBRANCH   1   8
BRANCH   3  13
ATOM     13  C   UNL     1       5.995   4.465  15.260  0.00  0.00    +0.000 A 
ATOM     14  C   UNL     1       7.232   5.154  15.291  0.00  0.00    +0.000 A 
ATOM     15  N   UNL     1       7.825   5.200  14.095  0.00  0.00    +0.000 NA
ATOM     16  N   UNL     1       6.973   4.540  13.296  0.00  0.00    +0.000 N 
ATOM     17  C   UNL     1       7.298   4.371  11.901  0.00  0.00    +0.000 C 
ATOM     18  C   UNL     1       5.855   4.085  13.943  0.00  0.00    +0.000 A 
ENDBRANCH   3  13
TORSDOF 3
ENDMDL
MODEL 2
REMARK VINA RESULT:      -6.2      3.605      4.126
REMARK  Name = 
REMARK  5 active torsions:
REMARK  status: ('A' for Active; 'I' for Inactive)
REMARK    1  A    between atoms: C_1  and  O_2
REMARK    2  A    between atoms: O_2  and  C_3
REMARK    3  A    between atoms: C_6  and  C_7
REMARK    4  A    between atoms: N_9  and  C_10
REMARK    5  A    between atoms: N_13  and  C_14
REMARK                            x       y       z     vdW  Elec       q    Type
REMARK                         _______ _______ _______ _____ _____    ______ ____
ROOT
ATOM      1  C   UNL     1       3.516   6.397  17.860  0.00  0.00    +0.000 C 
ATOM      2  O   UNL     1       3.289   5.197  18.006  0.00  0.00    +0.000 OA
ATOM      3  N   UNL     1       4.560   6.927  17.124  0.00  0.00    +0.000 N 
ATOM      4  H   UNL     1       4.715   7.924  17.104  0.00  0.00    +0.000 HD
ENDROOT
BRANCH   1   8
ATOM      5  C   UNL     1       1.015   9.312  19.782  0.00  0.00    +0.000 A 
ATOM      6  C   UNL     1       1.421   9.462  18.456  0.00  0.00    +0.000 A 
ATOM      7  C   UNL     1       2.212   8.488  17.848  0.00  0.00    +0.000 A 
ATOM      8  C   UNL     1       2.617   7.352  18.561  0.00  0.00    +0.000 A 
ATOM      9  C   UNL     1       2.230   7.207  19.898  0.00  0.00    +0.000 A 
ATOM     10  C   UNL     1       1.429   8.189  20.505  0.00  0.00    +0.000 A 
BRANCH   5  12
ATOM     11  C   UNL     1       0.950  11.589  20.414  0.00  0.00    +0.000 C 
ATOM     12  O   UNL     1       0.273  10.347  20.274  0.00  0.00    +0.000 OA
ENDBRANCH   5  12
ENDBRANCH   1   8
BRANCH   3  13
ATOM     13  C   UNL     1       5.483   6.130  16.462  0.00  0.00    +0.000 A 
ATOM     14  C   UNL     1       6.751   5.650  16.872  0.00  0.00    +0.000 A 
ATOM     15  N   UNL     1       7.345   4.903  15.938  0.00  0.00    +0.000 NA
ATOM     16  N   UNL     1       6.460   4.899  14.929  0.00  0.00    +0.000 N 
ATOM     17  C   UNL     1       6.762   4.161  13.727  0.00  0.00    +0.000 C 
ATOM     18  C   UNL     1       5.329   5.627  15.188  0.00  0.00    +0.000 A 
ENDBRANCH   3  13
TORSDOF 3
ENDMDL
MODEL 3
REMARK VINA RESULT:      -6.1      0.839      1.189
REMARK  Name = 
REMARK  5 active torsions:
REMARK  status: ('A' for Active; 'I' for Inactive)
REMARK    1  A    between atoms: C_1  and  O_2
REMARK    2  A    between atoms: O_2  and  C_3
REMARK    3  A    between atoms: C_6  and  C_7
REMARK    4  A    between atoms: N_9  and  C_10
REMARK    5  A    between atoms: N_13  and  C_14
REMARK                            x       y       z     vdW  Elec       q    Type
REMARK                         _______ _______ _______ _____ _____    ______ ____
ROOT
ATOM      1  C   UNL     1       4.490   4.624  16.903  0.00  0.00    +0.000 C 
ATOM      2  O   UNL     1       4.371   5.829  16.688  0.00  0.00    +0.000 OA
ATOM      3  N   UNL     1       5.350   3.777  16.227  0.00  0.00    +0.000 N 
ATOM      4  H   UNL     1       5.345   2.786  16.420  0.00  0.00    +0.000 HD
ENDROOT
BRANCH   1   8
ATOM      5  C   UNL     1       1.860   3.078  19.924  0.00  0.00    +0.000 A 
ATOM      6  C   UNL     1       1.406   3.967  18.949  0.00  0.00    +0.000 A 
ATOM      7  C   UNL     1       2.274   4.433  17.964  0.00  0.00    +0.000 A 
ATOM      8  C   UNL     1       3.615   4.026  17.945  0.00  0.00    +0.000 A 
ATOM      9  C   UNL     1       4.080   3.151  18.933  0.00  0.00    +0.000 A 
ATOM     10  C   UNL     1       3.200   2.679  19.921  0.00  0.00    +0.000 A 
BRANCH   5  12
ATOM     11  C   UNL     1       1.416   2.429  22.153  0.00  0.00    +0.000 C 
ATOM     12  O   UNL     1       0.924   2.720  20.852  0.00  0.00    +0.000 OA
ENDBRANCH   5  12
ENDBRANCH   1   8
BRANCH   3  13
ATOM     13  C   UNL     1       6.184   4.219  15.209  0.00  0.00    +0.000 A 
ATOM     14  C   UNL     1       7.305   5.083  15.244  0.00  0.00    +0.000 A 
ATOM     15  N   UNL     1       7.848   5.270  14.038  0.00  0.00    +0.000 NA
ATOM     16  N   UNL     1       7.078   4.526  13.229  0.00  0.00    +0.000 N 
ATOM     17  C   UNL     1       7.382   4.470  11.819  0.00  0.00    +0.000 C 
ATOM     18  C   UNL     1       6.060   3.881  13.879  0.00  0.00    +0.000 A 
ENDBRANCH   3  13
TORSDOF 3
ENDMDL
MODEL 4
REMARK VINA RESULT:      -6.1      3.598      4.011
REMARK  Name = 
REMARK  5 active torsions:
REMARK  status: ('A' for Active; 'I' for Inactive)
REMARK    1  A    between atoms: C_1  and  O_2
REMARK    2  A    between atoms: O_2  and  C_3
REMARK    3  A    between atoms: C_6  and  C_7
REMARK    4  A    between atoms: N_9  and  C_10
REMARK    5  A    between atoms: N_13  and  C_14
REMARK                            x       y       z     vdW  Elec       q    Type
REMARK                         _______ _______ _______ _____ _____    ______ ____
ROOT
ATOM      1  C   UNL     1       3.488   6.546  17.759  0.00  0.00    +0.000 C 
ATOM      2  O   UNL     1       3.151   5.366  17.839  0.00  0.00    +0.000 OA
ATOM      3  N   UNL     1       4.625   7.008  17.120  0.00  0.00    +0.000 N 
ATOM      4  H   UNL     1       4.865   7.987  17.152  0.00  0.00    +0.000 HD
ENDROOT
BRANCH   1   8
ATOM      5  C   UNL     1       0.906   9.290  19.817  0.00  0.00    +0.000 A 
ATOM      6  C   UNL     1       1.435   8.170  20.457  0.00  0.00    +0.000 A 
ATOM      7  C   UNL     1       2.291   7.308  19.774  0.00  0.00    +0.000 A 
ATOM      8  C   UNL     1       2.625   7.550  18.434  0.00  0.00    +0.000 A 
ATOM      9  C   UNL     1       2.080   8.662  17.781  0.00  0.00    +0.000 A 
ATOM     10  C   UNL     1       1.221   9.529  18.476  0.00  0.00    +0.000 A 
BRANCH   5  12
ATOM     11  C   UNL     1       0.615  11.188  21.196  0.00  0.00    +0.000 C 
ATOM     12  O   UNL     1       0.054  10.037  20.580  0.00  0.00    +0.000 OA
ENDBRANCH   5  12
ENDBRANCH   1   8
BRANCH   3  13
ATOM     13  C   UNL     1       5.524   6.156  16.492  0.00  0.00    +0.000 A 
ATOM     14  C   UNL     1       6.762   5.631  16.935  0.00  0.00    +0.000 A 
ATOM     15  N   UNL     1       7.338   4.838  16.029  0.00  0.00    +0.000 NA
ATOM     16  N   UNL     1       6.472   4.851  15.004  0.00  0.00    +0.000 N 
ATOM     17  C   UNL     1       6.762   4.073  13.824  0.00  0.00    +0.000 C 
ATOM     18  C   UNL     1       5.370   5.632  15.227  0.00  0.00    +0.000 A 
ENDBRANCH   3  13
TORSDOF 3
ENDMDL
MODEL 5
REMARK VINA RESULT:      -6.0      6.639      8.935
REMARK  Name = 
REMARK  5 active torsions:
REMARK  status: ('A' for Active; 'I' for Inactive)
REMARK    1  A    between atoms: C_1  and  O_2
REMARK    2  A    between atoms: O_2  and  C_3
REMARK    3  A    between atoms: C_6  and  C_7
REMARK    4  A    between atoms: N_9  and  C_10
REMARK    5  A    between atoms: N_13  and  C_14
REMARK                            x       y       z     vdW  Elec       q    Type
REMARK                         _______ _______ _______ _____ _____    ______ ____
ROOT
ATOM      1  C   UNL     1       8.427   9.172  18.394  0.00  0.00    +0.000 C 
ATOM      2  O   UNL     1       7.536   9.424  17.584  0.00  0.00    +0.000 OA
ATOM      3  N   UNL     1       8.692   7.921  18.922  0.00  0.00    +0.000 N 
ATOM      4  H   UNL     1       9.402   7.807  19.630  0.00  0.00    +0.000 HD
ENDROOT
BRANCH   1   8
ATOM      5  C   UNL     1      10.976  12.405  19.613  0.00  0.00    +0.000 A 
ATOM      6  C   UNL     1      10.836  12.055  18.270  0.00  0.00    +0.000 A 
ATOM      7  C   UNL     1       9.983  11.018  17.898  0.00  0.00    +0.000 A 
ATOM      8  C   UNL     1       9.261  10.307  18.868  0.00  0.00    +0.000 A 
ATOM      9  C   UNL     1       9.414  10.641  20.218  0.00  0.00    +0.000 A 
ATOM     10  C   UNL     1      10.272  11.691  20.587  0.00  0.00    +0.000 A 
BRANCH   5  12
ATOM     11  C   UNL     1      12.188  14.238  18.740  0.00  0.00    +0.000 C 
ATOM     12  O   UNL     1      11.866  13.413  19.852  0.00  0.00    +0.000 OA
ENDBRANCH   5  12
ENDBRANCH   1   8
BRANCH   3  13
ATOM     13  C   UNL     1       7.951   6.797  18.582  0.00  0.00    +0.000 A 
ATOM     14  C   UNL     1       7.514   5.706  19.372  0.00  0.00    +0.000 A 
ATOM     15  N   UNL     1       6.817   4.809  18.669  0.00  0.00    +0.000 NA
ATOM     16  N   UNL     1       6.804   5.324  17.430  0.00  0.00    +0.000 N 
ATOM     17  C   UNL     1       6.110   4.618  16.380  0.00  0.00    +0.000 C 
ATOM     18  C   UNL     1       7.476   6.511  17.321  0.00  0.00    +0.000 A 
ENDBRANCH   3  13
TORSDOF 3
ENDMDL
MODEL 6
REMARK VINA RESULT:      -5.9      1.012      1.153
REMARK  Name = 
REMARK  5 active torsions:
REMARK  status: ('A' for Active; 'I' for Inactive)
REMARK    1  A    between atoms: C_1  and  O_2
REMARK    2  A    between atoms: O_2  and  C_3
REMARK    3  A    between atoms: C_6  and  C_7
REMARK    4  A    between atoms: N_9  and  C_10
REMARK    5  A    between atoms: N_13  and  C_14
REMARK                            x       y       z     vdW  Elec       q    Type
REMARK                         _______ _______ _______ _____ _____    ______ ____
ROOT
ATOM      1  C   UNL     1       4.625   5.267  17.289  0.00  0.00    +0.000 C 
ATOM      2  O   UNL     1       4.426   6.373  16.790  0.00  0.00    +0.000 OA
ATOM      3  N   UNL     1       5.438   4.285  16.752  0.00  0.00    +0.000 N 
ATOM      4  H   UNL     1       5.501   3.379  17.191  0.00  0.00    +0.000 HD
ENDROOT
BRANCH   1   8
ATOM      5  C   UNL     1       2.530   4.148  20.866  0.00  0.00    +0.000 A 
ATOM      6  C   UNL     1       3.404   3.268  20.229  0.00  0.00    +0.000 A 
ATOM      7  C   UNL     1       4.092   3.665  19.084  0.00  0.00    +0.000 A 
ATOM      8  C   UNL     1       3.907   4.948  18.551  0.00  0.00    +0.000 A 
ATOM      9  C   UNL     1       3.015   5.828  19.175  0.00  0.00    +0.000 A 
ATOM     10  C   UNL     1       2.328   5.424  20.332  0.00  0.00    +0.000 A 
BRANCH   5  12
ATOM     11  C   UNL     1       1.409   2.301  21.827  0.00  0.00    +0.000 C 
ATOM     12  O   UNL     1       1.892   3.631  21.958  0.00  0.00    +0.000 OA
ENDBRANCH   5  12
ENDBRANCH   1   8
BRANCH   3  13
ATOM     13  C   UNL     1       6.124   4.459  15.557  0.00  0.00    +0.000 A 
ATOM     14  C   UNL     1       7.247   5.263  15.247  0.00  0.00    +0.000 A 
ATOM     15  N   UNL     1       7.617   5.159  13.968  0.00  0.00    +0.000 NA
ATOM     16  N   UNL     1       6.735   4.287  13.456  0.00  0.00    +0.000 N 
ATOM     17  C   UNL     1       6.837   3.911  12.068  0.00  0.00    +0.000 C 
ATOM     18  C   UNL     1       5.812   3.842  14.365  0.00  0.00    +0.000 A 
ENDBRANCH   3  13
TORSDOF 3
ENDMDL
MODEL 7
REMARK VINA RESULT:      -5.9      4.627      6.042
REMARK  Name = 
REMARK  5 active torsions:
REMARK  status: ('A' for Active; 'I' for Inactive)
REMARK    1  A    between atoms: C_1  and  O_2
REMARK    2  A    between atoms: O_2  and  C_3
REMARK    3  A    between atoms: C_6  and  C_7
REMARK    4  A    between atoms: N_9  and  C_10
REMARK    5  A    between atoms: N_13  and  C_14
REMARK                            x       y       z     vdW  Elec       q    Type
REMARK                         _______ _______ _______ _____ _____    ______ ____
ROOT
ATOM      1  C   UNL     1       2.319   7.270  19.330  0.00  0.00    +0.000 C 
ATOM      2  O   UNL     1       2.554   7.313  18.124  0.00  0.00    +0.000 OA
ATOM      3  N   UNL     1       2.694   6.243  20.178  0.00  0.00    +0.000 N 
ATOM      4  H   UNL     1       2.410   6.251  21.146  0.00  0.00    +0.000 HD
ENDROOT
BRANCH   1   8
ATOM      5  C   UNL     1      -0.042  10.370  21.133  0.00  0.00    +0.000 A 
ATOM      6  C   UNL     1       0.336   9.234  21.848  0.00  0.00    +0.000 A 
ATOM      7  C   UNL     1       1.124   8.254  21.248  0.00  0.00    +0.000 A 
ATOM      8  C   UNL     1       1.540   8.392  19.916  0.00  0.00    +0.000 A 
ATOM      9  C   UNL     1       1.146   9.520  19.188  0.00  0.00    +0.000 A 
ATOM     10  C   UNL     1       0.355  10.508  19.799  0.00  0.00    +0.000 A 
BRANCH   5  12
ATOM     11  C   UNL     1      -1.205  10.846  23.136  0.00  0.00    +0.000 C 
ATOM     12  O   UNL     1      -0.841  11.240  21.820  0.00  0.00    +0.000 OA
ENDBRANCH   5  12
ENDBRANCH   1   8
BRANCH   3  13
ATOM     13  C   UNL     1       3.389   5.127  19.732  0.00  0.00    +0.000 A 
ATOM     14  C   UNL     1       4.756   4.963  19.401  0.00  0.00    +0.000 A 
ATOM     15  N   UNL     1       5.044   3.720  19.005  0.00  0.00    +0.000 NA
ATOM     16  N   UNL     1       3.865   3.085  19.083  0.00  0.00    +0.000 N 
ATOM     17  C   UNL     1       3.792   1.686  18.739  0.00  0.00    +0.000 C 
ATOM     18  C   UNL     1       2.837   3.885  19.507  0.00  0.00    +0.000 A 
ENDBRANCH   3  13
TORSDOF 3
ENDMDL
MODEL 8
REMARK VINA RESULT:      -5.9      6.558      8.761
REMARK  Name = 
REMARK  5 active torsions:
REMARK  status: ('A' for Active; 'I' for Inactive)
REMARK    1  A    between atoms: C_1  and  O_2
REMARK    2  A    between atoms: O_2  and  C_3
REMARK    3  A    between atoms: C_6  and  C_7
REMARK    4  A    between atoms: N_9  and  C_10
REMARK    5  A    between atoms: N_13  and  C_14
REMARK                            x       y       z     vdW  Elec       q    Type
REMARK                         _______ _______ _______ _____ _____    ______ ____
ROOT
ATOM      1  C   UNL     1       8.356   9.038  18.334  0.00  0.00    +0.000 C 
ATOM      2  O   UNL     1       7.434   9.273  17.554  0.00  0.00    +0.000 OA
ATOM      3  N   UNL     1       8.639   7.800  18.882  0.00  0.00    +0.000 N 
ATOM      4  H   UNL     1       9.376   7.701  19.564  0.00  0.00    +0.000 HD
ENDROOT
BRANCH   1   8
ATOM      5  C   UNL     1      10.687  12.381  19.686  0.00  0.00    +0.000 A 
ATOM      6  C   UNL     1      10.040  11.534  20.585  0.00  0.00    +0.000 A 
ATOM      7  C   UNL     1       9.310  10.441  20.122  0.00  0.00    +0.000 A 
ATOM      8  C   UNL     1       9.209  10.183  18.748  0.00  0.00    +0.000 A 
ATOM      9  C   UNL     1       9.840  11.042  17.841  0.00  0.00    +0.000 A 
ATOM     10  C   UNL     1      10.578  12.140  18.313  0.00  0.00    +0.000 A 
BRANCH   5  12
ATOM     11  C   UNL     1      11.998  14.323  19.367  0.00  0.00    +0.000 C 
ATOM     12  O   UNL     1      11.341  13.434  20.261  0.00  0.00    +0.000 OA
ENDBRANCH   5  12
ENDBRANCH   1   8
BRANCH   3  13
ATOM     13  C   UNL     1       7.884   6.670  18.598  0.00  0.00    +0.000 A 
ATOM     14  C   UNL     1       7.407   5.642  19.447  0.00  0.00    +0.000 A 
ATOM     15  N   UNL     1       6.708   4.714  18.788  0.00  0.00    +0.000 NA
ATOM     16  N   UNL     1       6.734   5.145  17.518  0.00  0.00    +0.000 N 
ATOM     17  C   UNL     1       6.051   4.384  16.500  0.00  0.00    +0.000 C 
ATOM     18  C   UNL     1       7.433   6.310  17.348  0.00  0.00    +0.000 A 
ENDBRANCH   3  13
TORSDOF 3
ENDMDL
MODEL 9
REMARK VINA RESULT:      -5.8      5.532      7.453
REMARK  Name = 
REMARK  5 active torsions:
REMARK  status: ('A' for Active; 'I' for Inactive)
REMARK    1  A    between atoms: C_1  and  O_2
REMARK    2  A    between atoms: O_2  and  C_3
REMARK    3  A    between atoms: C_6  and  C_7
REMARK    4  A    between atoms: N_9  and  C_10
REMARK    5  A    between atoms: N_13  and  C_14
REMARK                            x       y       z     vdW  Elec       q    Type
REMARK                         _______ _______ _______ _____ _____    ______ ____
ROOT
ATOM      1  C   UNL     1       2.075   8.495  18.382  0.00  0.00    +0.000 C 
ATOM      2  O   UNL     1       2.091   9.101  17.312  0.00  0.00    +0.000 OA
ATOM      3  N   UNL     1       1.381   8.892  19.512  0.00  0.00    +0.000 N 
ATOM      4  H   UNL     1       1.468   8.372  20.372  0.00  0.00    +0.000 HD
ENDROOT
BRANCH   1   8
ATOM      5  C   UNL     1       4.437   4.944  18.874  0.00  0.00    +0.000 A 
ATOM      6  C   UNL     1       3.418   5.269  19.768  0.00  0.00    +0.000 A 
ATOM      7  C   UNL     1       2.649   6.414  19.572  0.00  0.00    +0.000 A 
ATOM      8  C   UNL     1       2.894   7.259  18.480  0.00  0.00    +0.000 A 
ATOM      9  C   UNL     1       3.930   6.947  17.591  0.00  0.00    +0.000 A 
ATOM     10  C   UNL     1       4.699   5.789  17.791  0.00  0.00    +0.000 A 
BRANCH   5  12
ATOM     11  C   UNL     1       4.378   2.725  19.688  0.00  0.00    +0.000 C 
ATOM     12  O   UNL     1       5.141   3.817  19.192  0.00  0.00    +0.000 OA
ENDBRANCH   5  12
ENDBRANCH   1   8
BRANCH   3  13
ATOM     13  C   UNL     1       0.616  10.050  19.547  0.00  0.00    +0.000 A 
ATOM     14  C   UNL     1       0.966  11.376  19.899  0.00  0.00    +0.000 A 
ATOM     15  N   UNL     1      -0.064  12.221  19.807  0.00  0.00    +0.000 NA
ATOM     16  N   UNL     1      -1.074  11.441  19.393  0.00  0.00    +0.000 N 
ATOM     17  C   UNL     1      -2.372  12.028  19.163  0.00  0.00    +0.000 C 
ATOM     18  C   UNL     1      -0.722  10.128  19.229  0.00  0.00    +0.000 A 
ENDBRANCH   3  13
TORSDOF 3
ENDMDL
