MODEL 1
REMARK VINA RESULT:      -9.0      0.000      0.000
REMARK  Name = 
REMARK  6 active torsions:
REMARK  status: ('A' for Active; 'I' for Inactive)
REMARK    1  A    between atoms: C_1  and  N_2
REMARK    2  A    between atoms: C_5  and  C_6
REMARK    3  A    between atoms: C_8  and  C_9
REMARK    4  A    between atoms: C_9  and  O_11
REMARK    5  A    between atoms: C_15  and  C_16
REMARK    6  A    between atoms: C_21  and  C_22
REMARK                            x       y       z     vdW  Elec       q    Type
REMARK                         _______ _______ _______ _____ _____    ______ ____
ROOT
ATOM      1  C   UNL     1       0.839   3.881  20.610  0.00  0.00    +0.000 C 
ATOM      2  N   UNL     1       2.211   3.751  20.180  0.00  0.00    +0.000 N 
ATOM      3  C   UNL     1       2.898   2.571  20.247  0.00  0.00    +0.000 A 
ATOM      4  N   UNL     1       4.092   2.669  19.723  0.00  0.00    +0.000 NA
ATOM      5  C   UNL     1       4.207   3.989  19.331  0.00  0.00    +0.000 A 
ATOM      6  C   UNL     1       3.027   4.705  19.583  0.00  0.00    +0.000 A 
ENDROOT
BRANCH   6   7
ATOM      7  C   UNL     1       2.641   6.102  19.280  0.00  0.00    +0.000 A 
ATOM      8  C   UNL     1       2.700   6.628  17.988  0.00  0.00    +0.000 A 
ATOM      9  C   UNL     1       2.319   7.948  17.725  0.00  0.00    +0.000 A 
ATOM     10  C   UNL     1       1.784   8.752  18.733  0.00  0.00    +0.000 A 
ATOM     11 CL   UNL     1       1.306  10.344  18.273  0.00  0.00    +0.000 Cl
ATOM     12  C   UNL     1       1.654   8.251  20.026  0.00  0.00    +0.000 A 
ATOM     13  C   UNL     1       2.143   6.947  20.287  0.00  0.00    +0.000 A 
BRANCH  12  14
ATOM     14  C   UNL     1       0.965   8.965  21.160  0.00  0.00    +0.000 C 
ATOM     15  F   UNL     1       1.273  10.277  21.325  0.00  0.00    +0.000 F 
ATOM     16  F   UNL     1      -0.395   8.930  21.026  0.00  0.00    +0.000 F 
ATOM     17  F   UNL     1       1.224   8.377  22.364  0.00  0.00    +0.000 F 
ENDBRANCH  12  14
ENDBRANCH   6   7
BRANCH   5  18
ATOM     18  C   UNL     1       5.432   4.479  18.702  0.00  0.00    +0.000 A 
ATOM     19  C   UNL     1       5.649   4.268  17.344  0.00  0.00    +0.000 A 
ATOM     20  C   UNL     1       6.784   4.837  16.764  0.00  0.00    +0.000 A 
ATOM     21  C   UNL     1       7.648   5.608  17.542  0.00  0.00    +0.000 A 
ATOM     22  C   UNL     1       7.365   5.744  18.884  0.00  0.00    +0.000 A 
ATOM     23  N   UNL     1       6.293   5.181  19.478  0.00  0.00    +0.000 NA
BRANCH  20  24
ATOM     24  C   UNL     1       7.086   4.727  15.316  0.00  0.00    +0.000 C 
ATOM     25  O   UNL     1       7.824   5.503  14.740  0.00  0.00    +0.000 OA
BRANCH  24  26
ATOM     26  O   UNL     1       6.501   3.678  14.702  0.00  0.00    +0.000 OA
ATOM     27  H   UNL     1       6.029   3.880  13.875  0.00  0.00    +0.000 HD
ENDBRANCH  24  26
ENDBRANCH  20  24
ENDBRANCH   5  18
TORSDOF 5
ENDMDL
MODEL 2
REMARK VINA RESULT:      -8.3      1.565      1.917
REMARK  Name = 
REMARK  6 active torsions:
REMARK  status: ('A' for Active; 'I' for Inactive)
REMARK    1  A    between atoms: C_1  and  N_2
REMARK    2  A    between atoms: C_5  and  C_6
REMARK    3  A    between atoms: C_8  and  C_9
REMARK    4  A    between atoms: C_9  and  O_11
REMARK    5  A    between atoms: C_15  and  C_16
REMARK    6  A    between atoms: C_21  and  C_22
REMARK                            x       y       z     vdW  Elec       q    Type
REMARK                         _______ _______ _______ _____ _____    ______ ____
ROOT
ATOM      1  C   UNL     1       1.164   3.974  20.841  0.00  0.00    +0.000 C 
ATOM      2  N   UNL     1       2.409   3.891  20.115  0.00  0.00    +0.000 N 
ATOM      3  C   UNL     1       3.123   2.730  20.002  0.00  0.00    +0.000 A 
ATOM      4  N   UNL     1       4.169   2.871  19.230  0.00  0.00    +0.000 NA
ATOM      5  C   UNL     1       4.161   4.200  18.852  0.00  0.00    +0.000 A 
ATOM      6  C   UNL     1       3.049   4.878  19.374  0.00  0.00    +0.000 A 
ENDROOT
BRANCH   6   7
ATOM      7  C   UNL     1       2.571   6.267  19.195  0.00  0.00    +0.000 A 
ATOM      8  C   UNL     1       2.514   6.881  17.941  0.00  0.00    +0.000 A 
ATOM      9  C   UNL     1       2.047   8.191  17.797  0.00  0.00    +0.000 A 
ATOM     10  C   UNL     1       1.542   8.896  18.891  0.00  0.00    +0.000 A 
ATOM     11 CL   UNL     1       0.953  10.485  18.575  0.00  0.00    +0.000 Cl
ATOM     12  C   UNL     1       1.528   8.304  20.152  0.00  0.00    +0.000 A 
ATOM     13  C   UNL     1       2.101   7.015  20.288  0.00  0.00    +0.000 A 
BRANCH  12  14
ATOM     14  C   UNL     1       0.884   8.901  21.375  0.00  0.00    +0.000 C 
ATOM     15  F   UNL     1       0.798  10.256  21.414  0.00  0.00    +0.000 F 
ATOM     16  F   UNL     1      -0.398   8.457  21.538  0.00  0.00    +0.000 F 
ATOM     17  F   UNL     1       1.537   8.547  22.519  0.00  0.00    +0.000 F 
ENDBRANCH  12  14
ENDBRANCH   6   7
BRANCH   5  18
ATOM     18  C   UNL     1       5.204   4.736  17.979  0.00  0.00    +0.000 A 
ATOM     19  C   UNL     1       5.922   5.864  18.365  0.00  0.00    +0.000 A 
ATOM     20  C   UNL     1       6.973   6.285  17.548  0.00  0.00    +0.000 A 
ATOM     21  C   UNL     1       7.286   5.565  16.396  0.00  0.00    +0.000 A 
ATOM     22  C   UNL     1       6.506   4.473  16.080  0.00  0.00    +0.000 A 
ATOM     23  N   UNL     1       5.466   4.062  16.833  0.00  0.00    +0.000 NA
BRANCH  20  24
ATOM     24  C   UNL     1       7.843   7.437  17.890  0.00  0.00    +0.000 C 
ATOM     25  O   UNL     1       7.877   8.453  17.221  0.00  0.00    +0.000 OA
BRANCH  24  26
ATOM     26  O   UNL     1       8.563   7.278  19.019  0.00  0.00    +0.000 OA
ATOM     27  H   UNL     1       9.352   6.712  18.942  0.00  0.00    +0.000 HD
ENDBRANCH  24  26
ENDBRANCH  20  24
ENDBRANCH   5  18
TORSDOF 5
ENDMDL
MODEL 3
REMARK VINA RESULT:      -8.3      2.398      3.009
REMARK  Name = 
REMARK  6 active torsions:
REMARK  status: ('A' for Active; 'I' for Inactive)
REMARK    1  A    between atoms: C_1  and  N_2
REMARK    2  A    between atoms: C_5  and  C_6
REMARK    3  A    between atoms: C_8  and  C_9
REMARK    4  A    between atoms: C_9  and  O_11
REMARK    5  A    between atoms: C_15  and  C_16
REMARK    6  A    between atoms: C_21  and  C_22
REMARK                            x       y       z     vdW  Elec       q    Type
REMARK                         _______ _______ _______ _____ _____    ______ ____
ROOT
ATOM      1  C   UNL     1       0.706   2.544  19.600  0.00  0.00    +0.000 C 
ATOM      2  N   UNL     1       1.997   2.742  18.985  0.00  0.00    +0.000 N 
ATOM      3  C   UNL     1       2.689   1.731  18.377  0.00  0.00    +0.000 A 
ATOM      4  N   UNL     1       3.789   2.160  17.815  0.00  0.00    +0.000 NA
ATOM      5  C   UNL     1       3.840   3.510  18.104  0.00  0.00    +0.000 A 
ATOM      6  C   UNL     1       2.711   3.924  18.826  0.00  0.00    +0.000 A 
ENDROOT
BRANCH   6   7
ATOM      7  C   UNL     1       2.280   5.261  19.296  0.00  0.00    +0.000 A 
ATOM      8  C   UNL     1       1.949   5.511  20.629  0.00  0.00    +0.000 A 
ATOM      9  C   UNL     1       1.557   6.785  21.051  0.00  0.00    +0.000 A 
ATOM     10  C   UNL     1       1.567   7.867  20.168  0.00  0.00    +0.000 A 
ATOM     11 CL   UNL     1       1.108   9.395  20.820  0.00  0.00    +0.000 Cl
ATOM     12  C   UNL     1       1.944   7.675  18.841  0.00  0.00    +0.000 A 
ATOM     13  C   UNL     1       2.238   6.356  18.416  0.00  0.00    +0.000 A 
BRANCH  12  14
ATOM     14  C   UNL     1       2.132   8.779  17.833  0.00  0.00    +0.000 C 
ATOM     15  F   UNL     1       2.760   9.900  18.272  0.00  0.00    +0.000 F 
ATOM     16  F   UNL     1       2.863   8.359  16.756  0.00  0.00    +0.000 F 
ATOM     17  F   UNL     1       0.944   9.207  17.318  0.00  0.00    +0.000 F 
ENDBRANCH  12  14
ENDBRANCH   6   7
BRANCH   5  18
ATOM     18  C   UNL     1       4.954   4.334  17.639  0.00  0.00    +0.000 A 
ATOM     19  C   UNL     1       5.814   4.925  18.560  0.00  0.00    +0.000 A 
ATOM     20  C   UNL     1       6.920   5.623  18.072  0.00  0.00    +0.000 A 
ATOM     21  C   UNL     1       7.144   5.693  16.697  0.00  0.00    +0.000 A 
ATOM     22  C   UNL     1       6.226   5.096  15.858  0.00  0.00    +0.000 A 
ATOM     23  N   UNL     1       5.133   4.442  16.300  0.00  0.00    +0.000 NA
BRANCH  20  24
ATOM     24  C   UNL     1       7.934   6.242  18.960  0.00  0.00    +0.000 C 
ATOM     25  O   UNL     1       8.439   7.323  18.724  0.00  0.00    +0.000 OA
BRANCH  24  26
ATOM     26  O   UNL     1       8.222   5.524  20.065  0.00  0.00    +0.000 OA
ATOM     27  H   UNL     1       7.540   5.524  20.760  0.00  0.00    +0.000 HD
ENDBRANCH  24  26
ENDBRANCH  20  24
ENDBRANCH   5  18
TORSDOF 5
ENDMDL
MODEL 4
REMARK VINA RESULT:      -8.0      2.416      3.043
REMARK  Name = 
REMARK  6 active torsions:
REMARK  status: ('A' for Active; 'I' for Inactive)
REMARK    1  A    between atoms: C_1  and  N_2
REMARK    2  A    between atoms: C_5  and  C_6
REMARK    3  A    between atoms: C_8  and  C_9
REMARK    4  A    between atoms: C_9  and  O_11
REMARK    5  A    between atoms: C_15  and  C_16
REMARK    6  A    between atoms: C_21  and  C_22
REMARK                            x       y       z     vdW  Elec       q    Type
REMARK                         _______ _______ _______ _____ _____    ______ ____
ROOT
ATOM      1  C   UNL     1       0.592   2.600  19.170  0.00  0.00    +0.000 C 
ATOM      2  N   UNL     1       1.918   2.812  18.639  0.00  0.00    +0.000 N 
ATOM      3  C   UNL     1       2.614   1.837  17.979  0.00  0.00    +0.000 A 
ATOM      4  N   UNL     1       3.753   2.279  17.513  0.00  0.00    +0.000 NA
ATOM      5  C   UNL     1       3.824   3.596  17.923  0.00  0.00    +0.000 A 
ATOM      6  C   UNL     1       2.669   3.981  18.621  0.00  0.00    +0.000 A 
ENDROOT
BRANCH   6   7
ATOM      7  C   UNL     1       2.249   5.284  19.186  0.00  0.00    +0.000 A 
ATOM      8  C   UNL     1       1.989   5.457  20.547  0.00  0.00    +0.000 A 
ATOM      9  C   UNL     1       1.606   6.701  21.058  0.00  0.00    +0.000 A 
ATOM     10  C   UNL     1       1.556   7.828  20.236  0.00  0.00    +0.000 A 
ATOM     11 CL   UNL     1       1.116   9.313  20.995  0.00  0.00    +0.000 Cl
ATOM     12  C   UNL     1       1.862   7.714  18.882  0.00  0.00    +0.000 A 
ATOM     13  C   UNL     1       2.147   6.424  18.371  0.00  0.00    +0.000 A 
BRANCH  12  14
ATOM     14  C   UNL     1       1.982   8.873  17.927  0.00  0.00    +0.000 C 
ATOM     15  F   UNL     1       2.662   8.641  16.775  0.00  0.00    +0.000 F 
ATOM     16  F   UNL     1       0.756   9.331  17.533  0.00  0.00    +0.000 F 
ATOM     17  F   UNL     1       2.600   9.945  18.502  0.00  0.00    +0.000 F 
ENDBRANCH  12  14
ENDBRANCH   6   7
BRANCH   5  18
ATOM     18  C   UNL     1       4.981   4.424  17.588  0.00  0.00    +0.000 A 
ATOM     19  C   UNL     1       5.857   4.832  18.590  0.00  0.00    +0.000 A 
ATOM     20  C   UNL     1       7.001   5.538  18.214  0.00  0.00    +0.000 A 
ATOM     21  C   UNL     1       7.245   5.796  16.865  0.00  0.00    +0.000 A 
ATOM     22  C   UNL     1       6.310   5.373  15.944  0.00  0.00    +0.000 A 
ATOM     23  N   UNL     1       5.181   4.717  16.280  0.00  0.00    +0.000 NA
BRANCH  20  24
ATOM     24  C   UNL     1       8.033   5.971  19.187  0.00  0.00    +0.000 C 
ATOM     25  O   UNL     1       8.433   5.251  20.082  0.00  0.00    +0.000 OA
BRANCH  24  26
ATOM     26  O   UNL     1       8.513   7.214  18.977  0.00  0.00    +0.000 OA
ATOM     27  H   UNL     1       7.849   7.895  18.766  0.00  0.00    +0.000 HD
ENDBRANCH  24  26
ENDBRANCH  20  24
ENDBRANCH   5  18
TORSDOF 5
ENDMDL
MODEL 5
REMARK VINA RESULT:      -8.0      1.929      2.411
REMARK  Name = 
REMARK  6 active torsions:
REMARK  status: ('A' for Active; 'I' for Inactive)
REMARK    1  A    between atoms: C_1  and  N_2
REMARK    2  A    between atoms: C_5  and  C_6
REMARK    3  A    between atoms: C_8  and  C_9
REMARK    4  A    between atoms: C_9  and  O_11
REMARK    5  A    between atoms: C_15  and  C_16
REMARK    6  A    between atoms: C_21  and  C_22
REMARK                            x       y       z     vdW  Elec       q    Type
REMARK                         _______ _______ _______ _____ _____    ______ ____
ROOT
ATOM      1  C   UNL     1       0.854   2.415  19.652  0.00  0.00    +0.000 C 
ATOM      2  N   UNL     1       2.148   2.608  19.041  0.00  0.00    +0.000 N 
ATOM      3  C   UNL     1       2.852   1.588  18.464  0.00  0.00    +0.000 A 
ATOM      4  N   UNL     1       3.954   2.011  17.900  0.00  0.00    +0.000 NA
ATOM      5  C   UNL     1       3.992   3.368  18.157  0.00  0.00    +0.000 A 
ATOM      6  C   UNL     1       2.854   3.791  18.860  0.00  0.00    +0.000 A 
ENDROOT
BRANCH   6   7
ATOM      7  C   UNL     1       2.409   5.135  19.294  0.00  0.00    +0.000 A 
ATOM      8  C   UNL     1       2.053   5.412  20.616  0.00  0.00    +0.000 A 
ATOM      9  C   UNL     1       1.648   6.693  21.004  0.00  0.00    +0.000 A 
ATOM     10  C   UNL     1       1.671   7.756  20.099  0.00  0.00    +0.000 A 
ATOM     11 CL   UNL     1       1.194   9.295  20.711  0.00  0.00    +0.000 Cl
ATOM     12  C   UNL     1       2.072   7.538  18.783  0.00  0.00    +0.000 A 
ATOM     13  C   UNL     1       2.379   6.212  18.391  0.00  0.00    +0.000 A 
BRANCH  12  14
ATOM     14  C   UNL     1       2.275   8.622  17.756  0.00  0.00    +0.000 C 
ATOM     15  F   UNL     1       1.153   9.150  17.203  0.00  0.00    +0.000 F 
ATOM     16  F   UNL     1       2.954   9.689  18.275  0.00  0.00    +0.000 F 
ATOM     17  F   UNL     1       3.029   8.192  16.704  0.00  0.00    +0.000 F 
ENDBRANCH  12  14
ENDBRANCH   6   7
BRANCH   5  18
ATOM     18  C   UNL     1       5.103   4.190  17.681  0.00  0.00    +0.000 A 
ATOM     19  C   UNL     1       5.530   4.083  16.360  0.00  0.00    +0.000 A 
ATOM     20  C   UNL     1       6.529   4.954  15.921  0.00  0.00    +0.000 A 
ATOM     21  C   UNL     1       7.051   5.908  16.795  0.00  0.00    +0.000 A 
ATOM     22  C   UNL     1       6.583   5.925  18.092  0.00  0.00    +0.000 A 
ATOM     23  N   UNL     1       5.642   5.076  18.553  0.00  0.00    +0.000 NA
BRANCH  20  24
ATOM     24  C   UNL     1       7.020   4.971  14.522  0.00  0.00    +0.000 C 
ATOM     25  O   UNL     1       7.989   5.619  14.175  0.00  0.00    +0.000 OA
BRANCH  24  26
ATOM     26  O   UNL     1       6.324   4.183  13.676  0.00  0.00    +0.000 OA
ATOM     27  H   UNL     1       6.846   3.739  12.984  0.00  0.00    +0.000 HD
ENDBRANCH  24  26
ENDBRANCH  20  24
ENDBRANCH   5  18
TORSDOF 5
ENDMDL
MODEL 6
REMARK VINA RESULT:      -8.0      1.563      2.044
REMARK  Name = 
REMARK  6 active torsions:
REMARK  status: ('A' for Active; 'I' for Inactive)
REMARK    1  A    between atoms: C_1  and  N_2
REMARK    2  A    between atoms: C_5  and  C_6
REMARK    3  A    between atoms: C_8  and  C_9
REMARK    4  A    between atoms: C_9  and  O_11
REMARK    5  A    between atoms: C_15  and  C_16
REMARK    6  A    between atoms: C_21  and  C_22
REMARK                            x       y       z     vdW  Elec       q    Type
REMARK                         _______ _______ _______ _____ _____    ______ ____
ROOT
ATOM      1  C   UNL     1       0.776   3.954  20.368  0.00  0.00    +0.000 C 
ATOM      2  N   UNL     1       2.054   3.825  19.707  0.00  0.00    +0.000 N 
ATOM      3  C   UNL     1       2.686   2.622  19.551  0.00  0.00    +0.000 A 
ATOM      4  N   UNL     1       3.784   2.734  18.848  0.00  0.00    +0.000 NA
ATOM      5  C   UNL     1       3.895   4.082  18.565  0.00  0.00    +0.000 A 
ATOM      6  C   UNL     1       2.806   4.806  19.073  0.00  0.00    +0.000 A 
ENDROOT
BRANCH   6   7
ATOM      7  C   UNL     1       2.442   6.237  18.967  0.00  0.00    +0.000 A 
ATOM      8  C   UNL     1       2.420   6.913  17.745  0.00  0.00    +0.000 A 
ATOM      9  C   UNL     1       2.061   8.262  17.669  0.00  0.00    +0.000 A 
ATOM     10  C   UNL     1       1.629   8.953  18.804  0.00  0.00    +0.000 A 
ATOM     11 CL   UNL     1       1.168  10.597  18.572  0.00  0.00    +0.000 Cl
ATOM     12  C   UNL     1       1.581   8.303  20.035  0.00  0.00    +0.000 A 
ATOM     13  C   UNL     1       2.048   6.967  20.102  0.00  0.00    +0.000 A 
BRANCH  12  14
ATOM     14  C   UNL     1       1.003   8.892  21.295  0.00  0.00    +0.000 C 
ATOM     15  F   UNL     1       1.468   8.389  22.468  0.00  0.00    +0.000 F 
ATOM     16  F   UNL     1       1.225  10.239  21.371  0.00  0.00    +0.000 F 
ATOM     17  F   UNL     1      -0.352   8.746  21.351  0.00  0.00    +0.000 F 
ENDBRANCH  12  14
ENDBRANCH   6   7
BRANCH   5  18
ATOM     18  C   UNL     1       5.024   4.594  17.791  0.00  0.00    +0.000 A 
ATOM     19  C   UNL     1       5.736   5.700  18.246  0.00  0.00    +0.000 A 
ATOM     20  C   UNL     1       6.865   6.096  17.527  0.00  0.00    +0.000 A 
ATOM     21  C   UNL     1       7.258   5.373  16.401  0.00  0.00    +0.000 A 
ATOM     22  C   UNL     1       6.479   4.304  16.010  0.00  0.00    +0.000 A 
ATOM     23  N   UNL     1       5.367   3.918  16.667  0.00  0.00    +0.000 NA
BRANCH  20  24
ATOM     24  C   UNL     1       7.732   7.222  17.951  0.00  0.00    +0.000 C 
ATOM     25  O   UNL     1       8.489   7.145  18.900  0.00  0.00    +0.000 OA
BRANCH  24  26
ATOM     26  O   UNL     1       7.635   8.323  17.178  0.00  0.00    +0.000 OA
ATOM     27  H   UNL     1       6.982   8.986  17.464  0.00  0.00    +0.000 HD
ENDBRANCH  24  26
ENDBRANCH  20  24
ENDBRANCH   5  18
TORSDOF 5
ENDMDL
MODEL 7
REMARK VINA RESULT:      -7.8      1.804      2.307
REMARK  Name = 
REMARK  6 active torsions:
REMARK  status: ('A' for Active; 'I' for Inactive)
REMARK    1  A    between atoms: C_1  and  N_2
REMARK    2  A    between atoms: C_5  and  C_6
REMARK    3  A    between atoms: C_8  and  C_9
REMARK    4  A    between atoms: C_9  and  O_11
REMARK    5  A    between atoms: C_15  and  C_16
REMARK    6  A    between atoms: C_21  and  C_22
REMARK                            x       y       z     vdW  Elec       q    Type
REMARK                         _______ _______ _______ _____ _____    ______ ____
ROOT
ATOM      1  C   UNL     1       0.609   2.775  20.188  0.00  0.00    +0.000 C 
ATOM      2  N   UNL     1       1.973   2.880  19.724  0.00  0.00    +0.000 N 
ATOM      3  C   UNL     1       2.711   1.792  19.348  0.00  0.00    +0.000 A 
ATOM      4  N   UNL     1       3.884   2.135  18.882  0.00  0.00    +0.000 NA
ATOM      5  C   UNL     1       3.931   3.510  18.998  0.00  0.00    +0.000 A 
ATOM      6  C   UNL     1       2.730   4.025  19.507  0.00  0.00    +0.000 A 
ENDROOT
BRANCH   6   7
ATOM      7  C   UNL     1       2.276   5.415  19.740  0.00  0.00    +0.000 A 
ATOM      8  C   UNL     1       1.840   5.857  20.991  0.00  0.00    +0.000 A 
ATOM      9  C   UNL     1       1.427   7.179  21.188  0.00  0.00    +0.000 A 
ATOM     10  C   UNL     1       1.520   8.119  20.161  0.00  0.00    +0.000 A 
ATOM     11 CL   UNL     1       1.026   9.726  20.543  0.00  0.00    +0.000 Cl
ATOM     12  C   UNL     1       2.002   7.736  18.911  0.00  0.00    +0.000 A 
ATOM     13  C   UNL     1       2.316   6.370  18.709  0.00  0.00    +0.000 A 
BRANCH  12  14
ATOM     14  C   UNL     1       2.284   8.681  17.772  0.00  0.00    +0.000 C 
ATOM     15  F   UNL     1       2.881   9.857  18.093  0.00  0.00    +0.000 F 
ATOM     16  F   UNL     1       3.098   8.111  16.834  0.00  0.00    +0.000 F 
ATOM     17  F   UNL     1       1.146   9.024  17.101  0.00  0.00    +0.000 F 
ENDBRANCH  12  14
ENDBRANCH   6   7
BRANCH   5  18
ATOM     18  C   UNL     1       5.116   4.258  18.578  0.00  0.00    +0.000 A 
ATOM     19  C   UNL     1       5.345   4.494  17.226  0.00  0.00    +0.000 A 
ATOM     20  C   UNL     1       6.434   5.294  16.875  0.00  0.00    +0.000 A 
ATOM     21  C   UNL     1       7.239   5.845  17.871  0.00  0.00    +0.000 A 
ATOM     22  C   UNL     1       6.950   5.538  19.184  0.00  0.00    +0.000 A 
ATOM     23  N   UNL     1       5.924   4.743  19.551  0.00  0.00    +0.000 NA
BRANCH  20  24
ATOM     24  C   UNL     1       6.740   5.660  15.471  0.00  0.00    +0.000 C 
ATOM     25  O   UNL     1       7.790   5.367  14.931  0.00  0.00    +0.000 OA
BRANCH  24  26
ATOM     26  O   UNL     1       5.746   6.313  14.834  0.00  0.00    +0.000 OA
ATOM     27  H   UNL     1       4.869   6.261  15.253  0.00  0.00    +0.000 HD
ENDBRANCH  24  26
ENDBRANCH  20  24
ENDBRANCH   5  18
TORSDOF 5
ENDMDL
MODEL 8
REMARK VINA RESULT:      -7.8      1.740      2.144
REMARK  Name = 
REMARK  6 active torsions:
REMARK  status: ('A' for Active; 'I' for Inactive)
REMARK    1  A    between atoms: C_1  and  N_2
REMARK    2  A    between atoms: C_5  and  C_6
REMARK    3  A    between atoms: C_8  and  C_9
REMARK    4  A    between atoms: C_9  and  O_11
REMARK    5  A    between atoms: C_15  and  C_16
REMARK    6  A    between atoms: C_21  and  C_22
REMARK                            x       y       z     vdW  Elec       q    Type
REMARK                         _______ _______ _______ _____ _____    ______ ____
ROOT
ATOM      1  C   UNL     1       0.299   3.703  19.923  0.00  0.00    +0.000 C 
ATOM      2  N   UNL     1       1.664   3.523  19.486  0.00  0.00    +0.000 N 
ATOM      3  C   UNL     1       2.238   2.290  19.345  0.00  0.00    +0.000 A 
ATOM      4  N   UNL     1       3.448   2.368  18.855  0.00  0.00    +0.000 NA
ATOM      5  C   UNL     1       3.692   3.719  18.707  0.00  0.00    +0.000 A 
ATOM      6  C   UNL     1       2.577   4.487  19.075  0.00  0.00    +0.000 A 
ENDROOT
BRANCH   6   7
ATOM      7  C   UNL     1       2.327   5.945  19.025  0.00  0.00    +0.000 A 
ATOM      8  C   UNL     1       2.514   6.694  17.862  0.00  0.00    +0.000 A 
ATOM      9  C   UNL     1       2.259   8.069  17.836  0.00  0.00    +0.000 A 
ATOM     10  C   UNL     1       1.727   8.719  18.952  0.00  0.00    +0.000 A 
ATOM     11 CL   UNL     1       1.413  10.406  18.780  0.00  0.00    +0.000 Cl
ATOM     12  C   UNL     1       1.473   8.001  20.118  0.00  0.00    +0.000 A 
ATOM     13  C   UNL     1       1.836   6.632  20.149  0.00  0.00    +0.000 A 
BRANCH  12  14
ATOM     14  C   UNL     1       0.773   8.553  21.332  0.00  0.00    +0.000 C 
ATOM     15  F   UNL     1       0.295   9.820  21.232  0.00  0.00    +0.000 F 
ATOM     16  F   UNL     1      -0.307   7.791  21.682  0.00  0.00    +0.000 F 
ATOM     17  F   UNL     1       1.583   8.557  22.430  0.00  0.00    +0.000 F 
ENDBRANCH  12  14
ENDBRANCH   6   7
BRANCH   5  18
ATOM     18  C   UNL     1       4.971   4.197  18.185  0.00  0.00    +0.000 A 
ATOM     19  C   UNL     1       5.875   4.831  19.033  0.00  0.00    +0.000 A 
ATOM     20  C   UNL     1       7.123   5.184  18.516  0.00  0.00    +0.000 A 
ATOM     21  C   UNL     1       7.436   4.879  17.191  0.00  0.00    +0.000 A 
ATOM     22  C   UNL     1       6.470   4.270  16.419  0.00  0.00    +0.000 A 
ATOM     23  N   UNL     1       5.246   3.946  16.882  0.00  0.00    +0.000 NA
BRANCH  20  24
ATOM     24  C   UNL     1       8.185   5.809  19.340  0.00  0.00    +0.000 C 
ATOM     25  O   UNL     1       8.755   5.215  20.236  0.00  0.00    +0.000 OA
BRANCH  24  26
ATOM     26  O   UNL     1       8.489   7.077  18.992  0.00  0.00    +0.000 OA
ATOM     27  H   UNL     1       7.731   7.666  18.832  0.00  0.00    +0.000 HD
ENDBRANCH  24  26
ENDBRANCH  20  24
ENDBRANCH   5  18
TORSDOF 5
ENDMDL
MODEL 9
REMARK VINA RESULT:      -7.7      4.593      6.420
REMARK  Name = 
REMARK  6 active torsions:
REMARK  status: ('A' for Active; 'I' for Inactive)
REMARK    1  A    between atoms: C_1  and  N_2
REMARK    2  A    between atoms: C_5  and  C_6
REMARK    3  A    between atoms: C_8  and  C_9
REMARK    4  A    between atoms: C_9  and  O_11
REMARK    5  A    between atoms: C_15  and  C_16
REMARK    6  A    between atoms: C_21  and  C_22
REMARK                            x       y       z     vdW  Elec       q    Type
REMARK                         _______ _______ _______ _____ _____    ______ ____
ROOT
ATOM      1  C   UNL     1       3.175   1.151  19.039  0.00  0.00    +0.000 C 
ATOM      2  N   UNL     1       2.541   2.407  19.362  0.00  0.00    +0.000 N 
ATOM      3  C   UNL     1       1.464   2.497  20.200  0.00  0.00    +0.000 A 
ATOM      4  N   UNL     1       1.114   3.739  20.415  0.00  0.00    +0.000 NA
ATOM      5  C   UNL     1       1.978   4.495  19.647  0.00  0.00    +0.000 A 
ATOM      6  C   UNL     1       2.914   3.691  18.981  0.00  0.00    +0.000 A 
ENDROOT
BRANCH   6   7
ATOM      7  C   UNL     1       4.065   4.032  18.115  0.00  0.00    +0.000 A 
ATOM      8  C   UNL     1       3.984   4.007  16.721  0.00  0.00    +0.000 A 
ATOM      9  C   UNL     1       5.082   4.346  15.925  0.00  0.00    +0.000 A 
ATOM     10  C   UNL     1       6.270   4.804  16.501  0.00  0.00    +0.000 A 
ATOM     11 CL   UNL     1       7.535   5.235  15.412  0.00  0.00    +0.000 Cl
ATOM     12  C   UNL     1       6.378   4.898  17.886  0.00  0.00    +0.000 A 
ATOM     13  C   UNL     1       5.286   4.451  18.671  0.00  0.00    +0.000 A 
BRANCH  12  14
ATOM     14  C   UNL     1       7.546   5.506  18.618  0.00  0.00    +0.000 C 
ATOM     15  F   UNL     1       7.979   6.712  18.170  0.00  0.00    +0.000 F 
ATOM     16  F   UNL     1       7.267   5.696  19.943  0.00  0.00    +0.000 F 
ATOM     17  F   UNL     1       8.642   4.695  18.593  0.00  0.00    +0.000 F 
ENDBRANCH  12  14
ENDBRANCH   6   7
BRANCH   5  18
ATOM     18  C   UNL     1       1.879   5.954  19.626  0.00  0.00    +0.000 A 
ATOM     19  C   UNL     1       1.415   6.636  20.747  0.00  0.00    +0.000 A 
ATOM     20  C   UNL     1       1.429   8.032  20.718  0.00  0.00    +0.000 A 
ATOM     21  C   UNL     1       1.918   8.697  19.595  0.00  0.00    +0.000 A 
ATOM     22  C   UNL     1       2.336   7.939  18.521  0.00  0.00    +0.000 A 
ATOM     23  N   UNL     1       2.305   6.591  18.508  0.00  0.00    +0.000 NA
BRANCH  20  24
ATOM     24  C   UNL     1       1.014   8.861  21.875  0.00  0.00    +0.000 C 
ATOM     25  O   UNL     1       1.814   9.398  22.617  0.00  0.00    +0.000 OA
BRANCH  24  26
ATOM     26  O   UNL     1      -0.321   8.998  22.014  0.00  0.00    +0.000 OA
ATOM     27  H   UNL     1      -0.859   8.689  21.264  0.00  0.00    +0.000 HD
ENDBRANCH  24  26
ENDBRANCH  20  24
ENDBRANCH   5  18
TORSDOF 5
ENDMDL
