MODEL 1
REMARK VINA RESULT:      -6.9      0.000      0.000
REMARK  Name = 
REMARK  8 active torsions:
REMARK  status: ('A' for Active; 'I' for Inactive)
REMARK    1  A    between atoms: C_1  and  C_2
REMARK    2  A    between atoms: C_2  and  C_3
REMARK    3  A    between atoms: C_2  and  C_4
REMARK    4  A    between atoms: C_2  and  O_5
REMARK    5  A    between atoms: O_5  and  C_6
REMARK    6  A    between atoms: N_8  and  C_9
REMARK    7  A    between atoms: C_16  and  C_17
REMARK    8  A    between atoms: C_17  and  O_19
REMARK                            x       y       z     vdW  Elec       q    Type
REMARK                         _______ _______ _______ _____ _____    ______ ____
ROOT
ATOM      1  C   UNL     1       5.038   3.610  17.623  0.00  0.00    +0.000 C 
ATOM      2  C   UNL     1       4.753   3.643  16.121  0.00  0.00    +0.000 C 
ATOM      3  C   UNL     1       5.941   4.010  15.238  0.00  0.00    +0.000 C 
ATOM      4  C   UNL     1       6.372   5.474  15.192  0.00  0.00    +0.000 C 
ATOM      5  C   UNL     1       5.258   6.505  15.331  0.00  0.00    +0.000 C 
ATOM      6  C   UNL     1       5.016   7.063  16.735  0.00  0.00    +0.000 C 
ATOM      7  C   UNL     1       4.546   6.136  17.860  0.00  0.00    +0.000 C 
ATOM      8  C   UNL     1       5.406   4.944  18.324  0.00  0.00    +0.000 C 
ENDROOT
BRANCH   1  11
ATOM      9  C   UNL     1       3.998   2.463  19.553  0.00  0.00    +0.000 C 
ATOM     10  O   UNL     1       5.079   2.386  20.124  0.00  0.00    +0.000 OA
ATOM     11  N   UNL     1       3.881   3.005  18.298  0.00  0.00    +0.000 N 
ATOM     12  H   UNL     1       2.935   3.179  17.979  0.00  0.00    +0.000 HD
BRANCH   9  13
ATOM     13  O   UNL     1       2.788   2.098  20.032  0.00  0.00    +0.000 OA
BRANCH  13  15
ATOM     14  C   UNL     1       0.676   3.277  19.575  0.00  0.00    +0.000 C 
ATOM     15  C   UNL     1       1.876   3.124  20.518  0.00  0.00    +0.000 C 
ATOM     16  C   UNL     1       2.616   4.447  20.747  0.00  0.00    +0.000 C 
ATOM     17  C   UNL     1       1.341   2.641  21.880  0.00  0.00    +0.000 C 
ENDBRANCH  13  15
ENDBRANCH   9  13
ENDBRANCH   1  11
BRANCH   8  18
ATOM     18  C   UNL     1       6.905   5.203  18.456  0.00  0.00    +0.000 C 
ATOM     19  O   UNL     1       7.406   6.219  18.911  0.00  0.00    +0.000 OA
BRANCH  18  20
ATOM     20  O   UNL     1       7.679   4.143  18.124  0.00  0.00    +0.000 OA
ATOM     21  H   UNL     1       7.311   3.263  18.351  0.00  0.00    +0.000 HD
ENDBRANCH  18  20
ENDBRANCH   8  18
TORSDOF 5
ENDMDL
MODEL 2
REMARK VINA RESULT:      -6.6      0.969      1.328
REMARK  Name = 
REMARK  8 active torsions:
REMARK  status: ('A' for Active; 'I' for Inactive)
REMARK    1  A    between atoms: C_1  and  C_2
REMARK    2  A    between atoms: C_2  and  C_3
REMARK    3  A    between atoms: C_2  and  C_4
REMARK    4  A    between atoms: C_2  and  O_5
REMARK    5  A    between atoms: O_5  and  C_6
REMARK    6  A    between atoms: N_8  and  C_9
REMARK    7  A    between atoms: C_16  and  C_17
REMARK    8  A    between atoms: C_17  and  O_19
REMARK                            x       y       z     vdW  Elec       q    Type
REMARK                         _______ _______ _______ _____ _____    ______ ____
ROOT
ATOM      1  C   UNL     1       5.235   4.234  18.286  0.00  0.00    +0.000 C 
ATOM      2  C   UNL     1       4.703   3.670  16.968  0.00  0.00    +0.000 C 
ATOM      3  C   UNL     1       5.747   3.464  15.876  0.00  0.00    +0.000 C 
ATOM      4  C   UNL     1       6.265   4.699  15.142  0.00  0.00    +0.000 C 
ATOM      5  C   UNL     1       5.266   5.834  14.952  0.00  0.00    +0.000 C 
ATOM      6  C   UNL     1       5.305   6.958  15.988  0.00  0.00    +0.000 C 
ATOM      7  C   UNL     1       4.968   6.666  17.454  0.00  0.00    +0.000 C 
ATOM      8  C   UNL     1       5.809   5.675  18.283  0.00  0.00    +0.000 C 
ENDROOT
BRANCH   1  11
ATOM      9  C   UNL     1       4.105   3.065  20.153  0.00  0.00    +0.000 C 
ATOM     10  O   UNL     1       4.878   2.118  20.062  0.00  0.00    +0.000 OA
ATOM     11  N   UNL     1       4.169   4.133  19.294  0.00  0.00    +0.000 N 
ATOM     12  H   UNL     1       3.607   4.938  19.548  0.00  0.00    +0.000 HD
BRANCH   9  13
ATOM     13  O   UNL     1       3.140   3.252  21.080  0.00  0.00    +0.000 OA
BRANCH  13  15
ATOM     14  C   UNL     1       1.056   2.272  21.947  0.00  0.00    +0.000 C 
ATOM     15  C   UNL     1       1.762   2.919  20.749  0.00  0.00    +0.000 C 
ATOM     16  C   UNL     1       1.698   2.048  19.490  0.00  0.00    +0.000 C 
ATOM     17  C   UNL     1       1.040   4.246  20.443  0.00  0.00    +0.000 C 
ENDBRANCH  13  15
ENDBRANCH   9  13
ENDBRANCH   1  11
BRANCH   8  18
ATOM     18  C   UNL     1       7.323   5.757  18.104  0.00  0.00    +0.000 C 
ATOM     19  O   UNL     1       7.958   6.789  17.950  0.00  0.00    +0.000 OA
BRANCH  18  20
ATOM     20  O   UNL     1       7.960   4.571  18.241  0.00  0.00    +0.000 OA
ATOM     21  H   UNL     1       8.868   4.533  17.870  0.00  0.00    +0.000 HD
ENDBRANCH  18  20
ENDBRANCH   8  18
TORSDOF 5
ENDMDL
MODEL 3
REMARK VINA RESULT:      -6.6      0.911      1.165
REMARK  Name = 
REMARK  8 active torsions:
REMARK  status: ('A' for Active; 'I' for Inactive)
REMARK    1  A    between atoms: C_1  and  C_2
REMARK    2  A    between atoms: C_2  and  C_3
REMARK    3  A    between atoms: C_2  and  C_4
REMARK    4  A    between atoms: C_2  and  O_5
REMARK    5  A    between atoms: O_5  and  C_6
REMARK    6  A    between atoms: N_8  and  C_9
REMARK    7  A    between atoms: C_16  and  C_17
REMARK    8  A    between atoms: C_17  and  O_19
REMARK                            x       y       z     vdW  Elec       q    Type
REMARK                         _______ _______ _______ _____ _____    ______ ____
ROOT
ATOM      1  C   UNL     1       5.253   4.090  18.278  0.00  0.00    +0.000 C 
ATOM      2  C   UNL     1       4.642   3.671  16.940  0.00  0.00    +0.000 C 
ATOM      3  C   UNL     1       5.634   3.494  15.796  0.00  0.00    +0.000 C 
ATOM      4  C   UNL     1       6.205   4.752  15.145  0.00  0.00    +0.000 C 
ATOM      5  C   UNL     1       5.275   5.958  15.086  0.00  0.00    +0.000 C 
ATOM      6  C   UNL     1       5.420   6.987  16.207  0.00  0.00    +0.000 C 
ATOM      7  C   UNL     1       5.114   6.594  17.656  0.00  0.00    +0.000 C 
ATOM      8  C   UNL     1       5.917   5.489  18.369  0.00  0.00    +0.000 C 
ENDROOT
BRANCH   1  11
ATOM      9  C   UNL     1       4.150   2.866  20.125  0.00  0.00    +0.000 C 
ATOM     10  O   UNL     1       4.892   1.905  19.966  0.00  0.00    +0.000 OA
ATOM     11  N   UNL     1       4.216   3.971  19.314  0.00  0.00    +0.000 N 
ATOM     12  H   UNL     1       3.686   4.777  19.622  0.00  0.00    +0.000 HD
BRANCH   9  13
ATOM     13  O   UNL     1       3.220   3.035  21.091  0.00  0.00    +0.000 OA
BRANCH  13  15
ATOM     14  C   UNL     1       1.585   2.096  19.508  0.00  0.00    +0.000 C 
ATOM     15  C   UNL     1       1.809   2.988  20.736  0.00  0.00    +0.000 C 
ATOM     16  C   UNL     1       1.247   4.401  20.544  0.00  0.00    +0.000 C 
ATOM     17  C   UNL     1       1.068   2.343  21.924  0.00  0.00    +0.000 C 
ENDBRANCH  13  15
ENDBRANCH   9  13
ENDBRANCH   1  11
BRANCH   8  18
ATOM     18  C   UNL     1       7.427   5.493  18.140  0.00  0.00    +0.000 C 
ATOM     19  O   UNL     1       8.082   4.540  17.750  0.00  0.00    +0.000 OA
BRANCH  18  20
ATOM     20  O   UNL     1       8.005   6.707  18.297  0.00  0.00    +0.000 OA
ATOM     21  H   UNL     1       7.728   7.394  17.653  0.00  0.00    +0.000 HD
ENDBRANCH  18  20
ENDBRANCH   8  18
TORSDOF 5
ENDMDL
MODEL 4
REMARK VINA RESULT:      -6.5      1.877      5.852
REMARK  Name = 
REMARK  8 active torsions:
REMARK  status: ('A' for Active; 'I' for Inactive)
REMARK    1  A    between atoms: C_1  and  C_2
REMARK    2  A    between atoms: C_2  and  C_3
REMARK    3  A    between atoms: C_2  and  C_4
REMARK    4  A    between atoms: C_2  and  O_5
REMARK    5  A    between atoms: O_5  and  C_6
REMARK    6  A    between atoms: N_8  and  C_9
REMARK    7  A    between atoms: C_16  and  C_17
REMARK    8  A    between atoms: C_17  and  O_19
REMARK                            x       y       z     vdW  Elec       q    Type
REMARK                         _______ _______ _______ _____ _____    ______ ____
ROOT
ATOM      1  C   UNL     1       4.005   4.821  17.878  0.00  0.00    +0.000 C 
ATOM      2  C   UNL     1       2.647   5.488  18.101  0.00  0.00    +0.000 C 
ATOM      3  C   UNL     1       2.208   5.605  19.556  0.00  0.00    +0.000 C 
ATOM      4  C   UNL     1       1.707   4.343  20.255  0.00  0.00    +0.000 C 
ATOM      5  C   UNL     1       0.965   3.341  19.378  0.00  0.00    +0.000 C 
ATOM      6  C   UNL     1       1.793   2.186  18.813  0.00  0.00    +0.000 C 
ATOM      7  C   UNL     1       2.940   2.467  17.836  0.00  0.00    +0.000 C 
ATOM      8  C   UNL     1       4.151   3.323  18.254  0.00  0.00    +0.000 C 
ENDROOT
BRANCH   1  11
ATOM      9  C   UNL     1       5.313   5.958  16.111  0.00  0.00    +0.000 C 
ATOM     10  O   UNL     1       5.794   6.732  16.930  0.00  0.00    +0.000 OA
ATOM     11  N   UNL     1       4.386   5.012  16.471  0.00  0.00    +0.000 N 
ATOM     12  H   UNL     1       4.173   4.314  15.768  0.00  0.00    +0.000 HD
BRANCH   9  13
ATOM     13  O   UNL     1       5.613   5.860  14.797  0.00  0.00    +0.000 OA
BRANCH  13  15
ATOM     14  C   UNL     1       5.659   3.820  13.421  0.00  0.00    +0.000 C 
ATOM     15  C   UNL     1       6.450   4.761  14.338  0.00  0.00    +0.000 C 
ATOM     16  C   UNL     1       7.086   4.027  15.525  0.00  0.00    +0.000 C 
ATOM     17  C   UNL     1       7.588   5.381  13.503  0.00  0.00    +0.000 C 
ENDBRANCH  13  15
ENDBRANCH   9  13
ENDBRANCH   1  11
BRANCH   8  18
ATOM     18  C   UNL     1       4.710   3.068  19.652  0.00  0.00    +0.000 C 
ATOM     19  O   UNL     1       4.699   1.992  20.228  0.00  0.00    +0.000 OA
BRANCH  18  20
ATOM     20  O   UNL     1       5.346   4.133  20.194  0.00  0.00    +0.000 OA
ATOM     21  H   UNL     1       5.113   5.005  19.811  0.00  0.00    +0.000 HD
ENDBRANCH  18  20
ENDBRANCH   8  18
TORSDOF 5
ENDMDL
MODEL 5
REMARK VINA RESULT:      -6.5      1.502      5.799
REMARK  Name = 
REMARK  8 active torsions:
REMARK  status: ('A' for Active; 'I' for Inactive)
REMARK    1  A    between atoms: C_1  and  C_2
REMARK    2  A    between atoms: C_2  and  C_3
REMARK    3  A    between atoms: C_2  and  C_4
REMARK    4  A    between atoms: C_2  and  O_5
REMARK    5  A    between atoms: O_5  and  C_6
REMARK    6  A    between atoms: N_8  and  C_9
REMARK    7  A    between atoms: C_16  and  C_17
REMARK    8  A    between atoms: C_17  and  O_19
REMARK                            x       y       z     vdW  Elec       q    Type
REMARK                         _______ _______ _______ _____ _____    ______ ____
ROOT
ATOM      1  C   UNL     1       4.278   3.760  18.629  0.00  0.00    +0.000 C 
ATOM      2  C   UNL     1       3.378   4.996  18.677  0.00  0.00    +0.000 C 
ATOM      3  C   UNL     1       3.033   5.499  20.075  0.00  0.00    +0.000 C 
ATOM      4  C   UNL     1       2.002   4.714  20.882  0.00  0.00    +0.000 C 
ATOM      5  C   UNL     1       0.887   4.050  20.081  0.00  0.00    +0.000 C 
ATOM      6  C   UNL     1       1.093   2.579  19.715  0.00  0.00    +0.000 C 
ATOM      7  C   UNL     1       2.247   2.170  18.794  0.00  0.00    +0.000 C 
ATOM      8  C   UNL     1       3.714   2.428  19.189  0.00  0.00    +0.000 C 
ENDROOT
BRANCH   1  11
ATOM      9  C   UNL     1       5.963   3.951  16.827  0.00  0.00    +0.000 C 
ATOM     10  O   UNL     1       6.730   4.550  17.572  0.00  0.00    +0.000 OA
ATOM     11  N   UNL     1       4.714   3.562  17.239  0.00  0.00    +0.000 N 
ATOM     12  H   UNL     1       4.221   2.932  16.618  0.00  0.00    +0.000 HD
BRANCH   9  13
ATOM     13  O   UNL     1       6.199   3.544  15.561  0.00  0.00    +0.000 OA
BRANCH  13  15
ATOM     14  C   UNL     1       5.289   5.743  14.934  0.00  0.00    +0.000 C 
ATOM     15  C   UNL     1       6.043   4.492  14.467  0.00  0.00    +0.000 C 
ATOM     16  C   UNL     1       5.380   3.825  13.257  0.00  0.00    +0.000 C 
ATOM     17  C   UNL     1       7.460   4.930  14.047  0.00  0.00    +0.000 C 
ENDBRANCH  13  15
ENDBRANCH   9  13
ENDBRANCH   1  11
BRANCH   8  18
ATOM     18  C   UNL     1       4.083   2.141  20.643  0.00  0.00    +0.000 C 
ATOM     19  O   UNL     1       3.328   2.253  21.596  0.00  0.00    +0.000 OA
BRANCH  18  20
ATOM     20  O   UNL     1       5.324   1.625  20.806  0.00  0.00    +0.000 OA
ATOM     21  H   UNL     1       5.424   0.986  21.543  0.00  0.00    +0.000 HD
ENDBRANCH  18  20
ENDBRANCH   8  18
TORSDOF 5
ENDMDL
MODEL 6
REMARK VINA RESULT:      -6.5      1.862      5.864
REMARK  Name = 
REMARK  8 active torsions:
REMARK  status: ('A' for Active; 'I' for Inactive)
REMARK    1  A    between atoms: C_1  and  C_2
REMARK    2  A    between atoms: C_2  and  C_3
REMARK    3  A    between atoms: C_2  and  C_4
REMARK    4  A    between atoms: C_2  and  O_5
REMARK    5  A    between atoms: O_5  and  C_6
REMARK    6  A    between atoms: N_8  and  C_9
REMARK    7  A    between atoms: C_16  and  C_17
REMARK    8  A    between atoms: C_17  and  O_19
REMARK                            x       y       z     vdW  Elec       q    Type
REMARK                         _______ _______ _______ _____ _____    ______ ____
ROOT
ATOM      1  C   UNL     1       3.972   4.816  17.902  0.00  0.00    +0.000 C 
ATOM      2  C   UNL     1       2.637   5.527  18.122  0.00  0.00    +0.000 C 
ATOM      3  C   UNL     1       2.189   5.640  19.576  0.00  0.00    +0.000 C 
ATOM      4  C   UNL     1       1.637   4.387  20.252  0.00  0.00    +0.000 C 
ATOM      5  C   UNL     1       0.868   3.424  19.355  0.00  0.00    +0.000 C 
ATOM      6  C   UNL     1       1.659   2.248  18.780  0.00  0.00    +0.000 C 
ATOM      7  C   UNL     1       2.824   2.502  17.818  0.00  0.00    +0.000 C 
ATOM      8  C   UNL     1       4.062   3.309  18.257  0.00  0.00    +0.000 C 
ENDROOT
BRANCH   1  11
ATOM      9  C   UNL     1       5.302   5.962  16.157  0.00  0.00    +0.000 C 
ATOM     10  O   UNL     1       5.770   6.734  16.985  0.00  0.00    +0.000 OA
ATOM     11  N   UNL     1       4.373   5.013  16.501  0.00  0.00    +0.000 N 
ATOM     12  H   UNL     1       4.170   4.317  15.793  0.00  0.00    +0.000 HD
BRANCH   9  13
ATOM     13  O   UNL     1       5.621   5.870  14.848  0.00  0.00    +0.000 OA
BRANCH  13  15
ATOM     14  C   UNL     1       7.115   4.070  15.615  0.00  0.00    +0.000 C 
ATOM     15  C   UNL     1       6.552   4.839  14.413  0.00  0.00    +0.000 C 
ATOM     16  C   UNL     1       7.654   5.437  13.531  0.00  0.00    +0.000 C 
ATOM     17  C   UNL     1       5.750   3.842  13.554  0.00  0.00    +0.000 C 
ENDBRANCH  13  15
ENDBRANCH   9  13
ENDBRANCH   1  11
BRANCH   8  18
ATOM     18  C   UNL     1       4.598   3.015  19.656  0.00  0.00    +0.000 C 
ATOM     19  O   UNL     1       4.468   1.957  20.252  0.00  0.00    +0.000 OA
BRANCH  18  20
ATOM     20  O   UNL     1       5.357   4.008  20.176  0.00  0.00    +0.000 OA
ATOM     21  H   UNL     1       4.937   4.894  20.199  0.00  0.00    +0.000 HD
ENDBRANCH  18  20
ENDBRANCH   8  18
TORSDOF 5
ENDMDL
MODEL 7
REMARK VINA RESULT:      -6.4      1.323      5.611
REMARK  Name = 
REMARK  8 active torsions:
REMARK  status: ('A' for Active; 'I' for Inactive)
REMARK    1  A    between atoms: C_1  and  C_2
REMARK    2  A    between atoms: C_2  and  C_3
REMARK    3  A    between atoms: C_2  and  C_4
REMARK    4  A    between atoms: C_2  and  O_5
REMARK    5  A    between atoms: O_5  and  C_6
REMARK    6  A    between atoms: N_8  and  C_9
REMARK    7  A    between atoms: C_16  and  C_17
REMARK    8  A    between atoms: C_17  and  O_19
REMARK                            x       y       z     vdW  Elec       q    Type
REMARK                         _______ _______ _______ _____ _____    ______ ____
ROOT
ATOM      1  C   UNL     1       4.164   4.644  19.402  0.00  0.00    +0.000 C 
ATOM      2  C   UNL     1       2.835   5.363  19.636  0.00  0.00    +0.000 C 
ATOM      3  C   UNL     1       2.077   4.944  20.890  0.00  0.00    +0.000 C 
ATOM      4  C   UNL     1       1.350   3.600  20.870  0.00  0.00    +0.000 C 
ATOM      5  C   UNL     1       0.774   3.170  19.526  0.00  0.00    +0.000 C 
ATOM      6  C   UNL     1       1.638   2.233  18.681  0.00  0.00    +0.000 C 
ATOM      7  C   UNL     1       2.996   2.707  18.153  0.00  0.00    +0.000 C 
ATOM      8  C   UNL     1       4.127   3.120  19.115  0.00  0.00    +0.000 C 
ENDROOT
BRANCH   1  11
ATOM      9  C   UNL     1       6.212   5.119  18.097  0.00  0.00    +0.000 C 
ATOM     10  O   UNL     1       6.884   4.420  18.846  0.00  0.00    +0.000 OA
ATOM     11  N   UNL     1       4.874   5.331  18.313  0.00  0.00    +0.000 N 
ATOM     12  H   UNL     1       4.370   5.779  17.557  0.00  0.00    +0.000 HD
BRANCH   9  13
ATOM     13  O   UNL     1       6.618   5.735  16.965  0.00  0.00    +0.000 OA
BRANCH  13  15
ATOM     14  C   UNL     1       5.709   3.742  15.843  0.00  0.00    +0.000 C 
ATOM     15  C   UNL     1       6.259   5.165  15.675  0.00  0.00    +0.000 C 
ATOM     16  C   UNL     1       7.443   5.224  14.703  0.00  0.00    +0.000 C 
ATOM     17  C   UNL     1       5.129   6.038  15.096  0.00  0.00    +0.000 C 
ENDBRANCH  13  15
ENDBRANCH   9  13
ENDBRANCH   1  11
BRANCH   8  18
ATOM     18  C   UNL     1       4.328   2.235  20.342  0.00  0.00    +0.000 C 
ATOM     19  O   UNL     1       3.678   2.304  21.374  0.00  0.00    +0.000 OA
BRANCH  18  20
ATOM     20  O   UNL     1       5.240   1.250  20.169  0.00  0.00    +0.000 OA
ATOM     21  H   UNL     1       5.405   0.683  20.953  0.00  0.00    +0.000 HD
ENDBRANCH  18  20
ENDBRANCH   8  18
TORSDOF 5
ENDMDL
MODEL 8
REMARK VINA RESULT:      -6.4      0.889      1.223
REMARK  Name = 
REMARK  8 active torsions:
REMARK  status: ('A' for Active; 'I' for Inactive)
REMARK    1  A    between atoms: C_1  and  C_2
REMARK    2  A    between atoms: C_2  and  C_3
REMARK    3  A    between atoms: C_2  and  C_4
REMARK    4  A    between atoms: C_2  and  O_5
REMARK    5  A    between atoms: O_5  and  C_6
REMARK    6  A    between atoms: N_8  and  C_9
REMARK    7  A    between atoms: C_16  and  C_17
REMARK    8  A    between atoms: C_17  and  O_19
REMARK                            x       y       z     vdW  Elec       q    Type
REMARK                         _______ _______ _______ _____ _____    ______ ____
ROOT
ATOM      1  C   UNL     1       5.299   4.123  18.389  0.00  0.00    +0.000 C 
ATOM      2  C   UNL     1       4.718   3.670  17.048  0.00  0.00    +0.000 C 
ATOM      3  C   UNL     1       5.721   3.565  15.905  0.00  0.00    +0.000 C 
ATOM      4  C   UNL     1       6.209   4.860  15.260  0.00  0.00    +0.000 C 
ATOM      5  C   UNL     1       5.200   6.003  15.205  0.00  0.00    +0.000 C 
ATOM      6  C   UNL     1       5.276   7.034  16.331  0.00  0.00    +0.000 C 
ATOM      7  C   UNL     1       4.995   6.615  17.778  0.00  0.00    +0.000 C 
ATOM      8  C   UNL     1       5.869   5.562  18.487  0.00  0.00    +0.000 C 
ENDROOT
BRANCH   1  11
ATOM      9  C   UNL     1       4.212   2.772  20.155  0.00  0.00    +0.000 C 
ATOM     10  O   UNL     1       4.952   1.824  19.922  0.00  0.00    +0.000 OA
ATOM     11  N   UNL     1       4.271   3.931  19.423  0.00  0.00    +0.000 N 
ATOM     12  H   UNL     1       3.744   4.713  19.792  0.00  0.00    +0.000 HD
BRANCH   9  13
ATOM     13  O   UNL     1       3.290   2.872  21.138  0.00  0.00    +0.000 OA
BRANCH  13  15
ATOM     14  C   UNL     1       1.498   4.405  20.433  0.00  0.00    +0.000 C 
ATOM     15  C   UNL     1       1.880   2.962  20.786  0.00  0.00    +0.000 C 
ATOM     16  C   UNL     1       1.002   2.377  21.899  0.00  0.00    +0.000 C 
ATOM     17  C   UNL     1       1.677   2.101  19.524  0.00  0.00    +0.000 C 
ENDBRANCH  13  15
ENDBRANCH   9  13
ENDBRANCH   1  11
BRANCH   8  18
ATOM     18  C   UNL     1       7.375   5.668  18.260  0.00  0.00    +0.000 C 
ATOM     19  O   UNL     1       8.005   6.712  18.198  0.00  0.00    +0.000 OA
BRANCH  18  20
ATOM     20  O   UNL     1       8.015   4.476  18.239  0.00  0.00    +0.000 OA
ATOM     21  H   UNL     1       8.995   4.521  18.245  0.00  0.00    +0.000 HD
ENDBRANCH  18  20
ENDBRANCH   8  18
TORSDOF 5
ENDMDL
MODEL 9
REMARK VINA RESULT:      -6.3      1.330      5.590
REMARK  Name = 
REMARK  8 active torsions:
REMARK  status: ('A' for Active; 'I' for Inactive)
REMARK    1  A    between atoms: C_1  and  C_2
REMARK    2  A    between atoms: C_2  and  C_3
REMARK    3  A    between atoms: C_2  and  C_4
REMARK    4  A    between atoms: C_2  and  O_5
REMARK    5  A    between atoms: O_5  and  C_6
REMARK    6  A    between atoms: N_8  and  C_9
REMARK    7  A    between atoms: C_16  and  C_17
REMARK    8  A    between atoms: C_17  and  O_19
REMARK                            x       y       z     vdW  Elec       q    Type
REMARK                         _______ _______ _______ _____ _____    ______ ____
ROOT
ATOM      1  C   UNL     1       4.221   4.651  19.374  0.00  0.00    +0.000 C 
ATOM      2  C   UNL     1       2.904   5.388  19.621  0.00  0.00    +0.000 C 
ATOM      3  C   UNL     1       2.144   4.966  20.873  0.00  0.00    +0.000 C 
ATOM      4  C   UNL     1       1.395   3.635  20.840  0.00  0.00    +0.000 C 
ATOM      5  C   UNL     1       0.808   3.230  19.493  0.00  0.00    +0.000 C 
ATOM      6  C   UNL     1       1.655   2.289  18.634  0.00  0.00    +0.000 C 
ATOM      7  C   UNL     1       3.018   2.747  18.106  0.00  0.00    +0.000 C 
ATOM      8  C   UNL     1       4.158   3.131  19.069  0.00  0.00    +0.000 C 
ENDROOT
BRANCH   1  11
ATOM      9  C   UNL     1       6.276   5.122  18.078  0.00  0.00    +0.000 C 
ATOM     10  O   UNL     1       6.941   4.417  18.827  0.00  0.00    +0.000 OA
ATOM     11  N   UNL     1       4.938   5.339  18.291  0.00  0.00    +0.000 N 
ATOM     12  H   UNL     1       4.438   5.792  17.535  0.00  0.00    +0.000 HD
BRANCH   9  13
ATOM     13  O   UNL     1       6.689   5.741  16.950  0.00  0.00    +0.000 OA
BRANCH  13  15
ATOM     14  C   UNL     1       7.444   5.176  14.677  0.00  0.00    +0.000 C 
ATOM     15  C   UNL     1       6.265   5.223  15.657  0.00  0.00    +0.000 C 
ATOM     16  C   UNL     1       5.079   6.025  15.110  0.00  0.00    +0.000 C 
ATOM     17  C   UNL     1       5.790   3.775  15.887  0.00  0.00    +0.000 C 
ENDBRANCH  13  15
ENDBRANCH   9  13
ENDBRANCH   1  11
BRANCH   8  18
ATOM     18  C   UNL     1       4.350   2.228  20.286  0.00  0.00    +0.000 C 
ATOM     19  O   UNL     1       3.727   2.317  21.332  0.00  0.00    +0.000 OA
BRANCH  18  20
ATOM     20  O   UNL     1       5.215   1.208  20.085  0.00  0.00    +0.000 OA
ATOM     21  H   UNL     1       4.999   0.611  19.337  0.00  0.00    +0.000 HD
ENDBRANCH  18  20
ENDBRANCH   8  18
TORSDOF 5
ENDMDL
