MODEL 1
REMARK VINA RESULT:      -7.8      0.000      0.000
REMARK  Name = 
REMARK  8 active torsions:
REMARK  status: ('A' for Active; 'I' for Inactive)
REMARK    1  A    between atoms: C_1  and  O_2
REMARK    2  A    between atoms: O_2  and  C_3
REMARK    3  A    between atoms: C_11  and  O_12
REMARK    4  A    between atoms: O_12  and  C_13
REMARK    5  A    between atoms: C_13  and  C_14
REMARK    6  A    between atoms: C_17  and  S_18
REMARK    7  A    between atoms: N_19  and  C_20
REMARK    8  A    between atoms: C_23  and  C_24
REMARK                            x       y       z     vdW  Elec       q    Type
REMARK                         _______ _______ _______ _____ _____    ______ ____
ROOT
ATOM      1  O   UNL     1       3.227   4.668  19.339  0.00  0.00    +0.000 OA
ENDROOT
BRANCH   1  10
ATOM      2  C   UNL     1      -0.453  11.285  22.353  0.00  0.00    +0.000 C 
ATOM      3  O   UNL     1      -0.235  10.596  23.342  0.00  0.00    +0.000 OA
ATOM      4  N   UNL     1      -0.149  11.007  21.055  0.00  0.00    +0.000 N 
ATOM      5  C   UNL     1       0.478   9.868  20.609  0.00  0.00    +0.000 A 
ATOM      6  N   UNL     1       1.059   9.796  19.437  0.00  0.00    +0.000 NA
ATOM      7  C   UNL     1       1.672   8.556  19.300  0.00  0.00    +0.000 A 
ATOM      8  C   UNL     1       2.473   8.133  18.218  0.00  0.00    +0.000 A 
ATOM      9  C   UNL     1       3.035   6.844  18.223  0.00  0.00    +0.000 A 
ATOM     10  C   UNL     1       2.792   5.967  19.279  0.00  0.00    +0.000 A 
ATOM     11  C   UNL     1       1.988   6.364  20.351  0.00  0.00    +0.000 A 
ATOM     12  C   UNL     1       1.456   7.666  20.349  0.00  0.00    +0.000 A 
ATOM     13  S   UNL     1       0.488   8.436  21.537  0.00  0.00    +0.000 S 
ATOM     14  H   UNL     1      -0.218  11.763  20.392  0.00  0.00    +0.000 HD
BRANCH   2  16
ATOM     15  C   UNL     1      -2.445  12.497  22.363  0.00  0.00    +0.000 C 
ATOM     16  O   UNL     1      -1.014  12.523  22.425  0.00  0.00    +0.000 OA
ENDBRANCH   2  16
ENDBRANCH   1  10
BRANCH   1  17
ATOM     17  C   UNL     1       4.646   4.490  19.315  0.00  0.00    +0.000 C 
BRANCH  17  18
ATOM     18  C   UNL     1       5.072   4.182  17.911  0.00  0.00    +0.000 A 
ATOM     19  N   UNL     1       4.566   3.231  17.145  0.00  0.00    +0.000 NA
ATOM     20  N   UNL     1       5.110   3.337  15.897  0.00  0.00    +0.000 NA
ATOM     21  C   UNL     1       5.950   4.341  15.910  0.00  0.00    +0.000 A 
ATOM     22  N   UNL     1       5.975   4.944  17.159  0.00  0.00    +0.000 N 
BRANCH  22  23
ATOM     23  C   UNL     1       6.712   6.091  17.586  0.00  0.00    +0.000 A 
ATOM     24  C   UNL     1       7.698   5.977  18.576  0.00  0.00    +0.000 A 
ATOM     25  C   UNL     1       8.422   7.099  18.990  0.00  0.00    +0.000 A 
ATOM     26  C   UNL     1       8.199   8.344  18.403  0.00  0.00    +0.000 A 
ATOM     27  C   UNL     1       8.985   9.550  18.824  0.00  0.00    +0.000 C 
ATOM     28  C   UNL     1       7.221   8.461  17.413  0.00  0.00    +0.000 A 
ATOM     29  C   UNL     1       6.473   7.348  17.020  0.00  0.00    +0.000 A 
ENDBRANCH  22  23
BRANCH  21  30
ATOM     30  S   UNL     1       7.006   4.686  14.577  0.00  0.00    +0.000 S 
ATOM     31  H   UNL     1       7.293   5.951  14.918  0.00  0.00    +0.000 HD
ENDBRANCH  21  30
ENDBRANCH  17  18
ENDBRANCH   1  17
TORSDOF 6
ENDMDL
MODEL 2
REMARK VINA RESULT:      -7.8      0.662      1.112
REMARK  Name = 
REMARK  8 active torsions:
REMARK  status: ('A' for Active; 'I' for Inactive)
REMARK    1  A    between atoms: C_1  and  O_2
REMARK    2  A    between atoms: O_2  and  C_3
REMARK    3  A    between atoms: C_11  and  O_12
REMARK    4  A    between atoms: O_12  and  C_13
REMARK    5  A    between atoms: C_13  and  C_14
REMARK    6  A    between atoms: C_17  and  S_18
REMARK    7  A    between atoms: N_19  and  C_20
REMARK    8  A    between atoms: C_23  and  C_24
REMARK                            x       y       z     vdW  Elec       q    Type
REMARK                         _______ _______ _______ _____ _____    ______ ____
ROOT
ATOM      1  O   UNL     1       3.073   5.248  19.377  0.00  0.00    +0.000 OA
ENDROOT
BRANCH   1  10
ATOM      2  C   UNL     1      -0.668  11.954  22.102  0.00  0.00    +0.000 C 
ATOM      3  O   UNL     1      -0.414  11.326  23.122  0.00  0.00    +0.000 OA
ATOM      4  N   UNL     1      -0.387  11.610  20.814  0.00  0.00    +0.000 N 
ATOM      5  C   UNL     1       0.252  10.459  20.419  0.00  0.00    +0.000 A 
ATOM      6  N   UNL     1       0.808  10.332  19.240  0.00  0.00    +0.000 NA
ATOM      7  C   UNL     1       1.442   9.098  19.157  0.00  0.00    +0.000 A 
ATOM      8  C   UNL     1       2.227   8.629  18.082  0.00  0.00    +0.000 A 
ATOM      9  C   UNL     1       2.815   7.354  18.146  0.00  0.00    +0.000 A 
ATOM     10  C   UNL     1       2.612   6.533  19.255  0.00  0.00    +0.000 A 
ATOM     11  C   UNL     1       1.824   6.975  20.321  0.00  0.00    +0.000 A 
ATOM     12  C   UNL     1       1.267   8.264  20.260  0.00  0.00    +0.000 A 
ATOM     13  S   UNL     1       0.310   9.082  21.424  0.00  0.00    +0.000 S 
ATOM     14  H   UNL     1      -0.486  12.326  20.113  0.00  0.00    +0.000 HD
BRANCH   2  16
ATOM     15  C   UNL     1      -1.093  13.865  23.369  0.00  0.00    +0.000 C 
ATOM     16  O   UNL     1      -1.251  13.185  22.118  0.00  0.00    +0.000 OA
ENDBRANCH   2  16
ENDBRANCH   1  10
BRANCH   1  17
ATOM     17  C   UNL     1       4.497   5.102  19.406  0.00  0.00    +0.000 C 
BRANCH  17  18
ATOM     18  C   UNL     1       4.962   4.629  18.061  0.00  0.00    +0.000 A 
ATOM     19  N   UNL     1       4.432   3.635  17.370  0.00  0.00    +0.000 NA
ATOM     20  N   UNL     1       5.033   3.582  16.145  0.00  0.00    +0.000 NA
ATOM     21  C   UNL     1       5.932   4.533  16.099  0.00  0.00    +0.000 A 
ATOM     22  N   UNL     1       5.941   5.258  17.283  0.00  0.00    +0.000 N 
BRANCH  22  23
ATOM     23  C   UNL     1       6.727   6.399  17.628  0.00  0.00    +0.000 A 
ATOM     24  C   UNL     1       6.465   7.648  17.047  0.00  0.00    +0.000 A 
ATOM     25  C   UNL     1       7.230   8.766  17.389  0.00  0.00    +0.000 A 
ATOM     26  C   UNL     1       8.248   8.667  18.338  0.00  0.00    +0.000 A 
ATOM     27  C   UNL     1       9.062   9.864  18.729  0.00  0.00    +0.000 C 
ATOM     28  C   UNL     1       8.510   7.426  18.922  0.00  0.00    +0.000 A 
ATOM     29  C   UNL     1       7.768   6.299  18.559  0.00  0.00    +0.000 A 
ENDBRANCH  22  23
BRANCH  21  30
ATOM     30  S   UNL     1       7.062   4.681  14.791  0.00  0.00    +0.000 S 
ATOM     31  H   UNL     1       7.640   3.479  14.936  0.00  0.00    +0.000 HD
ENDBRANCH  21  30
ENDBRANCH  17  18
ENDBRANCH   1  17
TORSDOF 6
ENDMDL
MODEL 3
REMARK VINA RESULT:      -7.6      3.214      9.277
REMARK  Name = 
REMARK  8 active torsions:
REMARK  status: ('A' for Active; 'I' for Inactive)
REMARK    1  A    between atoms: C_1  and  O_2
REMARK    2  A    between atoms: O_2  and  C_3
REMARK    3  A    between atoms: C_11  and  O_12
REMARK    4  A    between atoms: O_12  and  C_13
REMARK    5  A    between atoms: C_13  and  C_14
REMARK    6  A    between atoms: C_17  and  S_18
REMARK    7  A    between atoms: N_19  and  C_20
REMARK    8  A    between atoms: C_23  and  C_24
REMARK                            x       y       z     vdW  Elec       q    Type
REMARK                         _______ _______ _______ _____ _____    ______ ____
ROOT
ATOM      1  O   UNL     1       1.075   8.211  21.372  0.00  0.00    +0.000 OA
ENDROOT
BRANCH   1  10
ATOM      2  C   UNL     1       6.048   5.065  15.735  0.00  0.00    +0.000 C 
ATOM      3  O   UNL     1       6.507   6.183  15.938  0.00  0.00    +0.000 OA
ATOM      4  N   UNL     1       4.962   4.487  16.318  0.00  0.00    +0.000 N 
ATOM      5  C   UNL     1       4.161   5.073  17.270  0.00  0.00    +0.000 A 
ATOM      6  N   UNL     1       3.366   4.379  18.044  0.00  0.00    +0.000 NA
ATOM      7  C   UNL     1       2.748   5.229  18.954  0.00  0.00    +0.000 A 
ATOM      8  C   UNL     1       1.891   4.849  20.009  0.00  0.00    +0.000 A 
ATOM      9  C   UNL     1       1.344   5.828  20.856  0.00  0.00    +0.000 A 
ATOM     10  C   UNL     1       1.621   7.179  20.653  0.00  0.00    +0.000 A 
ATOM     11  C   UNL     1       2.454   7.575  19.603  0.00  0.00    +0.000 A 
ATOM     12  C   UNL     1       3.020   6.585  18.781  0.00  0.00    +0.000 A 
ATOM     13  S   UNL     1       4.103   6.766  17.464  0.00  0.00    +0.000 S 
ATOM     14  H   UNL     1       4.839   3.496  16.184  0.00  0.00    +0.000 HD
BRANCH   2  16
ATOM     15  C   UNL     1       5.854   3.930  13.708  0.00  0.00    +0.000 C 
ATOM     16  O   UNL     1       6.629   4.172  14.888  0.00  0.00    +0.000 OA
ENDBRANCH   2  16
ENDBRANCH   1  10
BRANCH   1  17
ATOM     17  C   UNL     1      -0.111   8.791  20.819  0.00  0.00    +0.000 C 
BRANCH  17  18
ATOM     18  C   UNL     1      -0.056  10.277  21.007  0.00  0.00    +0.000 A 
ATOM     19  N   UNL     1       0.624  10.909  21.948  0.00  0.00    +0.000 NA
ATOM     20  N   UNL     1       0.539  12.253  21.724  0.00  0.00    +0.000 NA
ATOM     21  C   UNL     1      -0.199  12.435  20.658  0.00  0.00    +0.000 A 
ATOM     22  N   UNL     1      -0.610  11.219  20.131  0.00  0.00    +0.000 N 
BRANCH  22  23
ATOM     23  C   UNL     1      -1.381  10.966  18.956  0.00  0.00    +0.000 A 
ATOM     24  C   UNL     1      -0.893  10.118  17.951  0.00  0.00    +0.000 A 
ATOM     25  C   UNL     1      -1.650   9.867  16.803  0.00  0.00    +0.000 A 
ATOM     26  C   UNL     1      -2.918  10.429  16.652  0.00  0.00    +0.000 A 
ATOM     27  C   UNL     1      -3.748  10.149  15.434  0.00  0.00    +0.000 C 
ATOM     28  C   UNL     1      -3.409  11.271  17.651  0.00  0.00    +0.000 A 
ATOM     29  C   UNL     1      -2.642  11.550  18.785  0.00  0.00    +0.000 A 
ENDBRANCH  22  23
BRANCH  21  30
ATOM     30  S   UNL     1      -0.724  14.009  20.149  0.00  0.00    +0.000 S 
ATOM     31  H   UNL     1      -1.452  14.300  21.238  0.00  0.00    +0.000 HD
ENDBRANCH  21  30
ENDBRANCH  17  18
ENDBRANCH   1  17
TORSDOF 6
ENDMDL
MODEL 4
REMARK VINA RESULT:      -7.6      2.499      4.074
REMARK  Name = 
REMARK  8 active torsions:
REMARK  status: ('A' for Active; 'I' for Inactive)
REMARK    1  A    between atoms: C_1  and  O_2
REMARK    2  A    between atoms: O_2  and  C_3
REMARK    3  A    between atoms: C_11  and  O_12
REMARK    4  A    between atoms: O_12  and  C_13
REMARK    5  A    between atoms: C_13  and  C_14
REMARK    6  A    between atoms: C_17  and  S_18
REMARK    7  A    between atoms: N_19  and  C_20
REMARK    8  A    between atoms: C_23  and  C_24
REMARK                            x       y       z     vdW  Elec       q    Type
REMARK                         _______ _______ _______ _____ _____    ______ ____
ROOT
ATOM      1  O   UNL     1       2.596   7.768  17.698  0.00  0.00    +0.000 OA
ENDROOT
BRANCH   1  10
ATOM      2  C   UNL     1      -1.958  12.556  22.466  0.00  0.00    +0.000 C 
ATOM      3  O   UNL     1      -2.225  12.934  21.332  0.00  0.00    +0.000 OA
ATOM      4  N   UNL     1      -1.102  11.565  22.839  0.00  0.00    +0.000 N 
ATOM      5  C   UNL     1      -0.360  10.788  21.981  0.00  0.00    +0.000 A 
ATOM      6  N   UNL     1       0.163   9.644  22.342  0.00  0.00    +0.000 NA
ATOM      7  C   UNL     1       0.784   9.052  21.248  0.00  0.00    +0.000 A 
ATOM      8  C   UNL     1       1.382   7.775  21.213  0.00  0.00    +0.000 A 
ATOM      9  C   UNL     1       1.968   7.306  20.024  0.00  0.00    +0.000 A 
ATOM     10  C   UNL     1       1.983   8.101  18.878  0.00  0.00    +0.000 A 
ATOM     11  C   UNL     1       1.409   9.375  18.900  0.00  0.00    +0.000 A 
ATOM     12  C   UNL     1       0.800   9.820  20.086  0.00  0.00    +0.000 A 
ATOM     13  S   UNL     1      -0.016  11.298  20.390  0.00  0.00    +0.000 S 
ATOM     14  H   UNL     1      -1.148  11.251  23.795  0.00  0.00    +0.000 HD
BRANCH   2  16
ATOM     15  C   UNL     1      -3.781  12.398  23.911  0.00  0.00    +0.000 C 
ATOM     16  O   UNL     1      -2.560  13.067  23.575  0.00  0.00    +0.000 OA
ENDBRANCH   2  16
ENDBRANCH   1  10
BRANCH   1  17
ATOM     17  C   UNL     1       4.021   7.898  17.683  0.00  0.00    +0.000 C 
BRANCH  17  18
ATOM     18  C   UNL     1       4.595   6.842  16.786  0.00  0.00    +0.000 A 
ATOM     19  N   UNL     1       5.436   7.054  15.789  0.00  0.00    +0.000 NA
ATOM     20  N   UNL     1       5.836   5.848  15.289  0.00  0.00    +0.000 NA
ATOM     21  C   UNL     1       5.232   4.910  15.973  0.00  0.00    +0.000 A 
ATOM     22  N   UNL     1       4.427   5.463  16.960  0.00  0.00    +0.000 N 
BRANCH  22  23
ATOM     23  C   UNL     1       3.640   4.799  17.949  0.00  0.00    +0.000 A 
ATOM     24  C   UNL     1       4.182   4.495  19.206  0.00  0.00    +0.000 A 
ATOM     25  C   UNL     1       3.410   3.851  20.177  0.00  0.00    +0.000 A 
ATOM     26  C   UNL     1       2.076   3.527  19.923  0.00  0.00    +0.000 A 
ATOM     27  C   UNL     1       1.232   2.855  20.964  0.00  0.00    +0.000 C 
ATOM     28  C   UNL     1       1.532   3.832  18.675  0.00  0.00    +0.000 A 
ATOM     29  C   UNL     1       2.310   4.447  17.691  0.00  0.00    +0.000 A 
ENDBRANCH  22  23
BRANCH  21  30
ATOM     30  S   UNL     1       5.308   3.236  15.523  0.00  0.00    +0.000 S 
ATOM     31  H   UNL     1       4.795   3.373  14.291  0.00  0.00    +0.000 HD
ENDBRANCH  21  30
ENDBRANCH  17  18
ENDBRANCH   1  17
TORSDOF 6
ENDMDL
MODEL 5
REMARK VINA RESULT:      -7.6      3.040      8.773
REMARK  Name = 
REMARK  8 active torsions:
REMARK  status: ('A' for Active; 'I' for Inactive)
REMARK    1  A    between atoms: C_1  and  O_2
REMARK    2  A    between atoms: O_2  and  C_3
REMARK    3  A    between atoms: C_11  and  O_12
REMARK    4  A    between atoms: O_12  and  C_13
REMARK    5  A    between atoms: C_13  and  C_14
REMARK    6  A    between atoms: C_17  and  S_18
REMARK    7  A    between atoms: N_19  and  C_20
REMARK    8  A    between atoms: C_23  and  C_24
REMARK                            x       y       z     vdW  Elec       q    Type
REMARK                         _______ _______ _______ _____ _____    ______ ____
ROOT
ATOM      1  O   UNL     1       0.962   7.511  21.262  0.00  0.00    +0.000 OA
ENDROOT
BRANCH   1  10
ATOM      2  C   UNL     1       6.354   5.222  15.598  0.00  0.00    +0.000 C 
ATOM      3  O   UNL     1       6.716   6.351  15.906  0.00  0.00    +0.000 OA
ATOM      4  N   UNL     1       5.298   4.517  16.091  0.00  0.00    +0.000 N 
ATOM      5  C   UNL     1       4.422   4.961  17.052  0.00  0.00    +0.000 A 
ATOM      6  N   UNL     1       3.659   4.147  17.738  0.00  0.00    +0.000 NA
ATOM      7  C   UNL     1       2.946   4.872  18.686  0.00  0.00    +0.000 A 
ATOM      8  C   UNL     1       2.087   4.342  19.674  0.00  0.00    +0.000 A 
ATOM      9  C   UNL     1       1.436   5.205  20.573  0.00  0.00    +0.000 A 
ATOM     10  C   UNL     1       1.612   6.585  20.487  0.00  0.00    +0.000 A 
ATOM     11  C   UNL     1       2.446   7.127  19.505  0.00  0.00    +0.000 A 
ATOM     12  C   UNL     1       3.115   6.253  18.631  0.00  0.00    +0.000 A 
ATOM     13  S   UNL     1       4.224   6.624  17.376  0.00  0.00    +0.000 S 
ATOM     14  H   UNL     1       5.259   3.533  15.874  0.00  0.00    +0.000 HD
BRANCH   2  16
ATOM     15  C   UNL     1       6.184   3.860  13.713  0.00  0.00    +0.000 C 
ATOM     16  O   UNL     1       7.032   4.447  14.707  0.00  0.00    +0.000 OA
ENDBRANCH   2  16
ENDBRANCH   1  10
BRANCH   1  17
ATOM     17  C   UNL     1       1.153   8.878  20.884  0.00  0.00    +0.000 C 
BRANCH  17  18
ATOM     18  C   UNL     1       0.214   9.736  21.678  0.00  0.00    +0.000 A 
ATOM     19  N   UNL     1      -0.563   9.318  22.662  0.00  0.00    +0.000 NA
ATOM     20  N   UNL     1      -1.175  10.401  23.227  0.00  0.00    +0.000 NA
ATOM     21  C   UNL     1      -0.778  11.468  22.580  0.00  0.00    +0.000 A 
ATOM     22  N   UNL     1       0.122  11.130  21.580  0.00  0.00    +0.000 N 
BRANCH  22  23
ATOM     23  C   UNL     1       0.826  11.987  20.682  0.00  0.00    +0.000 A 
ATOM     24  C   UNL     1       1.906  12.760  21.132  0.00  0.00    +0.000 A 
ATOM     25  C   UNL     1       2.599  13.596  20.251  0.00  0.00    +0.000 A 
ATOM     26  C   UNL     1       2.248  13.651  18.902  0.00  0.00    +0.000 A 
ATOM     27  C   UNL     1       2.998  14.528  17.944  0.00  0.00    +0.000 C 
ATOM     28  C   UNL     1       1.177  12.880  18.448  0.00  0.00    +0.000 A 
ATOM     29  C   UNL     1       0.461  12.068  19.333  0.00  0.00    +0.000 A 
ENDBRANCH  22  23
BRANCH  21  30
ATOM     30  S   UNL     1      -1.479  13.032  22.851  0.00  0.00    +0.000 S 
ATOM     31  H   UNL     1      -1.953  12.789  24.082  0.00  0.00    +0.000 HD
ENDBRANCH  21  30
ENDBRANCH  17  18
ENDBRANCH   1  17
TORSDOF 6
ENDMDL
MODEL 6
REMARK VINA RESULT:      -7.6      0.975      1.047
REMARK  Name = 
REMARK  8 active torsions:
REMARK  status: ('A' for Active; 'I' for Inactive)
REMARK    1  A    between atoms: C_1  and  O_2
REMARK    2  A    between atoms: O_2  and  C_3
REMARK    3  A    between atoms: C_11  and  O_12
REMARK    4  A    between atoms: O_12  and  C_13
REMARK    5  A    between atoms: C_13  and  C_14
REMARK    6  A    between atoms: C_17  and  S_18
REMARK    7  A    between atoms: N_19  and  C_20
REMARK    8  A    between atoms: C_23  and  C_24
REMARK                            x       y       z     vdW  Elec       q    Type
REMARK                         _______ _______ _______ _____ _____    ______ ____
ROOT
ATOM      1  O   UNL     1       2.658   5.521  19.690  0.00  0.00    +0.000 OA
ENDROOT
BRANCH   1  10
ATOM      2  C   UNL     1      -0.560  12.691  21.841  0.00  0.00    +0.000 C 
ATOM      3  O   UNL     1      -0.335  12.139  22.911  0.00  0.00    +0.000 OA
ATOM      4  N   UNL     1      -0.324  12.215  20.586  0.00  0.00    +0.000 N 
ATOM      5  C   UNL     1       0.226  10.991  20.289  0.00  0.00    +0.000 A 
ATOM      6  N   UNL     1       0.753  10.722  19.121  0.00  0.00    +0.000 NA
ATOM      7  C   UNL     1       1.298   9.443  19.143  0.00  0.00    +0.000 A 
ATOM      8  C   UNL     1       2.031   8.826  18.107  0.00  0.00    +0.000 A 
ATOM      9  C   UNL     1       2.528   7.523  18.279  0.00  0.00    +0.000 A 
ATOM     10  C   UNL     1       2.286   6.820  19.458  0.00  0.00    +0.000 A 
ATOM     11  C   UNL     1       1.548   7.409  20.488  0.00  0.00    +0.000 A 
ATOM     12  C   UNL     1       1.082   8.724  20.317  0.00  0.00    +0.000 A 
ATOM     13  S   UNL     1       0.203   9.708  21.413  0.00  0.00    +0.000 S 
ATOM     14  H   UNL     1      -0.384  12.872  19.825  0.00  0.00    +0.000 HD
BRANCH   2  16
ATOM     15  C   UNL     1      -2.305  14.024  21.056  0.00  0.00    +0.000 C 
ATOM     16  O   UNL     1      -1.055  13.957  21.752  0.00  0.00    +0.000 OA
ENDBRANCH   2  16
ENDBRANCH   1  10
BRANCH   1  17
ATOM     17  C   UNL     1       4.068   5.280  19.733  0.00  0.00    +0.000 C 
BRANCH  17  18
ATOM     18  C   UNL     1       4.483   4.605  18.460  0.00  0.00    +0.000 A 
ATOM     19  N   UNL     1       3.887   3.559  17.914  0.00  0.00    +0.000 NA
ATOM     20  N   UNL     1       4.463   3.309  16.702  0.00  0.00    +0.000 NA
ATOM     21  C   UNL     1       5.412   4.193  16.519  0.00  0.00    +0.000 A 
ATOM     22  N   UNL     1       5.481   5.068  17.594  0.00  0.00    +0.000 N 
BRANCH  22  23
ATOM     23  C   UNL     1       6.335   6.198  17.775  0.00  0.00    +0.000 A 
ATOM     24  C   UNL     1       7.493   6.099  18.559  0.00  0.00    +0.000 A 
ATOM     25  C   UNL     1       8.332   7.204  18.731  0.00  0.00    +0.000 A 
ATOM     26  C   UNL     1       8.048   8.416  18.101  0.00  0.00    +0.000 A 
ATOM     27  C   UNL     1       8.951   9.602  18.262  0.00  0.00    +0.000 C 
ATOM     28  C   UNL     1       6.897   8.518  17.316  0.00  0.00    +0.000 A 
ATOM     29  C   UNL     1       6.040   7.425  17.168  0.00  0.00    +0.000 A 
ENDBRANCH  22  23
BRANCH  21  30
ATOM     30  S   UNL     1       6.525   4.100  15.192  0.00  0.00    +0.000 S 
ATOM     31  H   UNL     1       5.841   4.885  14.347  0.00  0.00    +0.000 HD
ENDBRANCH  21  30
ENDBRANCH  17  18
ENDBRANCH   1  17
TORSDOF 6
ENDMDL
MODEL 7
REMARK VINA RESULT:      -7.5      3.652      4.879
REMARK  Name = 
REMARK  8 active torsions:
REMARK  status: ('A' for Active; 'I' for Inactive)
REMARK    1  A    between atoms: C_1  and  O_2
REMARK    2  A    between atoms: O_2  and  C_3
REMARK    3  A    between atoms: C_11  and  O_12
REMARK    4  A    between atoms: O_12  and  C_13
REMARK    5  A    between atoms: C_13  and  C_14
REMARK    6  A    between atoms: C_17  and  S_18
REMARK    7  A    between atoms: N_19  and  C_20
REMARK    8  A    between atoms: C_23  and  C_24
REMARK                            x       y       z     vdW  Elec       q    Type
REMARK                         _______ _______ _______ _____ _____    ______ ____
ROOT
ATOM      1  O   UNL     1       2.344   8.395  19.802  0.00  0.00    +0.000 OA
ENDROOT
BRANCH   1  10
ATOM      2  C   UNL     1      -4.543  11.688  16.950  0.00  0.00    +0.000 C 
ATOM      3  O   UNL     1      -4.315  10.768  16.173  0.00  0.00    +0.000 OA
ATOM      4  N   UNL     1      -3.814  12.066  18.036  0.00  0.00    +0.000 N 
ATOM      5  C   UNL     1      -2.656  11.465  18.468  0.00  0.00    +0.000 A 
ATOM      6  N   UNL     1      -2.192  11.623  19.682  0.00  0.00    +0.000 NA
ATOM      7  C   UNL     1      -1.059  10.834  19.851  0.00  0.00    +0.000 A 
ATOM      8  C   UNL     1      -0.328  10.663  21.046  0.00  0.00    +0.000 A 
ATOM      9  C   UNL     1       0.799   9.822  21.064  0.00  0.00    +0.000 A 
ATOM     10  C   UNL     1       1.217   9.169  19.905  0.00  0.00    +0.000 A 
ATOM     11  C   UNL     1       0.514   9.341  18.710  0.00  0.00    +0.000 A 
ATOM     12  C   UNL     1      -0.629  10.160  18.711  0.00  0.00    +0.000 A 
ATOM     13  S   UNL     1      -1.704  10.513  17.422  0.00  0.00    +0.000 S 
ATOM     14  H   UNL     1      -4.245  12.713  18.678  0.00  0.00    +0.000 HD
BRANCH   2  16
ATOM     15  C   UNL     1      -6.125  12.923  18.136  0.00  0.00    +0.000 C 
ATOM     16  O   UNL     1      -5.654  12.470  16.862  0.00  0.00    +0.000 OA
ENDBRANCH   2  16
ENDBRANCH   1  10
BRANCH   1  17
ATOM     17  C   UNL     1       2.266   7.312  18.870  0.00  0.00    +0.000 C 
BRANCH  17  18
ATOM     18  C   UNL     1       2.427   6.020  19.614  0.00  0.00    +0.000 A 
ATOM     19  N   UNL     1       1.683   5.622  20.632  0.00  0.00    +0.000 NA
ATOM     20  N   UNL     1       2.039   4.346  20.962  0.00  0.00    +0.000 NA
ATOM     21  C   UNL     1       3.002   3.977  20.155  0.00  0.00    +0.000 A 
ATOM     22  N   UNL     1       3.301   4.988  19.252  0.00  0.00    +0.000 N 
BRANCH  22  23
ATOM     23  C   UNL     1       4.244   4.982  18.181  0.00  0.00    +0.000 A 
ATOM     24  C   UNL     1       5.496   5.597  18.329  0.00  0.00    +0.000 A 
ATOM     25  C   UNL     1       6.421   5.587  17.281  0.00  0.00    +0.000 A 
ATOM     26  C   UNL     1       6.129   4.937  16.082  0.00  0.00    +0.000 A 
ATOM     27  C   UNL     1       7.123   4.901  14.960  0.00  0.00    +0.000 C 
ATOM     28  C   UNL     1       4.886   4.319  15.932  0.00  0.00    +0.000 A 
ATOM     29  C   UNL     1       3.946   4.355  16.965  0.00  0.00    +0.000 A 
ENDBRANCH  22  23
BRANCH  21  30
ATOM     30  S   UNL     1       3.879   2.496  20.371  0.00  0.00    +0.000 S 
ATOM     31  H   UNL     1       2.814   1.693  20.516  0.00  0.00    +0.000 HD
ENDBRANCH  21  30
ENDBRANCH  17  18
ENDBRANCH   1  17
TORSDOF 6
ENDMDL
MODEL 8
REMARK VINA RESULT:      -7.4      3.136      9.467
REMARK  Name = 
REMARK  8 active torsions:
REMARK  status: ('A' for Active; 'I' for Inactive)
REMARK    1  A    between atoms: C_1  and  O_2
REMARK    2  A    between atoms: O_2  and  C_3
REMARK    3  A    between atoms: C_11  and  O_12
REMARK    4  A    between atoms: O_12  and  C_13
REMARK    5  A    between atoms: C_13  and  C_14
REMARK    6  A    between atoms: C_17  and  S_18
REMARK    7  A    between atoms: N_19  and  C_20
REMARK    8  A    between atoms: C_23  and  C_24
REMARK                            x       y       z     vdW  Elec       q    Type
REMARK                         _______ _______ _______ _____ _____    ______ ____
ROOT
ATOM      1  O   UNL     1       1.372   8.764  21.001  0.00  0.00    +0.000 OA
ENDROOT
BRANCH   1  10
ATOM      2  C   UNL     1       5.857   4.646  15.586  0.00  0.00    +0.000 C 
ATOM      3  O   UNL     1       6.386   5.751  15.624  0.00  0.00    +0.000 OA
ATOM      4  N   UNL     1       4.775   4.212  16.289  0.00  0.00    +0.000 N 
ATOM      5  C   UNL     1       4.059   4.959  17.194  0.00  0.00    +0.000 A 
ATOM      6  N   UNL     1       3.270   4.416  18.087  0.00  0.00    +0.000 NA
ATOM      7  C   UNL     1       2.749   5.409  18.908  0.00  0.00    +0.000 A 
ATOM      8  C   UNL     1       1.931   5.215  20.042  0.00  0.00    +0.000 A 
ATOM      9  C   UNL     1       1.484   6.324  20.782  0.00  0.00    +0.000 A 
ATOM     10  C   UNL     1       1.822   7.620  20.395  0.00  0.00    +0.000 A 
ATOM     11  C   UNL     1       2.617   7.831  19.265  0.00  0.00    +0.000 A 
ATOM     12  C   UNL     1       3.084   6.713  18.551  0.00  0.00    +0.000 A 
ATOM     13  S   UNL     1       4.103   6.664  17.172  0.00  0.00    +0.000 S 
ATOM     14  H   UNL     1       4.591   3.221  16.288  0.00  0.00    +0.000 HD
BRANCH   2  16
ATOM     15  C   UNL     1       6.127   3.803  13.429  0.00  0.00    +0.000 C 
ATOM     16  O   UNL     1       6.343   3.621  14.833  0.00  0.00    +0.000 OA
ENDBRANCH   2  16
ENDBRANCH   1  10
BRANCH   1  17
ATOM     17  C   UNL     1      -0.027   8.797  21.301  0.00  0.00    +0.000 C 
BRANCH  17  18
ATOM     18  C   UNL     1      -0.397  10.182  21.738  0.00  0.00    +0.000 A 
ATOM     19  N   UNL     1      -0.085  10.730  22.900  0.00  0.00    +0.000 NA
ATOM     20  N   UNL     1      -0.477  12.038  22.887  0.00  0.00    +0.000 NA
ATOM     21  C   UNL     1      -1.034  12.278  21.727  0.00  0.00    +0.000 A 
ATOM     22  N   UNL     1      -1.012  11.144  20.927  0.00  0.00    +0.000 N 
BRANCH  22  23
ATOM     23  C   UNL     1      -1.467  10.986  19.583  0.00  0.00    +0.000 A 
ATOM     24  C   UNL     1      -2.681  11.553  19.171  0.00  0.00    +0.000 A 
ATOM     25  C   UNL     1      -3.125  11.404  17.854  0.00  0.00    +0.000 A 
ATOM     26  C   UNL     1      -2.352  10.715  16.918  0.00  0.00    +0.000 A 
ATOM     27  C   UNL     1      -2.808  10.566  15.498  0.00  0.00    +0.000 C 
ATOM     28  C   UNL     1      -1.140  10.153  17.324  0.00  0.00    +0.000 A 
ATOM     29  C   UNL     1      -0.709  10.273  18.648  0.00  0.00    +0.000 A 
ENDBRANCH  22  23
BRANCH  21  30
ATOM     30  S   UNL     1      -1.852  13.768  21.379  0.00  0.00    +0.000 S 
ATOM     31  H   UNL     1      -1.687  14.332  22.585  0.00  0.00    +0.000 HD
ENDBRANCH  21  30
ENDBRANCH  17  18
ENDBRANCH   1  17
TORSDOF 6
ENDMDL
MODEL 9
REMARK VINA RESULT:      -7.4      2.675      3.699
REMARK  Name = 
REMARK  8 active torsions:
REMARK  status: ('A' for Active; 'I' for Inactive)
REMARK    1  A    between atoms: C_1  and  O_2
REMARK    2  A    between atoms: O_2  and  C_3
REMARK    3  A    between atoms: C_11  and  O_12
REMARK    4  A    between atoms: O_12  and  C_13
REMARK    5  A    between atoms: C_13  and  C_14
REMARK    6  A    between atoms: C_17  and  S_18
REMARK    7  A    between atoms: N_19  and  C_20
REMARK    8  A    between atoms: C_23  and  C_24
REMARK                            x       y       z     vdW  Elec       q    Type
REMARK                         _______ _______ _______ _____ _____    ______ ____
ROOT
ATOM      1  O   UNL     1       2.674   6.758  19.736  0.00  0.00    +0.000 OA
ENDROOT
BRANCH   1  10
ATOM      2  C   UNL     1      -1.543  13.223  22.348  0.00  0.00    +0.000 C 
ATOM      3  O   UNL     1      -1.029  12.777  23.368  0.00  0.00    +0.000 OA
ATOM      4  N   UNL     1      -1.431  12.747  21.077  0.00  0.00    +0.000 N 
ATOM      5  C   UNL     1      -0.698  11.647  20.700  0.00  0.00    +0.000 A 
ATOM      6  N   UNL     1      -0.334  11.436  19.460  0.00  0.00    +0.000 NA
ATOM      7  C   UNL     1       0.459  10.296  19.398  0.00  0.00    +0.000 A 
ATOM      8  C   UNL     1       1.117   9.793  18.255  0.00  0.00    +0.000 A 
ATOM      9  C   UNL     1       1.895   8.626  18.350  0.00  0.00    +0.000 A 
ATOM     10  C   UNL     1       2.008   7.943  19.560  0.00  0.00    +0.000 A 
ATOM     11  C   UNL     1       1.350   8.418  20.698  0.00  0.00    +0.000 A 
ATOM     12  C   UNL     1       0.600   9.603  20.599  0.00  0.00    +0.000 A 
ATOM     13  S   UNL     1      -0.263  10.439  21.823  0.00  0.00    +0.000 S 
ATOM     14  H   UNL     1      -1.754  13.342  20.331  0.00  0.00    +0.000 HD
BRANCH   2  16
ATOM     15  C   UNL     1      -2.767  14.733  23.636  0.00  0.00    +0.000 C 
ATOM     16  O   UNL     1      -2.297  14.357  22.336  0.00  0.00    +0.000 OA
ENDBRANCH   2  16
ENDBRANCH   1  10
BRANCH   1  17
ATOM     17  C   UNL     1       1.974   5.585  19.310  0.00  0.00    +0.000 C 
BRANCH  17  18
ATOM     18  C   UNL     1       2.532   4.397  20.035  0.00  0.00    +0.000 A 
ATOM     19  N   UNL     1       1.983   3.809  21.083  0.00  0.00    +0.000 NA
ATOM     20  N   UNL     1       2.705   2.689  21.385  0.00  0.00    +0.000 NA
ATOM     21  C   UNL     1       3.693   2.607  20.530  0.00  0.00    +0.000 A 
ATOM     22  N   UNL     1       3.647   3.656  19.624  0.00  0.00    +0.000 N 
BRANCH  22  23
ATOM     23  C   UNL     1       4.501   3.915  18.508  0.00  0.00    +0.000 A 
ATOM     24  C   UNL     1       4.118   3.533  17.214  0.00  0.00    +0.000 A 
ATOM     25  C   UNL     1       4.951   3.791  16.122  0.00  0.00    +0.000 A 
ATOM     26  C   UNL     1       6.163   4.460  16.295  0.00  0.00    +0.000 A 
ATOM     27  C   UNL     1       7.055   4.761  15.128  0.00  0.00    +0.000 C 
ATOM     28  C   UNL     1       6.545   4.846  17.582  0.00  0.00    +0.000 A 
ATOM     29  C   UNL     1       5.730   4.561  18.680  0.00  0.00    +0.000 A 
ENDBRANCH  22  23
BRANCH  21  30
ATOM     30  S   UNL     1       4.967   1.440  20.693  0.00  0.00    +0.000 S 
ATOM     31  H   UNL     1       4.195   0.344  20.635  0.00  0.00    +0.000 HD
ENDBRANCH  21  30
ENDBRANCH  17  18
ENDBRANCH   1  17
TORSDOF 6
ENDMDL
