MODEL 1
REMARK VINA RESULT:      -6.9      0.000      0.000
REMARK  Name = 
REMARK  11 active torsions:
REMARK  status: ('A' for Active; 'I' for Inactive)
REMARK    1  A    between atoms: C_1  and  C_2
REMARK    2  A    between atoms: C_2  and  N_3
REMARK    3  A    between atoms: N_3  and  C_4
REMARK    4  A    between atoms: N_3  and  C_6
REMARK    5  A    between atoms: C_4  and  C_5
REMARK    6  A    between atoms: C_9  and  N_10
REMARK    7  A    between atoms: C_11  and  C_13
REMARK    8  A    between atoms: C_13  and  N_14
REMARK    9  A    between atoms: N_14  and  C_15
REMARK   10  A    between atoms: C_15  and  C_16
REMARK   11  A    between atoms: C_23  and  C_24
REMARK                            x       y       z     vdW  Elec       q    Type
REMARK                         _______ _______ _______ _____ _____    ______ ____
ROOT
ATOM      1  N   UNL     1       2.788   5.751  20.077  0.00  0.00    +0.000 N 
ATOM      2  C   UNL     1       2.302   4.550  19.596  0.00  0.00    +0.000 C 
ATOM      3  O   UNL     1       1.425   4.414  18.746  0.00  0.00    +0.000 OA
ATOM      4  H   UNL     1       3.675   5.682  20.568  0.00  0.00    +0.000 HD
ENDROOT
BRANCH   1   8
ATOM      5  C   UNL     1       1.017   9.592  19.417  0.00  0.00    +0.000 A 
ATOM      6  C   UNL     1       0.805   8.833  20.571  0.00  0.00    +0.000 A 
ATOM      7  C   UNL     1       1.422   7.580  20.761  0.00  0.00    +0.000 A 
ATOM      8  C   UNL     1       2.291   7.034  19.809  0.00  0.00    +0.000 A 
ATOM      9  C   UNL     1       2.535   7.756  18.643  0.00  0.00    +0.000 A 
ATOM     10  C   UNL     1       3.253   7.243  17.423  0.00  0.00    +0.000 C 
ATOM     11  C   UNL     1       1.948   9.038  18.514  0.00  0.00    +0.000 A 
BRANCH   5  12
ATOM     12  N   UNL     1       0.358  10.797  19.150  0.00  0.00    +0.000 N 
BRANCH  12  14
ATOM     13  C   UNL     1       0.345  13.256  18.498  0.00  0.00    +0.000 C 
ATOM     14  C   UNL     1       1.033  12.117  19.216  0.00  0.00    +0.000 C 
ENDBRANCH  12  14
BRANCH  12  15
ATOM     15  C   UNL     1      -1.104  10.779  18.878  0.00  0.00    +0.000 C 
ATOM     16  C   UNL     1      -1.520  10.068  17.599  0.00  0.00    +0.000 C 
ENDBRANCH  12  15
ENDBRANCH   5  12
ENDBRANCH   1   8
BRANCH   2  17
ATOM     17  C   UNL     1       3.051   3.335  20.176  0.00  0.00    +0.000 C 
BRANCH  17  18
ATOM     18  N   UNL     1       4.494   3.350  19.823  0.00  0.00    +0.000 NA
ATOM     19  H   UNL     1       4.926   4.151  20.284  0.00  0.00    +0.000 HD
BRANCH  18  20
ATOM     20  C   UNL     1       4.649   3.520  18.371  0.00  0.00    +0.000 C 
BRANCH  20  21
ATOM     21  C   UNL     1       5.701   4.537  18.008  0.00  0.00    +0.000 A 
ATOM     22  C   UNL     1       6.398   5.182  19.048  0.00  0.00    +0.000 A 
ATOM     23  C   UNL     1       7.308   6.205  18.774  0.00  0.00    +0.000 A 
ATOM     24  C   UNL     1       7.550   6.587  17.460  0.00  0.00    +0.000 A 
ATOM     25  C   UNL     1       6.896   5.936  16.414  0.00  0.00    +0.000 A 
ATOM     26  C   UNL     1       5.979   4.913  16.684  0.00  0.00    +0.000 A 
ATOM     27 CL   UNL     1       5.198   4.172  15.331  0.00  0.00    +0.000 Cl
ENDBRANCH  20  21
ENDBRANCH  18  20
ENDBRANCH  17  18
ENDBRANCH   2  17
TORSDOF 8
ENDMDL
MODEL 2
REMARK VINA RESULT:      -6.8      5.031      7.804
REMARK  Name = 
REMARK  11 active torsions:
REMARK  status: ('A' for Active; 'I' for Inactive)
REMARK    1  A    between atoms: C_1  and  C_2
REMARK    2  A    between atoms: C_2  and  N_3
REMARK    3  A    between atoms: N_3  and  C_4
REMARK    4  A    between atoms: N_3  and  C_6
REMARK    5  A    between atoms: C_4  and  C_5
REMARK    6  A    between atoms: C_9  and  N_10
REMARK    7  A    between atoms: C_11  and  C_13
REMARK    8  A    between atoms: C_13  and  N_14
REMARK    9  A    between atoms: N_14  and  C_15
REMARK   10  A    between atoms: C_15  and  C_16
REMARK   11  A    between atoms: C_23  and  C_24
REMARK                            x       y       z     vdW  Elec       q    Type
REMARK                         _______ _______ _______ _____ _____    ______ ____
ROOT
ATOM      1  N   UNL     1       6.401   7.312  17.102  0.00  0.00    +0.000 N 
ATOM      2  C   UNL     1       7.542   7.583  17.834  0.00  0.00    +0.000 C 
ATOM      3  O   UNL     1       8.068   6.835  18.653  0.00  0.00    +0.000 OA
ATOM      4  H   UNL     1       6.260   7.916  16.297  0.00  0.00    +0.000 HD
ENDROOT
BRANCH   1   8
ATOM      5  C   UNL     1       3.733   4.045  17.835  0.00  0.00    +0.000 A 
ATOM      6  C   UNL     1       3.598   5.300  18.435  0.00  0.00    +0.000 A 
ATOM      7  C   UNL     1       4.486   6.358  18.153  0.00  0.00    +0.000 A 
ATOM      8  C   UNL     1       5.543   6.212  17.247  0.00  0.00    +0.000 A 
ATOM      9  C   UNL     1       5.715   4.979  16.622  0.00  0.00    +0.000 A 
ATOM     10  C   UNL     1       6.907   4.567  15.799  0.00  0.00    +0.000 C 
ATOM     11  C   UNL     1       4.769   3.959  16.881  0.00  0.00    +0.000 A 
BRANCH   5  12
ATOM     12  N   UNL     1       2.929   2.944  18.152  0.00  0.00    +0.000 N 
BRANCH  12  14
ATOM     13  C   UNL     1       0.733   2.858  19.433  0.00  0.00    +0.000 C 
ATOM     14  C   UNL     1       1.446   2.989  18.107  0.00  0.00    +0.000 C 
ENDBRANCH  12  14
BRANCH  12  15
ATOM     15  C   UNL     1       3.569   1.696  18.645  0.00  0.00    +0.000 C 
ATOM     16  C   UNL     1       4.413   1.851  19.903  0.00  0.00    +0.000 C 
ENDBRANCH  12  15
ENDBRANCH   5  12
ENDBRANCH   1   8
BRANCH   2  17
ATOM     17  C   UNL     1       8.181   8.931  17.450  0.00  0.00    +0.000 C 
BRANCH  17  18
ATOM     18  N   UNL     1       8.750   9.633  18.629  0.00  0.00    +0.000 NA
ATOM     19  H   UNL     1       7.977   9.963  19.207  0.00  0.00    +0.000 HD
BRANCH  18  20
ATOM     20  C   UNL     1       9.523  10.802  18.187  0.00  0.00    +0.000 C 
BRANCH  20  21
ATOM     21  C   UNL     1       9.766  11.797  19.292  0.00  0.00    +0.000 A 
ATOM     22  C   UNL     1       9.490  11.410  20.617  0.00  0.00    +0.000 A 
ATOM     23  C   UNL     1       9.598  12.321  21.669  0.00  0.00    +0.000 A 
ATOM     24  C   UNL     1      10.001  13.628  21.418  0.00  0.00    +0.000 A 
ATOM     25  C   UNL     1      10.314  14.021  20.116  0.00  0.00    +0.000 A 
ATOM     26  C   UNL     1      10.203  13.112  19.058  0.00  0.00    +0.000 A 
ATOM     27 CL   UNL     1      10.591  13.687  17.475  0.00  0.00    +0.000 Cl
ENDBRANCH  20  21
ENDBRANCH  18  20
ENDBRANCH  17  18
ENDBRANCH   2  17
TORSDOF 8
ENDMDL
MODEL 3
REMARK VINA RESULT:      -6.8      1.305      2.152
REMARK  Name = 
REMARK  11 active torsions:
REMARK  status: ('A' for Active; 'I' for Inactive)
REMARK    1  A    between atoms: C_1  and  C_2
REMARK    2  A    between atoms: C_2  and  N_3
REMARK    3  A    between atoms: N_3  and  C_4
REMARK    4  A    between atoms: N_3  and  C_6
REMARK    5  A    between atoms: C_4  and  C_5
REMARK    6  A    between atoms: C_9  and  N_10
REMARK    7  A    between atoms: C_11  and  C_13
REMARK    8  A    between atoms: C_13  and  N_14
REMARK    9  A    between atoms: N_14  and  C_15
REMARK   10  A    between atoms: C_15  and  C_16
REMARK   11  A    between atoms: C_23  and  C_24
REMARK                            x       y       z     vdW  Elec       q    Type
REMARK                         _______ _______ _______ _____ _____    ______ ____
ROOT
ATOM      1  N   UNL     1       2.689   5.991  20.208  0.00  0.00    +0.000 N 
ATOM      2  C   UNL     1       2.322   4.785  19.640  0.00  0.00    +0.000 C 
ATOM      3  O   UNL     1       1.497   4.630  18.744  0.00  0.00    +0.000 OA
ATOM      4  H   UNL     1       3.557   5.964  20.736  0.00  0.00    +0.000 HD
ENDROOT
BRANCH   1   8
ATOM      5  C   UNL     1       0.648   9.719  19.695  0.00  0.00    +0.000 A 
ATOM      6  C   UNL     1       0.514   8.917  20.831  0.00  0.00    +0.000 A 
ATOM      7  C   UNL     1       1.218   7.704  20.972  0.00  0.00    +0.000 A 
ATOM      8  C   UNL     1       2.100   7.244  19.987  0.00  0.00    +0.000 A 
ATOM      9  C   UNL     1       2.268   8.012  18.838  0.00  0.00    +0.000 A 
ATOM     10  C   UNL     1       2.991   7.582  17.588  0.00  0.00    +0.000 C 
ATOM     11  C   UNL     1       1.593   9.254  18.757  0.00  0.00    +0.000 A 
BRANCH   5  12
ATOM     12  N   UNL     1      -0.097  10.883  19.477  0.00  0.00    +0.000 N 
BRANCH  12  14
ATOM     13  C   UNL     1      -2.016  10.100  18.001  0.00  0.00    +0.000 C 
ATOM     14  C   UNL     1      -0.913  11.102  18.256  0.00  0.00    +0.000 C 
ENDBRANCH  12  14
BRANCH  12  15
ATOM     15  C   UNL     1      -0.004  11.998  20.456  0.00  0.00    +0.000 C 
ATOM     16  C   UNL     1       1.381  12.607  20.621  0.00  0.00    +0.000 C 
ENDBRANCH  12  15
ENDBRANCH   5  12
ENDBRANCH   1   8
BRANCH   2  17
ATOM     17  C   UNL     1       3.143   3.602  20.188  0.00  0.00    +0.000 C 
BRANCH  17  18
ATOM     18  N   UNL     1       4.232   3.203  19.260  0.00  0.00    +0.000 NA
ATOM     19  H   UNL     1       4.687   2.373  19.642  0.00  0.00    +0.000 HD
BRANCH  18  20
ATOM     20  C   UNL     1       5.233   4.275  19.177  0.00  0.00    +0.000 C 
BRANCH  20  21
ATOM     21  C   UNL     1       5.614   4.614  17.758  0.00  0.00    +0.000 A 
ATOM     22  C   UNL     1       4.825   4.101  16.711  0.00  0.00    +0.000 A 
ATOM     23  C   UNL     1       5.188   4.297  15.377  0.00  0.00    +0.000 A 
ATOM     24  C   UNL     1       6.334   5.021  15.067  0.00  0.00    +0.000 A 
ATOM     25  C   UNL     1       7.109   5.567  16.090  0.00  0.00    +0.000 A 
ATOM     26  C   UNL     1       6.751   5.370  17.429  0.00  0.00    +0.000 A 
ATOM     27 CL   UNL     1       7.778   6.065  18.634  0.00  0.00    +0.000 Cl
ENDBRANCH  20  21
ENDBRANCH  18  20
ENDBRANCH  17  18
ENDBRANCH   2  17
TORSDOF 8
ENDMDL
MODEL 4
REMARK VINA RESULT:      -6.7      2.141      3.961
REMARK  Name = 
REMARK  11 active torsions:
REMARK  status: ('A' for Active; 'I' for Inactive)
REMARK    1  A    between atoms: C_1  and  C_2
REMARK    2  A    between atoms: C_2  and  N_3
REMARK    3  A    between atoms: N_3  and  C_4
REMARK    4  A    between atoms: N_3  and  C_6
REMARK    5  A    between atoms: C_4  and  C_5
REMARK    6  A    between atoms: C_9  and  N_10
REMARK    7  A    between atoms: C_11  and  C_13
REMARK    8  A    between atoms: C_13  and  N_14
REMARK    9  A    between atoms: N_14  and  C_15
REMARK   10  A    between atoms: C_15  and  C_16
REMARK   11  A    between atoms: C_23  and  C_24
REMARK                            x       y       z     vdW  Elec       q    Type
REMARK                         _______ _______ _______ _____ _____    ______ ____
ROOT
ATOM      1  N   UNL     1       3.108   6.327  17.922  0.00  0.00    +0.000 N 
ATOM      2  C   UNL     1       4.424   6.261  17.506  0.00  0.00    +0.000 C 
ATOM      3  O   UNL     1       5.264   7.148  17.625  0.00  0.00    +0.000 OA
ATOM      4  H   UNL     1       2.638   5.428  17.985  0.00  0.00    +0.000 HD
ENDROOT
BRANCH   1   8
ATOM      5  C   UNL     1       1.237   9.930  19.282  0.00  0.00    +0.000 A 
ATOM      6  C   UNL     1       1.784   9.780  18.005  0.00  0.00    +0.000 A 
ATOM      7  C   UNL     1       2.375   8.570  17.587  0.00  0.00    +0.000 A 
ATOM      8  C   UNL     1       2.433   7.450  18.424  0.00  0.00    +0.000 A 
ATOM      9  C   UNL     1       1.897   7.551  19.705  0.00  0.00    +0.000 A 
ATOM     10  C   UNL     1       2.061   6.542  20.811  0.00  0.00    +0.000 C 
ATOM     11  C   UNL     1       1.257   8.760  20.070  0.00  0.00    +0.000 A 
BRANCH   5  12
ATOM     12  N   UNL     1       0.720  11.137  19.766  0.00  0.00    +0.000 N 
BRANCH  12  14
ATOM     13  C   UNL     1      -0.439  11.501  22.002  0.00  0.00    +0.000 C 
ATOM     14  C   UNL     1      -0.555  11.223  20.520  0.00  0.00    +0.000 C 
ENDBRANCH  12  14
BRANCH  12  15
ATOM     15  C   UNL     1       1.420  12.407  19.441  0.00  0.00    +0.000 C 
ATOM     16  C   UNL     1       0.650  13.363  18.539  0.00  0.00    +0.000 C 
ENDBRANCH  12  15
ENDBRANCH   5  12
ENDBRANCH   1   8
BRANCH   2  17
ATOM     17  C   UNL     1       4.792   4.879  16.933  0.00  0.00    +0.000 C 
BRANCH  17  18
ATOM     18  N   UNL     1       5.057   3.885  18.004  0.00  0.00    +0.000 NA
ATOM     19  H   UNL     1       5.957   3.444  17.813  0.00  0.00    +0.000 HD
BRANCH  18  20
ATOM     20  C   UNL     1       4.023   2.842  17.982  0.00  0.00    +0.000 C 
BRANCH  20  21
ATOM     21  C   UNL     1       3.071   2.934  19.148  0.00  0.00    +0.000 A 
ATOM     22  C   UNL     1       3.534   2.557  20.423  0.00  0.00    +0.000 A 
ATOM     23  C   UNL     1       2.669   2.524  21.519  0.00  0.00    +0.000 A 
ATOM     24  C   UNL     1       1.335   2.883  21.363  0.00  0.00    +0.000 A 
ATOM     25  C   UNL     1       0.866   3.292  20.115  0.00  0.00    +0.000 A 
ATOM     26  C   UNL     1       1.728   3.323  19.012  0.00  0.00    +0.000 A 
ATOM     27 CL   UNL     1       1.061   3.825  17.498  0.00  0.00    +0.000 Cl
ENDBRANCH  20  21
ENDBRANCH  18  20
ENDBRANCH  17  18
ENDBRANCH   2  17
TORSDOF 8
ENDMDL
MODEL 5
REMARK VINA RESULT:      -6.6      2.209      3.958
REMARK  Name = 
REMARK  11 active torsions:
REMARK  status: ('A' for Active; 'I' for Inactive)
REMARK    1  A    between atoms: C_1  and  C_2
REMARK    2  A    between atoms: C_2  and  N_3
REMARK    3  A    between atoms: N_3  and  C_4
REMARK    4  A    between atoms: N_3  and  C_6
REMARK    5  A    between atoms: C_4  and  C_5
REMARK    6  A    between atoms: C_9  and  N_10
REMARK    7  A    between atoms: C_11  and  C_13
REMARK    8  A    between atoms: C_13  and  N_14
REMARK    9  A    between atoms: N_14  and  C_15
REMARK   10  A    between atoms: C_15  and  C_16
REMARK   11  A    between atoms: C_23  and  C_24
REMARK                            x       y       z     vdW  Elec       q    Type
REMARK                         _______ _______ _______ _____ _____    ______ ____
ROOT
ATOM      1  N   UNL     1       3.141   6.244  18.296  0.00  0.00    +0.000 N 
ATOM      2  C   UNL     1       4.360   6.170  17.649  0.00  0.00    +0.000 C 
ATOM      3  O   UNL     1       5.082   7.121  17.359  0.00  0.00    +0.000 OA
ATOM      4  H   UNL     1       2.814   5.364  18.684  0.00  0.00    +0.000 HD
ENDROOT
BRANCH   1   8
ATOM      5  C   UNL     1       1.148   9.945  19.110  0.00  0.00    +0.000 A 
ATOM      6  C   UNL     1       1.812   9.674  17.910  0.00  0.00    +0.000 A 
ATOM      7  C   UNL     1       2.440   8.435  17.671  0.00  0.00    +0.000 A 
ATOM      8  C   UNL     1       2.422   7.404  18.618  0.00  0.00    +0.000 A 
ATOM      9  C   UNL     1       1.770   7.628  19.829  0.00  0.00    +0.000 A 
ATOM     10  C   UNL     1       1.832   6.736  21.041  0.00  0.00    +0.000 C 
ATOM     11  C   UNL     1       1.097   8.860  20.010  0.00  0.00    +0.000 A 
BRANCH   5  12
ATOM     12  N   UNL     1       0.588  11.189  19.421  0.00  0.00    +0.000 N 
BRANCH  12  14
ATOM     13  C   UNL     1      -0.107  12.187  21.655  0.00  0.00    +0.000 C 
ATOM     14  C   UNL     1       0.975  11.969  20.623  0.00  0.00    +0.000 C 
ENDBRANCH  12  14
BRANCH  12  15
ATOM     15  C   UNL     1      -0.510  11.722  18.573  0.00  0.00    +0.000 C 
ATOM     16  C   UNL     1      -1.728  10.820  18.439  0.00  0.00    +0.000 C 
ENDBRANCH  12  15
ENDBRANCH   5  12
ENDBRANCH   1   8
BRANCH   2  17
ATOM     17  C   UNL     1       4.803   4.718  17.389  0.00  0.00    +0.000 C 
BRANCH  17  18
ATOM     18  N   UNL     1       3.679   3.869  16.917  0.00  0.00    +0.000 NA
ATOM     19  H   UNL     1       2.807   4.372  17.087  0.00  0.00    +0.000 HD
BRANCH  18  20
ATOM     20  C   UNL     1       3.643   2.617  17.685  0.00  0.00    +0.000 C 
BRANCH  20  21
ATOM     21  C   UNL     1       2.810   2.721  18.938  0.00  0.00    +0.000 A 
ATOM     22  C   UNL     1       1.474   3.151  18.822  0.00  0.00    +0.000 A 
ATOM     23  C   UNL     1       0.688   3.364  19.956  0.00  0.00    +0.000 A 
ATOM     24  C   UNL     1       1.217   3.135  21.221  0.00  0.00    +0.000 A 
ATOM     25  C   UNL     1       2.527   2.675  21.355  0.00  0.00    +0.000 A 
ATOM     26  C   UNL     1       3.320   2.464  20.221  0.00  0.00    +0.000 A 
ATOM     27 CL   UNL     1       4.938   1.912  20.477  0.00  0.00    +0.000 Cl
ENDBRANCH  20  21
ENDBRANCH  18  20
ENDBRANCH  17  18
ENDBRANCH   2  17
TORSDOF 8
ENDMDL
MODEL 6
REMARK VINA RESULT:      -6.6      3.407      8.676
REMARK  Name = 
REMARK  11 active torsions:
REMARK  status: ('A' for Active; 'I' for Inactive)
REMARK    1  A    between atoms: C_1  and  C_2
REMARK    2  A    between atoms: C_2  and  N_3
REMARK    3  A    between atoms: N_3  and  C_4
REMARK    4  A    between atoms: N_3  and  C_6
REMARK    5  A    between atoms: C_4  and  C_5
REMARK    6  A    between atoms: C_9  and  N_10
REMARK    7  A    between atoms: C_11  and  C_13
REMARK    8  A    between atoms: C_13  and  N_14
REMARK    9  A    between atoms: N_14  and  C_15
REMARK   10  A    between atoms: C_15  and  C_16
REMARK   11  A    between atoms: C_23  and  C_24
REMARK                            x       y       z     vdW  Elec       q    Type
REMARK                         _______ _______ _______ _____ _____    ______ ____
ROOT
ATOM      1  N   UNL     1       2.304   7.712  18.861  0.00  0.00    +0.000 N 
ATOM      2  C   UNL     1       1.785   8.931  18.463  0.00  0.00    +0.000 C 
ATOM      3  O   UNL     1       1.906   9.438  17.352  0.00  0.00    +0.000 OA
ATOM      4  H   UNL     1       1.893   7.334  19.709  0.00  0.00    +0.000 HD
ENDROOT
BRANCH   1   8
ATOM      5  C   UNL     1       5.032   5.439  16.469  0.00  0.00    +0.000 A 
ATOM      6  C   UNL     1       5.151   6.815  16.677  0.00  0.00    +0.000 A 
ATOM      7  C   UNL     1       4.244   7.526  17.488  0.00  0.00    +0.000 A 
ATOM      8  C   UNL     1       3.181   6.890  18.139  0.00  0.00    +0.000 A 
ATOM      9  C   UNL     1       3.023   5.517  17.964  0.00  0.00    +0.000 A 
ATOM     10  C   UNL     1       1.831   4.704  18.395  0.00  0.00    +0.000 C 
ATOM     11  C   UNL     1       3.989   4.824  17.194  0.00  0.00    +0.000 A 
BRANCH   5  12
ATOM     12  N   UNL     1       5.857   4.711  15.604  0.00  0.00    +0.000 N 
BRANCH  12  14
ATOM     13  C   UNL     1       6.425   3.822  13.289  0.00  0.00    +0.000 C 
ATOM     14  C   UNL     1       5.372   4.123  14.331  0.00  0.00    +0.000 C 
ENDBRANCH  12  14
BRANCH  12  15
ATOM     15  C   UNL     1       7.259   4.426  16.008  0.00  0.00    +0.000 C 
ATOM     16  C   UNL     1       7.544   4.543  17.499  0.00  0.00    +0.000 C 
ENDBRANCH  12  15
ENDBRANCH   5  12
ENDBRANCH   1   8
BRANCH   2  17
ATOM     17  C   UNL     1       0.923   9.588  19.557  0.00  0.00    +0.000 C 
BRANCH  17  18
ATOM     18  N   UNL     1       0.023  10.633  19.004  0.00  0.00    +0.000 NA
ATOM     19  H   UNL     1       0.228  11.513  19.479  0.00  0.00    +0.000 HD
BRANCH  18  20
ATOM     20  C   UNL     1      -1.376  10.280  19.278  0.00  0.00    +0.000 C 
BRANCH  20  21
ATOM     21  C   UNL     1      -2.274  10.468  18.081  0.00  0.00    +0.000 A 
ATOM     22  C   UNL     1      -1.962   9.780  16.893  0.00  0.00    +0.000 A 
ATOM     23  C   UNL     1      -2.697   9.995  15.726  0.00  0.00    +0.000 A 
ATOM     24  C   UNL     1      -3.764  10.886  15.730  0.00  0.00    +0.000 A 
ATOM     25  C   UNL     1      -4.111  11.550  16.906  0.00  0.00    +0.000 A 
ATOM     26  C   UNL     1      -3.375  11.341  18.078  0.00  0.00    +0.000 A 
ATOM     27 CL   UNL     1      -3.860  12.219  19.487  0.00  0.00    +0.000 Cl
ENDBRANCH  20  21
ENDBRANCH  18  20
ENDBRANCH  17  18
ENDBRANCH   2  17
TORSDOF 8
ENDMDL
MODEL 7
REMARK VINA RESULT:      -6.6      2.372      4.138
REMARK  Name = 
REMARK  11 active torsions:
REMARK  status: ('A' for Active; 'I' for Inactive)
REMARK    1  A    between atoms: C_1  and  C_2
REMARK    2  A    between atoms: C_2  and  N_3
REMARK    3  A    between atoms: N_3  and  C_4
REMARK    4  A    between atoms: N_3  and  C_6
REMARK    5  A    between atoms: C_4  and  C_5
REMARK    6  A    between atoms: C_9  and  N_10
REMARK    7  A    between atoms: C_11  and  C_13
REMARK    8  A    between atoms: C_13  and  N_14
REMARK    9  A    between atoms: N_14  and  C_15
REMARK   10  A    between atoms: C_15  and  C_16
REMARK   11  A    between atoms: C_23  and  C_24
REMARK                            x       y       z     vdW  Elec       q    Type
REMARK                         _______ _______ _______ _____ _____    ______ ____
ROOT
ATOM      1  N   UNL     1       2.827   6.091  17.759  0.00  0.00    +0.000 N 
ATOM      2  C   UNL     1       4.162   5.739  17.682  0.00  0.00    +0.000 C 
ATOM      3  O   UNL     1       5.093   6.314  18.241  0.00  0.00    +0.000 OA
ATOM      4  H   UNL     1       2.181   5.366  17.460  0.00  0.00    +0.000 HD
ENDROOT
BRANCH   1   8
ATOM      5  C   UNL     1       1.353   9.761  19.396  0.00  0.00    +0.000 A 
ATOM      6  C   UNL     1       1.731   9.610  18.060  0.00  0.00    +0.000 A 
ATOM      7  C   UNL     1       2.193   8.379  17.553  0.00  0.00    +0.000 A 
ATOM      8  C   UNL     1       2.287   7.238  18.358  0.00  0.00    +0.000 A 
ATOM      9  C   UNL     1       1.918   7.340  19.697  0.00  0.00    +0.000 A 
ATOM     10  C   UNL     1       2.155   6.298  20.758  0.00  0.00    +0.000 C 
ATOM     11  C   UNL     1       1.399   8.574  20.157  0.00  0.00    +0.000 A 
BRANCH   5  12
ATOM     12  N   UNL     1       0.972  10.984  19.960  0.00  0.00    +0.000 N 
BRANCH  12  14
ATOM     13  C   UNL     1      -0.959  11.846  21.375  0.00  0.00    +0.000 C 
ATOM     14  C   UNL     1       0.350  11.094  21.304  0.00  0.00    +0.000 C 
ENDBRANCH  12  14
BRANCH  12  15
ATOM     15  C   UNL     1       1.103  12.227  19.155  0.00  0.00    +0.000 C 
ATOM     16  C   UNL     1       2.231  13.159  19.574  0.00  0.00    +0.000 C 
ENDBRANCH  12  15
ENDBRANCH   5  12
ENDBRANCH   1   8
BRANCH   2  17
ATOM     17  C   UNL     1       4.386   4.449  16.872  0.00  0.00    +0.000 C 
BRANCH  17  18
ATOM     18  N   UNL     1       4.794   3.312  17.736  0.00  0.00    +0.000 NA
ATOM     19  H   UNL     1       5.609   2.867  17.312  0.00  0.00    +0.000 HD
BRANCH  18  20
ATOM     20  C   UNL     1       3.712   2.320  17.799  0.00  0.00    +0.000 C 
BRANCH  20  21
ATOM     21  C   UNL     1       2.839   2.480  19.018  0.00  0.00    +0.000 A 
ATOM     22  C   UNL     1       1.495   2.859  18.836  0.00  0.00    +0.000 A 
ATOM     23  C   UNL     1       0.669   3.122  19.931  0.00  0.00    +0.000 A 
ATOM     24  C   UNL     1       1.166   2.994  21.223  0.00  0.00    +0.000 A 
ATOM     25  C   UNL     1       2.485   2.586  21.424  0.00  0.00    +0.000 A 
ATOM     26  C   UNL     1       3.318   2.325  20.329  0.00  0.00    +0.000 A 
ATOM     27 CL   UNL     1       4.943   1.843  20.668  0.00  0.00    +0.000 Cl
ENDBRANCH  20  21
ENDBRANCH  18  20
ENDBRANCH  17  18
ENDBRANCH   2  17
TORSDOF 8
ENDMDL
MODEL 8
REMARK VINA RESULT:      -6.6      4.901      7.648
REMARK  Name = 
REMARK  11 active torsions:
REMARK  status: ('A' for Active; 'I' for Inactive)
REMARK    1  A    between atoms: C_1  and  C_2
REMARK    2  A    between atoms: C_2  and  N_3
REMARK    3  A    between atoms: N_3  and  C_4
REMARK    4  A    between atoms: N_3  and  C_6
REMARK    5  A    between atoms: C_4  and  C_5
REMARK    6  A    between atoms: C_9  and  N_10
REMARK    7  A    between atoms: C_11  and  C_13
REMARK    8  A    between atoms: C_13  and  N_14
REMARK    9  A    between atoms: N_14  and  C_15
REMARK   10  A    between atoms: C_15  and  C_16
REMARK   11  A    between atoms: C_23  and  C_24
REMARK                            x       y       z     vdW  Elec       q    Type
REMARK                         _______ _______ _______ _____ _____    ______ ____
ROOT
ATOM      1  N   UNL     1       6.524   7.346  17.046  0.00  0.00    +0.000 N 
ATOM      2  C   UNL     1       7.642   7.645  17.803  0.00  0.00    +0.000 C 
ATOM      3  O   UNL     1       8.126   6.941  18.685  0.00  0.00    +0.000 OA
ATOM      4  H   UNL     1       6.423   7.901  16.202  0.00  0.00    +0.000 HD
ENDROOT
BRANCH   1   8
ATOM      5  C   UNL     1       3.799   4.152  17.886  0.00  0.00    +0.000 A 
ATOM      6  C   UNL     1       3.715   5.414  18.481  0.00  0.00    +0.000 A 
ATOM      7  C   UNL     1       4.620   6.447  18.163  0.00  0.00    +0.000 A 
ATOM      8  C   UNL     1       5.644   6.269  17.226  0.00  0.00    +0.000 A 
ATOM      9  C   UNL     1       5.765   5.028  16.605  0.00  0.00    +0.000 A 
ATOM     10  C   UNL     1       6.919   4.581  15.747  0.00  0.00    +0.000 C 
ATOM     11  C   UNL     1       4.802   4.034  16.900  0.00  0.00    +0.000 A 
BRANCH   5  12
ATOM     12  N   UNL     1       2.978   3.075  18.235  0.00  0.00    +0.000 N 
BRANCH  12  14
ATOM     13  C   UNL     1       4.444   1.775  19.857  0.00  0.00    +0.000 C 
ATOM     14  C   UNL     1       3.513   1.759  18.667  0.00  0.00    +0.000 C 
ENDBRANCH  12  14
BRANCH  12  15
ATOM     15  C   UNL     1       1.505   3.207  18.084  0.00  0.00    +0.000 C 
ATOM     16  C   UNL     1       0.693   2.929  19.341  0.00  0.00    +0.000 C 
ENDBRANCH  12  15
ENDBRANCH   5  12
ENDBRANCH   1   8
BRANCH   2  17
ATOM     17  C   UNL     1       8.317   8.958  17.362  0.00  0.00    +0.000 C 
BRANCH  17  18
ATOM     18  N   UNL     1       8.234  10.006  18.411  0.00  0.00    +0.000 NA
ATOM     19  H   UNL     1       8.258  10.917  17.952  0.00  0.00    +0.000 HD
BRANCH  18  20
ATOM     20  C   UNL     1       9.398   9.911  19.303  0.00  0.00    +0.000 C 
BRANCH  20  21
ATOM     21  C   UNL     1       9.772  11.234  19.922  0.00  0.00    +0.000 A 
ATOM     22  C   UNL     1       9.201  11.579  21.162  0.00  0.00    +0.000 A 
ATOM     23  C   UNL     1       9.431  12.832  21.734  0.00  0.00    +0.000 A 
ATOM     24  C   UNL     1      10.246  13.753  21.085  0.00  0.00    +0.000 A 
ATOM     25  C   UNL     1      10.848  13.416  19.873  0.00  0.00    +0.000 A 
ATOM     26  C   UNL     1      10.618  12.163  19.294  0.00  0.00    +0.000 A 
ATOM     27 CL   UNL     1      11.388  11.834  17.782  0.00  0.00    +0.000 Cl
ENDBRANCH  20  21
ENDBRANCH  18  20
ENDBRANCH  17  18
ENDBRANCH   2  17
TORSDOF 8
ENDMDL
MODEL 9
REMARK VINA RESULT:      -6.5      1.155      1.661
REMARK  Name = 
REMARK  11 active torsions:
REMARK  status: ('A' for Active; 'I' for Inactive)
REMARK    1  A    between atoms: C_1  and  C_2
REMARK    2  A    between atoms: C_2  and  N_3
REMARK    3  A    between atoms: N_3  and  C_4
REMARK    4  A    between atoms: N_3  and  C_6
REMARK    5  A    between atoms: C_4  and  C_5
REMARK    6  A    between atoms: C_9  and  N_10
REMARK    7  A    between atoms: C_11  and  C_13
REMARK    8  A    between atoms: C_13  and  N_14
REMARK    9  A    between atoms: N_14  and  C_15
REMARK   10  A    between atoms: C_15  and  C_16
REMARK   11  A    between atoms: C_23  and  C_24
REMARK                            x       y       z     vdW  Elec       q    Type
REMARK                         _______ _______ _______ _____ _____    ______ ____
ROOT
ATOM      1  N   UNL     1       3.025   5.615  19.956  0.00  0.00    +0.000 N 
ATOM      2  C   UNL     1       2.427   4.386  19.746  0.00  0.00    +0.000 C 
ATOM      3  O   UNL     1       1.316   4.198  19.258  0.00  0.00    +0.000 OA
ATOM      4  H   UNL     1       4.027   5.576  20.117  0.00  0.00    +0.000 HD
ENDROOT
BRANCH   1   8
ATOM      5  C   UNL     1       1.004   9.375  19.634  0.00  0.00    +0.000 A 
ATOM      6  C   UNL     1       0.920   8.548  20.757  0.00  0.00    +0.000 A 
ATOM      7  C   UNL     1       1.616   7.325  20.834  0.00  0.00    +0.000 A 
ATOM      8  C   UNL     1       2.440   6.879  19.794  0.00  0.00    +0.000 A 
ATOM      9  C   UNL     1       2.558   7.672  18.655  0.00  0.00    +0.000 A 
ATOM     10  C   UNL     1       3.211   7.264  17.361  0.00  0.00    +0.000 C 
ATOM     11  C   UNL     1       1.895   8.922  18.638  0.00  0.00    +0.000 A 
BRANCH   5  12
ATOM     12  N   UNL     1       0.263  10.552  19.481  0.00  0.00    +0.000 N 
BRANCH  12  14
ATOM     13  C   UNL     1       1.500  12.618  18.659  0.00  0.00    +0.000 C 
ATOM     14  C   UNL     1       0.810  11.896  19.794  0.00  0.00    +0.000 C 
ENDBRANCH  12  14
BRANCH  12  15
ATOM     15  C   UNL     1      -1.165  10.462  19.077  0.00  0.00    +0.000 C 
ATOM     16  C   UNL     1      -1.408  10.102  17.618  0.00  0.00    +0.000 C 
ENDBRANCH  12  15
ENDBRANCH   5  12
ENDBRANCH   1   8
BRANCH   2  17
ATOM     17  C   UNL     1       3.354   3.211  20.110  0.00  0.00    +0.000 C 
BRANCH  17  18
ATOM     18  N   UNL     1       4.466   3.056  19.137  0.00  0.00    +0.000 NA
ATOM     19  H   UNL     1       5.221   3.684  19.415  0.00  0.00    +0.000 HD
BRANCH  18  20
ATOM     20  C   UNL     1       4.013   3.451  17.797  0.00  0.00    +0.000 C 
BRANCH  20  21
ATOM     21  C   UNL     1       5.115   4.041  16.954  0.00  0.00    +0.000 A 
ATOM     22  C   UNL     1       5.167   3.708  15.588  0.00  0.00    +0.000 A 
ATOM     23  C   UNL     1       6.222   4.142  14.783  0.00  0.00    +0.000 A 
ATOM     24  C   UNL     1       7.232   4.929  15.325  0.00  0.00    +0.000 A 
ATOM     25  C   UNL     1       7.179   5.299  16.669  0.00  0.00    +0.000 A 
ATOM     26  C   UNL     1       6.126   4.863  17.481  0.00  0.00    +0.000 A 
ATOM     27 CL   UNL     1       6.148   5.351  19.139  0.00  0.00    +0.000 Cl
ENDBRANCH  20  21
ENDBRANCH  18  20
ENDBRANCH  17  18
ENDBRANCH   2  17
TORSDOF 8
ENDMDL
