MODEL 1
REMARK VINA RESULT:      -5.1      0.000      0.000
REMARK  Name = 
REMARK  5 active torsions:
REMARK  status: ('A' for Active; 'I' for Inactive)
REMARK    1  A    between atoms: C_1  and  C_2
REMARK    2  A    between atoms: C_2  and  C_3
REMARK    3  A    between atoms: C_2  and  C_4
REMARK    4  A    between atoms: C_4  and  N_5
REMARK    5  A    between atoms: C_4  and  C_6
REMARK                            x       y       z     vdW  Elec       q    Type
REMARK                         _______ _______ _______ _____ _____    ______ ____
ROOT
ATOM      1  C   UNL     1       4.491   3.592  19.172  0.00  0.00    +0.000 C 
ENDROOT
BRANCH   1   2
ATOM      2  C   UNL     1       5.755   4.349  18.846  0.00  0.00    +0.000 A 
ATOM      3  N   UNL     1       6.390   5.232  19.593  0.00  0.00    +0.000 NA
ATOM      4  C   UNL     1       7.486   5.618  18.869  0.00  0.00    +0.000 A 
ATOM      5  C   UNL     1       7.512   4.980  17.651  0.00  0.00    +0.000 A 
ATOM      6  N   UNL     1       6.414   4.167  17.648  0.00  0.00    +0.000 N 
ATOM      7  H   UNL     1       6.122   3.552  16.906  0.00  0.00    +0.000 HD
ENDBRANCH   1   2
BRANCH   1   9
ATOM      8  C   UNL     1       2.864   2.073  17.902  0.00  0.00    +0.000 C 
ATOM      9  C   UNL     1       3.581   3.428  17.918  0.00  0.00    +0.000 C 
ATOM     10  C   UNL     1       2.517   4.535  17.829  0.00  0.00    +0.000 C 
ENDBRANCH   1   9
BRANCH   1  11
ATOM     11  N   UNL     1       4.868   2.301  19.759  0.00  0.00    +0.000 NA
ATOM     12  H   UNL     1       5.491   1.832  19.097  0.00  0.00    +0.000 HD
ATOM     13  H   UNL     1       4.047   1.707  19.836  0.00  0.00    +0.000 HD
ENDBRANCH   1  11
TORSDOF 3
ENDMDL
MODEL 2
REMARK VINA RESULT:      -4.9      0.949      1.488
REMARK  Name = 
REMARK  5 active torsions:
REMARK  status: ('A' for Active; 'I' for Inactive)
REMARK    1  A    between atoms: C_1  and  C_2
REMARK    2  A    between atoms: C_2  and  C_3
REMARK    3  A    between atoms: C_2  and  C_4
REMARK    4  A    between atoms: C_4  and  N_5
REMARK    5  A    between atoms: C_4  and  C_6
REMARK                            x       y       z     vdW  Elec       q    Type
REMARK                         _______ _______ _______ _____ _____    ______ ____
ROOT
ATOM      1  C   UNL     1       4.334   3.710  18.652  0.00  0.00    +0.000 C 
ENDROOT
BRANCH   1   2
ATOM      2  C   UNL     1       5.527   4.112  17.821  0.00  0.00    +0.000 A 
ATOM      3  N   UNL     1       5.568   4.370  16.527  0.00  0.00    +0.000 NA
ATOM      4  C   UNL     1       6.866   4.708  16.252  0.00  0.00    +0.000 A 
ATOM      5  C   UNL     1       7.638   4.633  17.388  0.00  0.00    +0.000 A 
ATOM      6  N   UNL     1       6.778   4.265  18.383  0.00  0.00    +0.000 N 
ATOM      7  H   UNL     1       7.006   4.115  19.353  0.00  0.00    +0.000 HD
ENDBRANCH   1   2
BRANCH   1   9
ATOM      8  C   UNL     1       2.431   2.065  18.159  0.00  0.00    +0.000 C 
ATOM      9  C   UNL     1       3.098   3.387  17.759  0.00  0.00    +0.000 C 
ATOM     10  C   UNL     1       2.035   4.498  17.821  0.00  0.00    +0.000 C 
ENDBRANCH   1   9
BRANCH   1  11
ATOM     11  N   UNL     1       4.723   2.575  19.496  0.00  0.00    +0.000 NA
ATOM     12  H   UNL     1       5.499   2.883  20.087  0.00  0.00    +0.000 HD
ATOM     13  H   UNL     1       5.094   1.828  18.917  0.00  0.00    +0.000 HD
ENDBRANCH   1  11
TORSDOF 3
ENDMDL
MODEL 3
REMARK VINA RESULT:      -4.9      2.978      4.332
REMARK  Name = 
REMARK  5 active torsions:
REMARK  status: ('A' for Active; 'I' for Inactive)
REMARK    1  A    between atoms: C_1  and  C_2
REMARK    2  A    between atoms: C_2  and  C_3
REMARK    3  A    between atoms: C_2  and  C_4
REMARK    4  A    between atoms: C_4  and  N_5
REMARK    5  A    between atoms: C_4  and  C_6
REMARK                            x       y       z     vdW  Elec       q    Type
REMARK                         _______ _______ _______ _____ _____    ______ ____
ROOT
ATOM      1  C   UNL     1       7.326   5.180  17.499  0.00  0.00    +0.000 C 
ENDROOT
BRANCH   1   2
ATOM      2  C   UNL     1       7.028   4.823  16.064  0.00  0.00    +0.000 A 
ATOM      3  N   UNL     1       7.529   5.366  14.970  0.00  0.00    +0.000 NA
ATOM      4  C   UNL     1       6.965   4.687  13.922  0.00  0.00    +0.000 A 
ATOM      5  C   UNL     1       6.087   3.732  14.380  0.00  0.00    +0.000 A 
ATOM      6  N   UNL     1       6.141   3.817  15.741  0.00  0.00    +0.000 N 
ATOM      7  H   UNL     1       5.621   3.260  16.401  0.00  0.00    +0.000 HD
ENDBRANCH   1   2
BRANCH   1   9
ATOM      8  C   UNL     1       7.701   7.714  17.585  0.00  0.00    +0.000 C 
ATOM      9  C   UNL     1       6.727   6.567  17.881  0.00  0.00    +0.000 C 
ATOM     10  C   UNL     1       5.410   6.852  17.137  0.00  0.00    +0.000 C 
ENDBRANCH   1   9
BRANCH   1  11
ATOM     11  N   UNL     1       6.822   4.101  18.356  0.00  0.00    +0.000 NA
ATOM     12  H   UNL     1       6.550   3.326  17.746  0.00  0.00    +0.000 HD
ATOM     13  H   UNL     1       5.970   4.402  18.819  0.00  0.00    +0.000 HD
ENDBRANCH   1  11
TORSDOF 3
ENDMDL
MODEL 4
REMARK VINA RESULT:      -4.9      2.987      4.329
REMARK  Name = 
REMARK  5 active torsions:
REMARK  status: ('A' for Active; 'I' for Inactive)
REMARK    1  A    between atoms: C_1  and  C_2
REMARK    2  A    between atoms: C_2  and  C_3
REMARK    3  A    between atoms: C_2  and  C_4
REMARK    4  A    between atoms: C_4  and  N_5
REMARK    5  A    between atoms: C_4  and  C_6
REMARK                            x       y       z     vdW  Elec       q    Type
REMARK                         _______ _______ _______ _____ _____    ______ ____
ROOT
ATOM      1  C   UNL     1       7.266   5.149  17.469  0.00  0.00    +0.000 C 
ENDROOT
BRANCH   1   2
ATOM      2  C   UNL     1       6.943   4.751  16.050  0.00  0.00    +0.000 A 
ATOM      3  N   UNL     1       6.063   3.858  15.636  0.00  0.00    +0.000 NA
ATOM      4  C   UNL     1       6.127   3.875  14.268  0.00  0.00    +0.000 A 
ATOM      5  C   UNL     1       7.075   4.773  13.837  0.00  0.00    +0.000 A 
ATOM      6  N   UNL     1       7.582   5.333  14.975  0.00  0.00    +0.000 N 
ATOM      7  H   UNL     1       8.302   6.036  15.032  0.00  0.00    +0.000 HD
ENDBRANCH   1   2
BRANCH   1   9
ATOM      8  C   UNL     1       7.657   7.681  17.523  0.00  0.00    +0.000 C 
ATOM      9  C   UNL     1       6.672   6.545  17.822  0.00  0.00    +0.000 C 
ATOM     10  C   UNL     1       5.368   6.828  17.055  0.00  0.00    +0.000 C 
ENDBRANCH   1   9
BRANCH   1  11
ATOM     11  N   UNL     1       6.779   4.094  18.364  0.00  0.00    +0.000 NA
ATOM     12  H   UNL     1       7.498   3.937  19.075  0.00  0.00    +0.000 HD
ATOM     13  H   UNL     1       6.699   3.220  17.853  0.00  0.00    +0.000 HD
ENDBRANCH   1  11
TORSDOF 3
ENDMDL
MODEL 5
REMARK VINA RESULT:      -4.8      1.464      3.913
REMARK  Name = 
REMARK  5 active torsions:
REMARK  status: ('A' for Active; 'I' for Inactive)
REMARK    1  A    between atoms: C_1  and  C_2
REMARK    2  A    between atoms: C_2  and  C_3
REMARK    3  A    between atoms: C_2  and  C_4
REMARK    4  A    between atoms: C_4  and  N_5
REMARK    5  A    between atoms: C_4  and  C_6
REMARK                            x       y       z     vdW  Elec       q    Type
REMARK                         _______ _______ _______ _____ _____    ______ ____
ROOT
ATOM      1  C   UNL     1       7.077   4.677  17.107  0.00  0.00    +0.000 C 
ENDROOT
BRANCH   1   2
ATOM      2  C   UNL     1       5.871   4.165  17.854  0.00  0.00    +0.000 A 
ATOM      3  N   UNL     1       5.628   4.232  19.150  0.00  0.00    +0.000 NA
ATOM      4  C   UNL     1       4.403   3.648  19.333  0.00  0.00    +0.000 A 
ATOM      5  C   UNL     1       3.898   3.195  18.137  0.00  0.00    +0.000 A 
ATOM      6  N   UNL     1       4.832   3.536  17.200  0.00  0.00    +0.000 N 
ATOM      7  H   UNL     1       4.787   3.355  16.210  0.00  0.00    +0.000 HD
ENDBRANCH   1   2
BRANCH   1   9
ATOM      8  C   UNL     1       5.689   6.828  16.973  0.00  0.00    +0.000 C 
ATOM      9  C   UNL     1       7.101   6.235  17.058  0.00  0.00    +0.000 C 
ATOM     10  C   UNL     1       7.803   6.840  18.286  0.00  0.00    +0.000 C 
ENDBRANCH   1   9
BRANCH   1  11
ATOM     11  N   UNL     1       8.280   4.122  17.738  0.00  0.00    +0.000 NA
ATOM     12  H   UNL     1       8.504   4.711  18.543  0.00  0.00    +0.000 HD
ATOM     13  H   UNL     1       9.069   4.205  17.104  0.00  0.00    +0.000 HD
ENDBRANCH   1  11
TORSDOF 3
ENDMDL
MODEL 6
REMARK VINA RESULT:      -4.8      2.265      2.837
REMARK  Name = 
REMARK  5 active torsions:
REMARK  status: ('A' for Active; 'I' for Inactive)
REMARK    1  A    between atoms: C_1  and  C_2
REMARK    2  A    between atoms: C_2  and  C_3
REMARK    3  A    between atoms: C_2  and  C_4
REMARK    4  A    between atoms: C_4  and  N_5
REMARK    5  A    between atoms: C_4  and  C_6
REMARK                            x       y       z     vdW  Elec       q    Type
REMARK                         _______ _______ _______ _____ _____    ______ ____
ROOT
ATOM      1  C   UNL     1       3.212   2.408  19.361  0.00  0.00    +0.000 C 
ENDROOT
BRANCH   1   2
ATOM      2  C   UNL     1       4.130   3.266  18.527  0.00  0.00    +0.000 A 
ATOM      3  N   UNL     1       3.918   3.745  17.314  0.00  0.00    +0.000 NA
ATOM      4  C   UNL     1       5.033   4.476  16.999  0.00  0.00    +0.000 A 
ATOM      5  C   UNL     1       5.951   4.426  18.023  0.00  0.00    +0.000 A 
ATOM      6  N   UNL     1       5.366   3.665  18.994  0.00  0.00    +0.000 N 
ATOM      7  H   UNL     1       5.760   3.421  19.888  0.00  0.00    +0.000 HD
ENDBRANCH   1   2
BRANCH   1   9
ATOM      8  C   UNL     1       0.867   3.363  19.762  0.00  0.00    +0.000 C 
ATOM      9  C   UNL     1       2.305   3.272  20.288  0.00  0.00    +0.000 C 
ATOM     10  C   UNL     1       2.257   2.722  21.724  0.00  0.00    +0.000 C 
ENDBRANCH   1   9
BRANCH   1  11
ATOM     11  N   UNL     1       2.431   1.557  18.456  0.00  0.00    +0.000 NA
ATOM     12  H   UNL     1       3.060   1.237  17.715  0.00  0.00    +0.000 HD
ATOM     13  H   UNL     1       1.718   2.112  17.994  0.00  0.00    +0.000 HD
ENDBRANCH   1  11
TORSDOF 3
ENDMDL
MODEL 7
REMARK VINA RESULT:      -4.8      1.549      4.066
REMARK  Name = 
REMARK  5 active torsions:
REMARK  status: ('A' for Active; 'I' for Inactive)
REMARK    1  A    between atoms: C_1  and  C_2
REMARK    2  A    between atoms: C_2  and  C_3
REMARK    3  A    between atoms: C_2  and  C_4
REMARK    4  A    between atoms: C_4  and  N_5
REMARK    5  A    between atoms: C_4  and  C_6
REMARK                            x       y       z     vdW  Elec       q    Type
REMARK                         _______ _______ _______ _____ _____    ______ ____
ROOT
ATOM      1  C   UNL     1       6.814   5.218  18.751  0.00  0.00    +0.000 C 
ENDROOT
BRANCH   1   2
ATOM      2  C   UNL     1       5.486   4.627  19.154  0.00  0.00    +0.000 A 
ATOM      3  N   UNL     1       4.368   5.265  19.447  0.00  0.00    +0.000 NA
ATOM      4  C   UNL     1       3.444   4.294  19.729  0.00  0.00    +0.000 A 
ATOM      5  C   UNL     1       4.010   3.044  19.631  0.00  0.00    +0.000 A 
ATOM      6  N   UNL     1       5.304   3.264  19.254  0.00  0.00    +0.000 N 
ATOM      7  H   UNL     1       6.011   2.565  19.090  0.00  0.00    +0.000 HD
ENDBRANCH   1   2
BRANCH   1   9
ATOM      8  C   UNL     1       7.797   7.401  17.836  0.00  0.00    +0.000 C 
ATOM      9  C   UNL     1       6.636   6.402  17.754  0.00  0.00    +0.000 C 
ATOM     10  C   UNL     1       6.521   5.918  16.298  0.00  0.00    +0.000 C 
ENDBRANCH   1   9
BRANCH   1  11
ATOM     11  N   UNL     1       7.528   5.618  19.969  0.00  0.00    +0.000 NA
ATOM     12  H   UNL     1       8.450   5.174  19.946  0.00  0.00    +0.000 HD
ATOM     13  H   UNL     1       7.057   5.237  20.783  0.00  0.00    +0.000 HD
ENDBRANCH   1  11
TORSDOF 3
ENDMDL
MODEL 8
REMARK VINA RESULT:      -4.8      3.087      4.527
REMARK  Name = 
REMARK  5 active torsions:
REMARK  status: ('A' for Active; 'I' for Inactive)
REMARK    1  A    between atoms: C_1  and  C_2
REMARK    2  A    between atoms: C_2  and  C_3
REMARK    3  A    between atoms: C_2  and  C_4
REMARK    4  A    between atoms: C_4  and  N_5
REMARK    5  A    between atoms: C_4  and  C_6
REMARK                            x       y       z     vdW  Elec       q    Type
REMARK                         _______ _______ _______ _____ _____    ______ ____
ROOT
ATOM      1  C   UNL     1       7.343   4.756  17.165  0.00  0.00    +0.000 C 
ENDROOT
BRANCH   1   2
ATOM      2  C   UNL     1       6.964   4.524  15.724  0.00  0.00    +0.000 A 
ATOM      3  N   UNL     1       6.053   3.697  15.245  0.00  0.00    +0.000 NA
ATOM      4  C   UNL     1       6.072   3.864  13.886  0.00  0.00    +0.000 A 
ATOM      5  C   UNL     1       7.024   4.789  13.524  0.00  0.00    +0.000 A 
ATOM      6  N   UNL     1       7.579   5.211  14.698  0.00  0.00    +0.000 N 
ATOM      7  H   UNL     1       8.314   5.891  14.806  0.00  0.00    +0.000 HD
ENDBRANCH   1   2
BRANCH   1   9
ATOM      8  C   UNL     1       6.041   6.951  17.401  0.00  0.00    +0.000 C 
ATOM      9  C   UNL     1       7.414   6.276  17.501  0.00  0.00    +0.000 C 
ATOM     10  C   UNL     1       7.972   6.530  18.912  0.00  0.00    +0.000 C 
ENDBRANCH   1   9
BRANCH   1  11
ATOM     11  N   UNL     1       6.380   4.044  18.014  0.00  0.00    +0.000 NA
ATOM     12  H   UNL     1       6.772   3.120  18.214  0.00  0.00    +0.000 HD
ATOM     13  H   UNL     1       5.524   3.875  17.494  0.00  0.00    +0.000 HD
ENDBRANCH   1  11
TORSDOF 3
ENDMDL
MODEL 9
REMARK VINA RESULT:      -4.8      0.987      1.147
REMARK  Name = 
REMARK  5 active torsions:
REMARK  status: ('A' for Active; 'I' for Inactive)
REMARK    1  A    between atoms: C_1  and  C_2
REMARK    2  A    between atoms: C_2  and  C_3
REMARK    3  A    between atoms: C_2  and  C_4
REMARK    4  A    between atoms: C_4  and  N_5
REMARK    5  A    between atoms: C_4  and  C_6
REMARK                            x       y       z     vdW  Elec       q    Type
REMARK                         _______ _______ _______ _____ _____    ______ ____
ROOT
ATOM      1  C   UNL     1       4.217   4.006  18.864  0.00  0.00    +0.000 C 
ENDROOT
BRANCH   1   2
ATOM      2  C   UNL     1       5.631   4.509  18.718  0.00  0.00    +0.000 A 
ATOM      3  N   UNL     1       6.308   5.285  19.545  0.00  0.00    +0.000 NA
ATOM      4  C   UNL     1       7.547   5.443  18.983  0.00  0.00    +0.000 A 
ATOM      5  C   UNL     1       7.624   4.774  17.783  0.00  0.00    +0.000 A 
ATOM      6  N   UNL     1       6.407   4.174  17.627  0.00  0.00    +0.000 N 
ATOM      7  H   UNL     1       6.112   3.600  16.854  0.00  0.00    +0.000 HD
ENDBRANCH   1   2
BRANCH   1   9
ATOM      8  C   UNL     1       1.918   4.073  17.733  0.00  0.00    +0.000 C 
ATOM      9  C   UNL     1       3.221   4.837  18.001  0.00  0.00    +0.000 C 
ATOM     10  C   UNL     1       2.863   6.178  18.663  0.00  0.00    +0.000 C 
ENDBRANCH   1   9
BRANCH   1  11
ATOM     11  N   UNL     1       4.199   2.580  18.518  0.00  0.00    +0.000 NA
ATOM     12  H   UNL     1       3.591   2.470  17.702  0.00  0.00    +0.000 HD
ATOM     13  H   UNL     1       3.759   2.051  19.265  0.00  0.00    +0.000 HD
ENDBRANCH   1  11
TORSDOF 3
ENDMDL
