MODEL 1
REMARK VINA RESULT:      -9.1      0.000      0.000
REMARK  Name = 
REMARK  7 active torsions:
REMARK  status: ('A' for Active; 'I' for Inactive)
REMARK    1  A    between atoms: C_1  and  C_2
REMARK    2  A    between atoms: C_2  and  C_3
REMARK    3  A    between atoms: C_2  and  C_4
REMARK    4  A    between atoms: C_2  and  C_5
REMARK    5  A    between atoms: C_8  and  C_9
REMARK    6  A    between atoms: C_13  and  C_14
REMARK    7  A    between atoms: C_14  and  C_15
REMARK                            x       y       z     vdW  Elec       q    Type
REMARK                         _______ _______ _______ _____ _____    ______ ____
ROOT
ATOM      1  C   UNL     1       8.275   8.983  18.332  0.00  0.00    +0.000 A 
ATOM      2  C   UNL     1       7.288   8.736  17.336  0.00  0.00    +0.000 A 
ATOM      3  C   UNL     1       7.035   7.396  17.411  0.00  0.00    +0.000 A 
ATOM      4  N   UNL     1       6.231   6.551  16.727  0.00  0.00    +0.000 N 
ATOM      5  C   UNL     1       6.183   5.195  17.027  0.00  0.00    +0.000 A 
ATOM      6  C   UNL     1       6.926   4.676  18.027  0.00  0.00    +0.000 A 
ATOM      7  C   UNL     1       7.841   5.547  18.818  0.00  0.00    +0.000 A 
ATOM      8  O   UNL     1       8.543   5.134  19.731  0.00  0.00    +0.000 OA
ATOM      9  N   UNL     1       7.822   6.896  18.427  0.00  0.00    +0.000 N 
ATOM     10  N   UNL     1       8.589   7.859  18.999  0.00  0.00    +0.000 NA
ATOM     11  H   UNL     1       5.660   6.869  15.946  0.00  0.00    +0.000 HD
ENDROOT
BRANCH   1  15
ATOM     12  C   UNL     1      10.143  12.768  19.210  0.00  0.00    +0.000 A 
ATOM     13  C   UNL     1      10.217  11.687  20.106  0.00  0.00    +0.000 A 
ATOM     14  C   UNL     1       9.631  10.449  19.813  0.00  0.00    +0.000 A 
ATOM     15  C   UNL     1       8.929  10.259  18.621  0.00  0.00    +0.000 A 
ATOM     16  C   UNL     1       8.829  11.329  17.728  0.00  0.00    +0.000 A 
ATOM     17  C   UNL     1       9.416  12.566  18.024  0.00  0.00    +0.000 A 
BRANCH  12  19
ATOM     18  C   UNL     1      10.250  15.262  18.660  0.00  0.00    +0.000 C 
ATOM     19  C   UNL     1      10.812  14.116  19.534  0.00  0.00    +0.000 C 
ATOM     20  C   UNL     1      12.326  13.995  19.276  0.00  0.00    +0.000 C 
ATOM     21  C   UNL     1      10.599  14.546  21.004  0.00  0.00    +0.000 C 
ENDBRANCH  12  19
ENDBRANCH   1  15
BRANCH   5  22
ATOM     22  C   UNL     1       5.212   4.330  16.246  0.00  0.00    +0.000 C 
BRANCH  22  23
ATOM     23  C   UNL     1       3.982   3.918  17.021  0.00  0.00    +0.000 A 
ATOM     24  C   UNL     1       3.073   4.889  17.467  0.00  0.00    +0.000 A 
ATOM     25  C   UNL     1       1.905   4.517  18.135  0.00  0.00    +0.000 A 
ATOM     26  C   UNL     1       1.637   3.171  18.372  0.00  0.00    +0.000 A 
ATOM     27  C   UNL     1       2.542   2.198  17.955  0.00  0.00    +0.000 A 
ATOM     28  C   UNL     1       3.712   2.568  17.286  0.00  0.00    +0.000 A 
ENDBRANCH  22  23
ENDBRANCH   5  22
TORSDOF 4
ENDMDL
MODEL 2
REMARK VINA RESULT:      -8.9      0.214      1.323
REMARK  Name = 
REMARK  7 active torsions:
REMARK  status: ('A' for Active; 'I' for Inactive)
REMARK    1  A    between atoms: C_1  and  C_2
REMARK    2  A    between atoms: C_2  and  C_3
REMARK    3  A    between atoms: C_2  and  C_4
REMARK    4  A    between atoms: C_2  and  C_5
REMARK    5  A    between atoms: C_8  and  C_9
REMARK    6  A    between atoms: C_13  and  C_14
REMARK    7  A    between atoms: C_14  and  C_15
REMARK                            x       y       z     vdW  Elec       q    Type
REMARK                         _______ _______ _______ _____ _____    ______ ____
ROOT
ATOM      1  C   UNL     1       8.248   8.986  18.250  0.00  0.00    +0.000 A 
ATOM      2  C   UNL     1       7.264   8.699  17.262  0.00  0.00    +0.000 A 
ATOM      3  C   UNL     1       7.027   7.358  17.375  0.00  0.00    +0.000 A 
ATOM      4  N   UNL     1       6.233   6.485  16.715  0.00  0.00    +0.000 N 
ATOM      5  C   UNL     1       6.202   5.137  17.054  0.00  0.00    +0.000 A 
ATOM      6  C   UNL     1       6.952   4.656  18.067  0.00  0.00    +0.000 A 
ATOM      7  C   UNL     1       7.857   5.560  18.833  0.00  0.00    +0.000 A 
ATOM      8  O   UNL     1       8.564   5.181  19.757  0.00  0.00    +0.000 OA
ATOM      9  N   UNL     1       7.820   6.897  18.404  0.00  0.00    +0.000 N 
ATOM     10  N   UNL     1       8.576   7.885  18.949  0.00  0.00    +0.000 NA
ATOM     11  H   UNL     1       5.659   6.774  15.927  0.00  0.00    +0.000 HD
ENDROOT
BRANCH   1  15
ATOM     12  C   UNL     1      10.191  12.769  18.961  0.00  0.00    +0.000 A 
ATOM     13  C   UNL     1       9.374  12.562  17.835  0.00  0.00    +0.000 A 
ATOM     14  C   UNL     1       8.723  11.343  17.613  0.00  0.00    +0.000 A 
ATOM     15  C   UNL     1       8.887  10.278  18.503  0.00  0.00    +0.000 A 
ATOM     16  C   UNL     1       9.711  10.459  19.616  0.00  0.00    +0.000 A 
ATOM     17  C   UNL     1      10.361  11.681  19.834  0.00  0.00    +0.000 A 
BRANCH  12  19
ATOM     18  C   UNL     1      10.158  15.277  18.471  0.00  0.00    +0.000 C 
ATOM     19  C   UNL     1      10.881  14.123  19.204  0.00  0.00    +0.000 C 
ATOM     20  C   UNL     1      12.331  14.042  18.688  0.00  0.00    +0.000 C 
ATOM     21  C   UNL     1      10.915  14.512  20.700  0.00  0.00    +0.000 C 
ENDBRANCH  12  19
ENDBRANCH   1  15
BRANCH   5  22
ATOM     22  C   UNL     1       5.242   4.239  16.298  0.00  0.00    +0.000 C 
BRANCH  22  23
ATOM     23  C   UNL     1       3.960   3.935  17.038  0.00  0.00    +0.000 A 
ATOM     24  C   UNL     1       3.551   2.606  17.223  0.00  0.00    +0.000 A 
ATOM     25  C   UNL     1       2.398   2.311  17.954  0.00  0.00    +0.000 A 
ATOM     26  C   UNL     1       1.637   3.342  18.499  0.00  0.00    +0.000 A 
ATOM     27  C   UNL     1       2.019   4.668  18.304  0.00  0.00    +0.000 A 
ATOM     28  C   UNL     1       3.173   4.965  17.572  0.00  0.00    +0.000 A 
ENDBRANCH  22  23
ENDBRANCH   5  22
TORSDOF 4
ENDMDL
MODEL 3
REMARK VINA RESULT:      -8.9      0.322      1.326
REMARK  Name = 
REMARK  7 active torsions:
REMARK  status: ('A' for Active; 'I' for Inactive)
REMARK    1  A    between atoms: C_1  and  C_2
REMARK    2  A    between atoms: C_2  and  C_3
REMARK    3  A    between atoms: C_2  and  C_4
REMARK    4  A    between atoms: C_2  and  C_5
REMARK    5  A    between atoms: C_8  and  C_9
REMARK    6  A    between atoms: C_13  and  C_14
REMARK    7  A    between atoms: C_14  and  C_15
REMARK                            x       y       z     vdW  Elec       q    Type
REMARK                         _______ _______ _______ _____ _____    ______ ____
ROOT
ATOM      1  C   UNL     1       8.212   8.971  18.189  0.00  0.00    +0.000 A 
ATOM      2  C   UNL     1       7.213   8.697  17.212  0.00  0.00    +0.000 A 
ATOM      3  C   UNL     1       6.949   7.362  17.339  0.00  0.00    +0.000 A 
ATOM      4  N   UNL     1       6.131   6.501  16.694  0.00  0.00    +0.000 N 
ATOM      5  C   UNL     1       6.073   5.157  17.045  0.00  0.00    +0.000 A 
ATOM      6  C   UNL     1       6.822   4.668  18.056  0.00  0.00    +0.000 A 
ATOM      7  C   UNL     1       7.752   5.560  18.806  0.00  0.00    +0.000 A 
ATOM      8  O   UNL     1       8.459   5.174  19.727  0.00  0.00    +0.000 OA
ATOM      9  N   UNL     1       7.741   6.893  18.366  0.00  0.00    +0.000 N 
ATOM     10  N   UNL     1       8.522   7.870  18.895  0.00  0.00    +0.000 NA
ATOM     11  H   UNL     1       5.556   6.794  15.908  0.00  0.00    +0.000 HD
ENDROOT
BRANCH   1  15
ATOM     12  C   UNL     1      10.130  12.761  18.927  0.00  0.00    +0.000 A 
ATOM     13  C   UNL     1      10.474  11.609  19.656  0.00  0.00    +0.000 A 
ATOM     14  C   UNL     1       9.870  10.372  19.403  0.00  0.00    +0.000 A 
ATOM     15  C   UNL     1       8.880  10.251  18.424  0.00  0.00    +0.000 A 
ATOM     16  C   UNL     1       8.512  11.390  17.704  0.00  0.00    +0.000 A 
ATOM     17  C   UNL     1       9.119  12.627  17.960  0.00  0.00    +0.000 A 
BRANCH  12  19
ATOM     18  C   UNL     1      12.326  13.934  19.508  0.00  0.00    +0.000 C 
ATOM     19  C   UNL     1      10.820  14.110  19.200  0.00  0.00    +0.000 C 
ATOM     20  C   UNL     1      10.143  14.779  20.412  0.00  0.00    +0.000 C 
ATOM     21  C   UNL     1      10.732  15.076  17.996  0.00  0.00    +0.000 C 
ENDBRANCH  12  19
ENDBRANCH   1  15
BRANCH   5  22
ATOM     22  C   UNL     1       5.088   4.272  16.305  0.00  0.00    +0.000 C 
BRANCH  22  23
ATOM     23  C   UNL     1       3.840   3.939  17.090  0.00  0.00    +0.000 A 
ATOM     24  C   UNL     1       3.510   2.601  17.352  0.00  0.00    +0.000 A 
ATOM     25  C   UNL     1       2.391   2.282  18.125  0.00  0.00    +0.000 A 
ATOM     26  C   UNL     1       1.585   3.297  18.635  0.00  0.00    +0.000 A 
ATOM     27  C   UNL     1       1.889   4.630  18.364  0.00  0.00    +0.000 A 
ATOM     28  C   UNL     1       3.009   4.950  17.591  0.00  0.00    +0.000 A 
ENDBRANCH  22  23
ENDBRANCH   5  22
TORSDOF 4
ENDMDL
MODEL 4
REMARK VINA RESULT:      -8.8      0.377      1.251
REMARK  Name = 
REMARK  7 active torsions:
REMARK  status: ('A' for Active; 'I' for Inactive)
REMARK    1  A    between atoms: C_1  and  C_2
REMARK    2  A    between atoms: C_2  and  C_3
REMARK    3  A    between atoms: C_2  and  C_4
REMARK    4  A    between atoms: C_2  and  C_5
REMARK    5  A    between atoms: C_8  and  C_9
REMARK    6  A    between atoms: C_13  and  C_14
REMARK    7  A    between atoms: C_14  and  C_15
REMARK                            x       y       z     vdW  Elec       q    Type
REMARK                         _______ _______ _______ _____ _____    ______ ____
ROOT
ATOM      1  C   UNL     1       8.243   8.971  18.207  0.00  0.00    +0.000 A 
ATOM      2  C   UNL     1       7.289   8.644  17.203  0.00  0.00    +0.000 A 
ATOM      3  C   UNL     1       7.042   7.310  17.368  0.00  0.00    +0.000 A 
ATOM      4  N   UNL     1       6.265   6.411  16.723  0.00  0.00    +0.000 N 
ATOM      5  C   UNL     1       6.217   5.079  17.119  0.00  0.00    +0.000 A 
ATOM      6  C   UNL     1       6.934   4.641  18.175  0.00  0.00    +0.000 A 
ATOM      7  C   UNL     1       7.819   5.575  18.928  0.00  0.00    +0.000 A 
ATOM      8  O   UNL     1       8.497   5.236  19.889  0.00  0.00    +0.000 OA
ATOM      9  N   UNL     1       7.802   6.892  18.440  0.00  0.00    +0.000 N 
ATOM     10  N   UNL     1       8.545   7.901  18.963  0.00  0.00    +0.000 NA
ATOM     11  H   UNL     1       5.716   6.666  15.905  0.00  0.00    +0.000 HD
ENDROOT
BRANCH   1  15
ATOM     12  C   UNL     1      10.167  12.785  18.786  0.00  0.00    +0.000 A 
ATOM     13  C   UNL     1       9.045  12.648  17.949  0.00  0.00    +0.000 A 
ATOM     14  C   UNL     1       8.404  11.415  17.777  0.00  0.00    +0.000 A 
ATOM     15  C   UNL     1       8.880  10.270  18.421  0.00  0.00    +0.000 A 
ATOM     16  C   UNL     1      10.006  10.385  19.240  0.00  0.00    +0.000 A 
ATOM     17  C   UNL     1      10.645  11.620  19.410  0.00  0.00    +0.000 A 
BRANCH  12  19
ATOM     18  C   UNL     1      12.333  14.122  18.553  0.00  0.00    +0.000 C 
ATOM     19  C   UNL     1      10.848  14.152  18.984  0.00  0.00    +0.000 C 
ATOM     20  C   UNL     1      10.774  14.533  20.476  0.00  0.00    +0.000 C 
ATOM     21  C   UNL     1      10.178  15.275  18.159  0.00  0.00    +0.000 C 
ENDBRANCH  12  19
ENDBRANCH   1  15
BRANCH   5  22
ATOM     22  C   UNL     1       5.277   4.151  16.375  0.00  0.00    +0.000 C 
BRANCH  22  23
ATOM     23  C   UNL     1       3.966   3.895  17.082  0.00  0.00    +0.000 A 
ATOM     24  C   UNL     1       3.233   4.966  17.617  0.00  0.00    +0.000 A 
ATOM     25  C   UNL     1       1.994   4.748  18.223  0.00  0.00    +0.000 A 
ATOM     26  C   UNL     1       1.478   3.457  18.309  0.00  0.00    +0.000 A 
ATOM     27  C   UNL     1       2.206   2.382  17.802  0.00  0.00    +0.000 A 
ATOM     28  C   UNL     1       3.446   2.598  17.195  0.00  0.00    +0.000 A 
ENDBRANCH  22  23
ENDBRANCH   5  22
TORSDOF 4
ENDMDL
MODEL 5
REMARK VINA RESULT:      -8.8      6.701      8.965
REMARK  Name = 
REMARK  7 active torsions:
REMARK  status: ('A' for Active; 'I' for Inactive)
REMARK    1  A    between atoms: C_1  and  C_2
REMARK    2  A    between atoms: C_2  and  C_3
REMARK    3  A    between atoms: C_2  and  C_4
REMARK    4  A    between atoms: C_2  and  C_5
REMARK    5  A    between atoms: C_8  and  C_9
REMARK    6  A    between atoms: C_13  and  C_14
REMARK    7  A    between atoms: C_14  and  C_15
REMARK                            x       y       z     vdW  Elec       q    Type
REMARK                         _______ _______ _______ _____ _____    ______ ____
ROOT
ATOM      1  C   UNL     1       0.610   9.250  20.729  0.00  0.00    +0.000 A 
ATOM      2  C   UNL     1       1.078   8.040  21.314  0.00  0.00    +0.000 A 
ATOM      3  C   UNL     1       1.849   7.454  20.351  0.00  0.00    +0.000 A 
ATOM      4  N   UNL     1       2.542   6.294  20.278  0.00  0.00    +0.000 N 
ATOM      5  C   UNL     1       3.250   5.946  19.134  0.00  0.00    +0.000 A 
ATOM      6  C   UNL     1       3.286   6.763  18.060  0.00  0.00    +0.000 A 
ATOM      7  C   UNL     1       2.539   8.054  18.068  0.00  0.00    +0.000 A 
ATOM      8  O   UNL     1       2.529   8.832  17.124  0.00  0.00    +0.000 OA
ATOM      9  N   UNL     1       1.849   8.304  19.266  0.00  0.00    +0.000 N 
ATOM     10  N   UNL     1       1.091   9.409  19.484  0.00  0.00    +0.000 NA
ATOM     11  H   UNL     1       2.541   5.621  21.040  0.00  0.00    +0.000 HD
ENDROOT
BRANCH   1  15
ATOM     12  C   UNL     1      -2.026  12.149  22.526  0.00  0.00    +0.000 A 
ATOM     13  C   UNL     1      -1.695  12.205  21.161  0.00  0.00    +0.000 A 
ATOM     14  C   UNL     1      -0.857  11.251  20.569  0.00  0.00    +0.000 A 
ATOM     15  C   UNL     1      -0.303  10.220  21.332  0.00  0.00    +0.000 A 
ATOM     16  C   UNL     1      -0.607  10.162  22.694  0.00  0.00    +0.000 A 
ATOM     17  C   UNL     1      -1.444  11.118  23.283  0.00  0.00    +0.000 A 
BRANCH  12  19
ATOM     18  C   UNL     1      -3.933  12.547  24.181  0.00  0.00    +0.000 C 
ATOM     19  C   UNL     1      -2.967  13.191  23.158  0.00  0.00    +0.000 C 
ATOM     20  C   UNL     1      -3.799  13.853  22.042  0.00  0.00    +0.000 C 
ATOM     21  C   UNL     1      -2.202  14.298  23.920  0.00  0.00    +0.000 C 
ENDBRANCH  12  19
ENDBRANCH   1  15
BRANCH   5  22
ATOM     22  C   UNL     1       4.044   4.653  19.157  0.00  0.00    +0.000 C 
BRANCH  22  23
ATOM     23  C   UNL     1       5.081   4.540  18.065  0.00  0.00    +0.000 A 
ATOM     24  C   UNL     1       4.718   4.068  16.794  0.00  0.00    +0.000 A 
ATOM     25  C   UNL     1       5.655   4.013  15.761  0.00  0.00    +0.000 A 
ATOM     26  C   UNL     1       6.968   4.420  15.988  0.00  0.00    +0.000 A 
ATOM     27  C   UNL     1       7.347   4.869  17.251  0.00  0.00    +0.000 A 
ATOM     28  C   UNL     1       6.411   4.925  18.287  0.00  0.00    +0.000 A 
ENDBRANCH  22  23
ENDBRANCH   5  22
TORSDOF 4
ENDMDL
MODEL 6
REMARK VINA RESULT:      -8.8      6.793      8.998
REMARK  Name = 
REMARK  7 active torsions:
REMARK  status: ('A' for Active; 'I' for Inactive)
REMARK    1  A    between atoms: C_1  and  C_2
REMARK    2  A    between atoms: C_2  and  C_3
REMARK    3  A    between atoms: C_2  and  C_4
REMARK    4  A    between atoms: C_2  and  C_5
REMARK    5  A    between atoms: C_8  and  C_9
REMARK    6  A    between atoms: C_13  and  C_14
REMARK    7  A    between atoms: C_14  and  C_15
REMARK                            x       y       z     vdW  Elec       q    Type
REMARK                         _______ _______ _______ _____ _____    ______ ____
ROOT
ATOM      1  C   UNL     1       0.574   9.378  20.775  0.00  0.00    +0.000 A 
ATOM      2  C   UNL     1       1.031   8.170  21.373  0.00  0.00    +0.000 A 
ATOM      3  C   UNL     1       1.783   7.558  20.411  0.00  0.00    +0.000 A 
ATOM      4  N   UNL     1       2.458   6.388  20.347  0.00  0.00    +0.000 N 
ATOM      5  C   UNL     1       3.149   6.013  19.201  0.00  0.00    +0.000 A 
ATOM      6  C   UNL     1       3.185   6.814  18.115  0.00  0.00    +0.000 A 
ATOM      7  C   UNL     1       2.457   8.115  18.112  0.00  0.00    +0.000 A 
ATOM      8  O   UNL     1       2.447   8.880  17.157  0.00  0.00    +0.000 OA
ATOM      9  N   UNL     1       1.783   8.393  19.313  0.00  0.00    +0.000 N 
ATOM     10  N   UNL     1       1.044   9.512  19.522  0.00  0.00    +0.000 NA
ATOM     11  H   UNL     1       2.456   5.726  21.119  0.00  0.00    +0.000 HD
ENDROOT
BRANCH   1  15
ATOM     12  C   UNL     1      -2.116  12.261  22.518  0.00  0.00    +0.000 A 
ATOM     13  C   UNL     1      -1.551  11.227  23.284  0.00  0.00    +0.000 A 
ATOM     14  C   UNL     1      -0.660  10.303  22.726  0.00  0.00    +0.000 A 
ATOM     15  C   UNL     1      -0.319  10.370  21.373  0.00  0.00    +0.000 A 
ATOM     16  C   UNL     1      -0.887  11.380  20.592  0.00  0.00    +0.000 A 
ATOM     17  C   UNL     1      -1.779  12.303  21.153  0.00  0.00    +0.000 A 
BRANCH  12  19
ATOM     18  C   UNL     1      -2.313  14.435  23.847  0.00  0.00    +0.000 C 
ATOM     19  C   UNL     1      -3.076  13.285  23.149  0.00  0.00    +0.000 C 
ATOM     20  C   UNL     1      -3.952  12.567  24.195  0.00  0.00    +0.000 C 
ATOM     21  C   UNL     1      -4.005  13.949  22.107  0.00  0.00    +0.000 C 
ENDBRANCH  12  19
ENDBRANCH   1  15
BRANCH   5  22
ATOM     22  C   UNL     1       3.924   4.710  19.235  0.00  0.00    +0.000 C 
BRANCH  22  23
ATOM     23  C   UNL     1       5.050   4.629  18.231  0.00  0.00    +0.000 A 
ATOM     24  C   UNL     1       4.817   4.101  16.952  0.00  0.00    +0.000 A 
ATOM     25  C   UNL     1       5.835   4.074  15.997  0.00  0.00    +0.000 A 
ATOM     26  C   UNL     1       7.100   4.565  16.312  0.00  0.00    +0.000 A 
ATOM     27  C   UNL     1       7.351   5.071  17.585  0.00  0.00    +0.000 A 
ATOM     28  C   UNL     1       6.334   5.099  18.543  0.00  0.00    +0.000 A 
ENDBRANCH  22  23
ENDBRANCH   5  22
TORSDOF 4
ENDMDL
MODEL 7
REMARK VINA RESULT:      -8.8      6.921      9.091
REMARK  Name = 
REMARK  7 active torsions:
REMARK  status: ('A' for Active; 'I' for Inactive)
REMARK    1  A    between atoms: C_1  and  C_2
REMARK    2  A    between atoms: C_2  and  C_3
REMARK    3  A    between atoms: C_2  and  C_4
REMARK    4  A    between atoms: C_2  and  C_5
REMARK    5  A    between atoms: C_8  and  C_9
REMARK    6  A    between atoms: C_13  and  C_14
REMARK    7  A    between atoms: C_14  and  C_15
REMARK                            x       y       z     vdW  Elec       q    Type
REMARK                         _______ _______ _______ _____ _____    ______ ____
ROOT
ATOM      1  C   UNL     1       0.467   9.494  20.851  0.00  0.00    +0.000 A 
ATOM      2  C   UNL     1       0.949   8.307  21.473  0.00  0.00    +0.000 A 
ATOM      3  C   UNL     1       1.701   7.685  20.517  0.00  0.00    +0.000 A 
ATOM      4  N   UNL     1       2.393   6.524  20.473  0.00  0.00    +0.000 N 
ATOM      5  C   UNL     1       3.077   6.132  19.328  0.00  0.00    +0.000 A 
ATOM      6  C   UNL     1       3.089   6.908  18.224  0.00  0.00    +0.000 A 
ATOM      7  C   UNL     1       2.340   8.197  18.198  0.00  0.00    +0.000 A 
ATOM      8  O   UNL     1       2.309   8.939  17.225  0.00  0.00    +0.000 OA
ATOM      9  N   UNL     1       1.676   8.493  19.400  0.00  0.00    +0.000 N 
ATOM     10  N   UNL     1       0.921   9.605  19.591  0.00  0.00    +0.000 NA
ATOM     11  H   UNL     1       2.409   5.880  21.260  0.00  0.00    +0.000 HD
ENDROOT
BRANCH   1  15
ATOM     12  C   UNL     1      -2.248  12.377  22.554  0.00  0.00    +0.000 A 
ATOM     13  C   UNL     1      -1.685  11.350  23.331  0.00  0.00    +0.000 A 
ATOM     14  C   UNL     1      -0.785  10.426  22.787  0.00  0.00    +0.000 A 
ATOM     15  C   UNL     1      -0.435  10.486  21.436  0.00  0.00    +0.000 A 
ATOM     16  C   UNL     1      -1.001  11.488  20.644  0.00  0.00    +0.000 A 
ATOM     17  C   UNL     1      -1.902  12.410  21.192  0.00  0.00    +0.000 A 
BRANCH  12  19
ATOM     18  C   UNL     1      -4.137  12.754  24.235  0.00  0.00    +0.000 C 
ATOM     19  C   UNL     1      -3.218  13.401  23.171  0.00  0.00    +0.000 C 
ATOM     20  C   UNL     1      -4.098  13.991  22.052  0.00  0.00    +0.000 C 
ATOM     21  C   UNL     1      -2.484  14.563  23.880  0.00  0.00    +0.000 C 
ENDBRANCH  12  19
ENDBRANCH   1  15
BRANCH   5  22
ATOM     22  C   UNL     1       3.873   4.842  19.385  0.00  0.00    +0.000 C 
BRANCH  22  23
ATOM     23  C   UNL     1       5.040   4.789  18.426  0.00  0.00    +0.000 A 
ATOM     24  C   UNL     1       6.299   5.263  18.823  0.00  0.00    +0.000 A 
ATOM     25  C   UNL     1       7.398   5.167  17.966  0.00  0.00    +0.000 A 
ATOM     26  C   UNL     1       7.248   4.604  16.701  0.00  0.00    +0.000 A 
ATOM     27  C   UNL     1       5.998   4.149  16.286  0.00  0.00    +0.000 A 
ATOM     28  C   UNL     1       4.897   4.245  17.142  0.00  0.00    +0.000 A 
ENDBRANCH  22  23
ENDBRANCH   5  22
TORSDOF 4
ENDMDL
MODEL 8
REMARK VINA RESULT:      -8.7      1.770      3.153
REMARK  Name = 
REMARK  7 active torsions:
REMARK  status: ('A' for Active; 'I' for Inactive)
REMARK    1  A    between atoms: C_1  and  C_2
REMARK    2  A    between atoms: C_2  and  C_3
REMARK    3  A    between atoms: C_2  and  C_4
REMARK    4  A    between atoms: C_2  and  C_5
REMARK    5  A    between atoms: C_8  and  C_9
REMARK    6  A    between atoms: C_13  and  C_14
REMARK    7  A    between atoms: C_14  and  C_15
REMARK                            x       y       z     vdW  Elec       q    Type
REMARK                         _______ _______ _______ _____ _____    ______ ____
ROOT
ATOM      1  C   UNL     1       8.391   9.046  18.362  0.00  0.00    +0.000 A 
ATOM      2  C   UNL     1       7.533   8.803  17.253  0.00  0.00    +0.000 A 
ATOM      3  C   UNL     1       7.274   7.462  17.291  0.00  0.00    +0.000 A 
ATOM      4  N   UNL     1       6.560   6.620  16.510  0.00  0.00    +0.000 N 
ATOM      5  C   UNL     1       6.477   5.262  16.796  0.00  0.00    +0.000 A 
ATOM      6  C   UNL     1       7.094   4.739  17.877  0.00  0.00    +0.000 A 
ATOM      7  C   UNL     1       7.905   5.607  18.777  0.00  0.00    +0.000 A 
ATOM      8  O   UNL     1       8.492   5.191  19.767  0.00  0.00    +0.000 OA
ATOM      9  N   UNL     1       7.932   6.958  18.393  0.00  0.00    +0.000 N 
ATOM     10  N   UNL     1       8.622   7.919  19.058  0.00  0.00    +0.000 NA
ATOM     11  H   UNL     1       6.088   6.940  15.668  0.00  0.00    +0.000 HD
ENDROOT
BRANCH   1  15
ATOM     12  C   UNL     1      10.136  12.824  19.486  0.00  0.00    +0.000 A 
ATOM     13  C   UNL     1      10.238  11.693  20.314  0.00  0.00    +0.000 A 
ATOM     14  C   UNL     1       9.693  10.459  19.941  0.00  0.00    +0.000 A 
ATOM     15  C   UNL     1       9.004  10.321  18.734  0.00  0.00    +0.000 A 
ATOM     16  C   UNL     1       8.875  11.441  17.908  0.00  0.00    +0.000 A 
ATOM     17  C   UNL     1       9.422  12.674  18.284  0.00  0.00    +0.000 A 
BRANCH  12  19
ATOM     18  C   UNL     1      12.299  14.164  19.729  0.00  0.00    +0.000 C 
ATOM     19  C   UNL     1      10.761  14.170  19.897  0.00  0.00    +0.000 C 
ATOM     20  C   UNL     1      10.427  14.442  21.377  0.00  0.00    +0.000 C 
ATOM     21  C   UNL     1      10.236  15.352  19.051  0.00  0.00    +0.000 C 
ENDBRANCH  12  19
ENDBRANCH   1  15
BRANCH   5  22
ATOM     22  C   UNL     1       5.610   4.400  15.899  0.00  0.00    +0.000 C 
BRANCH  22  23
ATOM     23  C   UNL     1       6.122   4.262  14.485  0.00  0.00    +0.000 A 
ATOM     24  C   UNL     1       5.429   3.469  13.558  0.00  0.00    +0.000 A 
ATOM     25  C   UNL     1       5.861   3.379  12.233  0.00  0.00    +0.000 A 
ATOM     26  C   UNL     1       6.996   4.074  11.823  0.00  0.00    +0.000 A 
ATOM     27  C   UNL     1       7.708   4.847  12.738  0.00  0.00    +0.000 A 
ATOM     28  C   UNL     1       7.277   4.937  14.064  0.00  0.00    +0.000 A 
ENDBRANCH  22  23
ENDBRANCH   5  22
TORSDOF 4
ENDMDL
MODEL 9
REMARK VINA RESULT:      -8.6      7.076      8.886
REMARK  Name = 
REMARK  7 active torsions:
REMARK  status: ('A' for Active; 'I' for Inactive)
REMARK    1  A    between atoms: C_1  and  C_2
REMARK    2  A    between atoms: C_2  and  C_3
REMARK    3  A    between atoms: C_2  and  C_4
REMARK    4  A    between atoms: C_2  and  C_5
REMARK    5  A    between atoms: C_8  and  C_9
REMARK    6  A    between atoms: C_13  and  C_14
REMARK    7  A    between atoms: C_14  and  C_15
REMARK                            x       y       z     vdW  Elec       q    Type
REMARK                         _______ _______ _______ _____ _____    ______ ____
ROOT
ATOM      1  C   UNL     1       0.627   9.712  20.911  0.00  0.00    +0.000 A 
ATOM      2  C   UNL     1       1.067   8.499  21.512  0.00  0.00    +0.000 A 
ATOM      3  C   UNL     1       1.723   7.827  20.520  0.00  0.00    +0.000 A 
ATOM      4  N   UNL     1       2.336   6.625  20.445  0.00  0.00    +0.000 N 
ATOM      5  C   UNL     1       2.930   6.186  19.267  0.00  0.00    +0.000 A 
ATOM      6  C   UNL     1       2.929   6.956  18.159  0.00  0.00    +0.000 A 
ATOM      7  C   UNL     1       2.264   8.291  18.166  0.00  0.00    +0.000 A 
ATOM      8  O   UNL     1       2.225   9.030  17.192  0.00  0.00    +0.000 OA
ATOM      9  N   UNL     1       1.687   8.632  19.401  0.00  0.00    +0.000 N 
ATOM     10  N   UNL     1       1.017   9.791  19.627  0.00  0.00    +0.000 NA
ATOM     11  H   UNL     1       2.355   5.983  21.235  0.00  0.00    +0.000 HD
ENDROOT
BRANCH   1  15
ATOM     12  C   UNL     1      -1.685  12.819  22.804  0.00  0.00    +0.000 A 
ATOM     13  C   UNL     1      -0.931  13.068  21.644  0.00  0.00    +0.000 A 
ATOM     14  C   UNL     1      -0.197  12.056  21.014  0.00  0.00    +0.000 A 
ATOM     15  C   UNL     1      -0.176  10.761  21.538  0.00  0.00    +0.000 A 
ATOM     16  C   UNL     1      -0.904  10.501  22.702  0.00  0.00    +0.000 A 
ATOM     17  C   UNL     1      -1.637  11.517  23.330  0.00  0.00    +0.000 A 
BRANCH  12  19
ATOM     18  C   UNL     1      -1.650  14.768  24.458  0.00  0.00    +0.000 C 
ATOM     19  C   UNL     1      -2.506  13.936  23.473  0.00  0.00    +0.000 C 
ATOM     20  C   UNL     1      -3.674  13.298  24.251  0.00  0.00    +0.000 C 
ATOM     21  C   UNL     1      -3.089  14.939  22.451  0.00  0.00    +0.000 C 
ENDBRANCH  12  19
ENDBRANCH   1  15
BRANCH   5  22
ATOM     22  C   UNL     1       3.643   4.848  19.288  0.00  0.00    +0.000 C 
BRANCH  22  23
ATOM     23  C   UNL     1       4.917   4.810  18.475  0.00  0.00    +0.000 A 
ATOM     24  C   UNL     1       6.118   5.284  19.024  0.00  0.00    +0.000 A 
ATOM     25  C   UNL     1       7.311   5.202  18.304  0.00  0.00    +0.000 A 
ATOM     26  C   UNL     1       7.316   4.653  17.024  0.00  0.00    +0.000 A 
ATOM     27  C   UNL     1       6.126   4.199  16.458  0.00  0.00    +0.000 A 
ATOM     28  C   UNL     1       4.931   4.281  17.177  0.00  0.00    +0.000 A 
ENDBRANCH  22  23
ENDBRANCH   5  22
TORSDOF 4
ENDMDL
