MODEL 1
REMARK VINA RESULT:      -8.0      0.000      0.000
REMARK  Name = 
REMARK  10 active torsions:
REMARK  status: ('A' for Active; 'I' for Inactive)
REMARK    1  A    between atoms: C_1  and  O_2
REMARK    2  A    between atoms: O_2  and  C_3
REMARK    3  A    between atoms: C_7  and  C_8
REMARK    4  A    between atoms: C_9  and  C_10
REMARK    5  A    between atoms: C_10  and  O_12
REMARK    6  A    between atoms: O_12  and  C_13
REMARK    7  A    between atoms: C_13  and  C_14
REMARK    8  A    between atoms: N_16  and  C_17
REMARK    9  A    between atoms: C_17  and  C_18
REMARK   10  A    between atoms: C_18  and  C_19
REMARK                            x       y       z     vdW  Elec       q    Type
REMARK                         _______ _______ _______ _____ _____    ______ ____
ROOT
ATOM      1  O   UNL     1       7.624   6.373  16.574  0.00  0.00    +0.000 OA
ENDROOT
BRANCH   1   2
ATOM      2  C   UNL     1       7.019   7.261  17.396  0.00  0.00    +0.000 C 
ATOM      3  O   UNL     1       5.817   7.363  17.587  0.00  0.00    +0.000 OA
BRANCH   2   5
ATOM      4  C   UNL     1       8.125   9.403  17.839  0.00  0.00    +0.000 C 
ATOM      5  C   UNL     1       8.068   8.077  18.039  0.00  0.00    +0.000 C 
BRANCH   4  10
ATOM      6  C   UNL     1      11.003  11.840  18.303  0.00  0.00    +0.000 A 
ATOM      7  C   UNL     1      11.057  11.908  19.694  0.00  0.00    +0.000 A 
ATOM      8  C   UNL     1      10.162  11.173  20.472  0.00  0.00    +0.000 A 
ATOM      9  C   UNL     1       9.201  10.367  19.855  0.00  0.00    +0.000 A 
ATOM     10  C   UNL     1       9.119  10.298  18.459  0.00  0.00    +0.000 A 
ATOM     11  C   UNL     1      10.034  11.035  17.692  0.00  0.00    +0.000 A 
BRANCH   6  13
ATOM     12  C   UNL     1      12.330  13.809  18.260  0.00  0.00    +0.000 C 
ATOM     13  O   UNL     1      11.946  12.584  17.647  0.00  0.00    +0.000 OA
ENDBRANCH   6  13
ENDBRANCH   4  10
ENDBRANCH   2   5
ENDBRANCH   1   2
BRANCH   1  14
ATOM     14  C   UNL     1       7.591   5.020  17.024  0.00  0.00    +0.000 C 
BRANCH  14  15
ATOM     15  C   UNL     1       6.375   4.253  16.503  0.00  0.00    +0.000 C 
ATOM     16  O   UNL     1       6.304   3.863  15.340  0.00  0.00    +0.000 OA
ATOM     17  N   UNL     1       5.377   4.036  17.436  0.00  0.00    +0.000 N 
ATOM     18  H   UNL     1       5.627   4.133  18.420  0.00  0.00    +0.000 HD
BRANCH  17  19
ATOM     19  C   UNL     1       4.214   3.252  17.061  0.00  0.00    +0.000 C 
BRANCH  19  20
ATOM     20  C   UNL     1       2.876   3.973  17.270  0.00  0.00    +0.000 C 
BRANCH  20  21
ATOM     21  C   UNL     1       2.412   3.938  18.716  0.00  0.00    +0.000 C 
ATOM     22  C   UNL     1       2.400   5.039  19.494  0.00  0.00    +0.000 C 
ATOM     23  C   UNL     1       2.005   5.037  20.945  0.00  0.00    +0.000 C 
ATOM     24  C   UNL     1       1.943   3.636  21.549  0.00  0.00    +0.000 C 
ATOM     25  C   UNL     1       1.237   2.673  20.604  0.00  0.00    +0.000 C 
ATOM     26  C   UNL     1       1.955   2.596  19.254  0.00  0.00    +0.000 C 
ENDBRANCH  20  21
ENDBRANCH  19  20
ENDBRANCH  17  19
ENDBRANCH  14  15
ENDBRANCH   1  14
TORSDOF 9
ENDMDL
MODEL 2
REMARK VINA RESULT:      -7.8      1.542      1.692
REMARK  Name = 
REMARK  10 active torsions:
REMARK  status: ('A' for Active; 'I' for Inactive)
REMARK    1  A    between atoms: C_1  and  O_2
REMARK    2  A    between atoms: O_2  and  C_3
REMARK    3  A    between atoms: C_7  and  C_8
REMARK    4  A    between atoms: C_9  and  C_10
REMARK    5  A    between atoms: C_10  and  O_12
REMARK    6  A    between atoms: O_12  and  C_13
REMARK    7  A    between atoms: C_13  and  C_14
REMARK    8  A    between atoms: N_16  and  C_17
REMARK    9  A    between atoms: C_17  and  C_18
REMARK   10  A    between atoms: C_18  and  C_19
REMARK                            x       y       z     vdW  Elec       q    Type
REMARK                         _______ _______ _______ _____ _____    ______ ____
ROOT
ATOM      1  O   UNL     1       7.758   6.832  16.649  0.00  0.00    +0.000 OA
ENDROOT
BRANCH   1   2
ATOM      2  C   UNL     1       7.885   7.201  17.944  0.00  0.00    +0.000 C 
ATOM      3  O   UNL     1       7.766   6.471  18.917  0.00  0.00    +0.000 OA
BRANCH   2   5
ATOM      4  C   UNL     1       8.982   9.146  18.955  0.00  0.00    +0.000 C 
ATOM      5  C   UNL     1       8.210   8.641  17.980  0.00  0.00    +0.000 C 
BRANCH   4  10
ATOM      6  C   UNL     1      10.254  12.615  18.070  0.00  0.00    +0.000 A 
ATOM      7  C   UNL     1      10.215  13.228  19.321  0.00  0.00    +0.000 A 
ATOM      8  C   UNL     1       9.773  12.520  20.439  0.00  0.00    +0.000 A 
ATOM      9  C   UNL     1       9.361  11.190  20.306  0.00  0.00    +0.000 A 
ATOM     10  C   UNL     1       9.377  10.562  19.055  0.00  0.00    +0.000 A 
ATOM     11  C   UNL     1       9.836  11.285  17.943  0.00  0.00    +0.000 A 
BRANCH   6  13
ATOM     12  C   UNL     1      10.876  14.786  17.334  0.00  0.00    +0.000 C 
ATOM     13  O   UNL     1      10.729  13.399  17.053  0.00  0.00    +0.000 OA
ENDBRANCH   6  13
ENDBRANCH   4  10
ENDBRANCH   2   5
ENDBRANCH   1   2
BRANCH   1  14
ATOM     14  C   UNL     1       6.736   5.870  16.397  0.00  0.00    +0.000 C 
BRANCH  14  15
ATOM     15  C   UNL     1       5.329   6.450  16.544  0.00  0.00    +0.000 C 
ATOM     16  O   UNL     1       4.772   7.042  15.622  0.00  0.00    +0.000 OA
ATOM     17  N   UNL     1       4.742   6.255  17.782  0.00  0.00    +0.000 N 
ATOM     18  H   UNL     1       5.139   5.528  18.378  0.00  0.00    +0.000 HD
BRANCH  17  19
ATOM     19  C   UNL     1       3.379   6.702  18.000  0.00  0.00    +0.000 C 
BRANCH  19  20
ATOM     20  C   UNL     1       2.314   5.637  17.714  0.00  0.00    +0.000 C 
BRANCH  20  21
ATOM     21  C   UNL     1       2.049   4.738  18.909  0.00  0.00    +0.000 C 
ATOM     22  C   UNL     1       2.378   5.098  20.166  0.00  0.00    +0.000 C 
ATOM     23  C   UNL     1       2.188   4.215  21.368  0.00  0.00    +0.000 C 
ATOM     24  C   UNL     1       1.906   2.758  21.007  0.00  0.00    +0.000 C 
ATOM     25  C   UNL     1       0.890   2.672  19.875  0.00  0.00    +0.000 C 
ATOM     26  C   UNL     1       1.389   3.402  18.626  0.00  0.00    +0.000 C 
ENDBRANCH  20  21
ENDBRANCH  19  20
ENDBRANCH  17  19
ENDBRANCH  14  15
ENDBRANCH   1  14
TORSDOF 9
ENDMDL
MODEL 3
REMARK VINA RESULT:      -7.5      1.072      1.243
REMARK  Name = 
REMARK  10 active torsions:
REMARK  status: ('A' for Active; 'I' for Inactive)
REMARK    1  A    between atoms: C_1  and  O_2
REMARK    2  A    between atoms: O_2  and  C_3
REMARK    3  A    between atoms: C_7  and  C_8
REMARK    4  A    between atoms: C_9  and  C_10
REMARK    5  A    between atoms: C_10  and  O_12
REMARK    6  A    between atoms: O_12  and  C_13
REMARK    7  A    between atoms: C_13  and  C_14
REMARK    8  A    between atoms: N_16  and  C_17
REMARK    9  A    between atoms: C_17  and  C_18
REMARK   10  A    between atoms: C_18  and  C_19
REMARK                            x       y       z     vdW  Elec       q    Type
REMARK                         _______ _______ _______ _____ _____    ______ ____
ROOT
ATOM      1  O   UNL     1       7.629   6.252  17.113  0.00  0.00    +0.000 OA
ENDROOT
BRANCH   1   2
ATOM      2  C   UNL     1       7.556   6.434  18.451  0.00  0.00    +0.000 C 
ATOM      3  O   UNL     1       6.891   5.773  19.234  0.00  0.00    +0.000 OA
BRANCH   2   5
ATOM      4  C   UNL     1       8.219   8.790  18.306  0.00  0.00    +0.000 C 
ATOM      5  C   UNL     1       8.437   7.565  18.807  0.00  0.00    +0.000 C 
BRANCH   4  10
ATOM      6  C   UNL     1      10.419  11.868  17.953  0.00  0.00    +0.000 A 
ATOM      7  C   UNL     1      10.648  12.172  19.293  0.00  0.00    +0.000 A 
ATOM      8  C   UNL     1      10.087  11.387  20.301  0.00  0.00    +0.000 A 
ATOM      9  C   UNL     1       9.285  10.291  19.967  0.00  0.00    +0.000 A 
ATOM     10  C   UNL     1       9.030   9.979  18.626  0.00  0.00    +0.000 A 
ATOM     11  C   UNL     1       9.611  10.772  17.626  0.00  0.00    +0.000 A 
BRANCH   6  13
ATOM     12  C   UNL     1      10.906  14.091  17.274  0.00  0.00    +0.000 C 
ATOM     13  O   UNL     1      11.041  12.692  17.055  0.00  0.00    +0.000 OA
ENDBRANCH   6  13
ENDBRANCH   4  10
ENDBRANCH   2   5
ENDBRANCH   1   2
BRANCH   1  14
ATOM     14  C   UNL     1       7.555   4.891  16.689  0.00  0.00    +0.000 C 
BRANCH  14  15
ATOM     15  C   UNL     1       6.151   4.487  16.240  0.00  0.00    +0.000 C 
ATOM     16  O   UNL     1       5.874   4.309  15.056  0.00  0.00    +0.000 OA
ATOM     17  N   UNL     1       5.230   4.339  17.263  0.00  0.00    +0.000 N 
ATOM     18  H   UNL     1       5.595   4.226  18.208  0.00  0.00    +0.000 HD
BRANCH  17  19
ATOM     19  C   UNL     1       3.887   3.886  16.949  0.00  0.00    +0.000 C 
BRANCH  19  20
ATOM     20  C   UNL     1       3.489   2.574  17.638  0.00  0.00    +0.000 C 
BRANCH  20  21
ATOM     21  C   UNL     1       2.794   2.800  18.968  0.00  0.00    +0.000 C 
ATOM     22  C   UNL     1       3.411   2.585  20.148  0.00  0.00    +0.000 C 
ATOM     23  C   UNL     1       2.741   2.739  21.485  0.00  0.00    +0.000 C 
ATOM     24  C   UNL     1       1.220   2.829  21.390  0.00  0.00    +0.000 C 
ATOM     25  C   UNL     1       0.807   3.763  20.260  0.00  0.00    +0.000 C 
ATOM     26  C   UNL     1       1.358   3.283  18.915  0.00  0.00    +0.000 C 
ENDBRANCH  20  21
ENDBRANCH  19  20
ENDBRANCH  17  19
ENDBRANCH  14  15
ENDBRANCH   1  14
TORSDOF 9
ENDMDL
MODEL 4
REMARK VINA RESULT:      -7.5      1.244      1.327
REMARK  Name = 
REMARK  10 active torsions:
REMARK  status: ('A' for Active; 'I' for Inactive)
REMARK    1  A    between atoms: C_1  and  O_2
REMARK    2  A    between atoms: O_2  and  C_3
REMARK    3  A    between atoms: C_7  and  C_8
REMARK    4  A    between atoms: C_9  and  C_10
REMARK    5  A    between atoms: C_10  and  O_12
REMARK    6  A    between atoms: O_12  and  C_13
REMARK    7  A    between atoms: C_13  and  C_14
REMARK    8  A    between atoms: N_16  and  C_17
REMARK    9  A    between atoms: C_17  and  C_18
REMARK   10  A    between atoms: C_18  and  C_19
REMARK                            x       y       z     vdW  Elec       q    Type
REMARK                         _______ _______ _______ _____ _____    ______ ____
ROOT
ATOM      1  O   UNL     1       7.546   6.854  16.833  0.00  0.00    +0.000 OA
ENDROOT
BRANCH   1   2
ATOM      2  C   UNL     1       7.734   6.697  18.162  0.00  0.00    +0.000 C 
ATOM      3  O   UNL     1       7.381   5.737  18.832  0.00  0.00    +0.000 OA
BRANCH   2   5
ATOM      4  C   UNL     1       8.260   9.090  18.119  0.00  0.00    +0.000 C 
ATOM      5  C   UNL     1       8.458   7.881  18.666  0.00  0.00    +0.000 C 
BRANCH   4  10
ATOM      6  C   UNL     1       9.612  12.640  18.217  0.00  0.00    +0.000 A 
ATOM      7  C   UNL     1      10.273  12.627  19.443  0.00  0.00    +0.000 A 
ATOM      8  C   UNL     1      10.273  11.477  20.233  0.00  0.00    +0.000 A 
ATOM      9  C   UNL     1       9.603  10.331  19.796  0.00  0.00    +0.000 A 
ATOM     10  C   UNL     1       8.919  10.328  18.574  0.00  0.00    +0.000 A 
ATOM     11  C   UNL     1       8.939  11.490  17.788  0.00  0.00    +0.000 A 
BRANCH   6  13
ATOM     12  C   UNL     1       9.464  15.010  18.253  0.00  0.00    +0.000 C 
ATOM     13  O   UNL     1       9.703  13.815  17.520  0.00  0.00    +0.000 OA
ENDBRANCH   6  13
ENDBRANCH   4  10
ENDBRANCH   2   5
ENDBRANCH   1   2
BRANCH   1  14
ATOM     14  C   UNL     1       6.180   6.929  16.425  0.00  0.00    +0.000 C 
BRANCH  14  15
ATOM     15  C   UNL     1       5.575   5.556  16.132  0.00  0.00    +0.000 C 
ATOM     16  O   UNL     1       5.614   5.056  15.009  0.00  0.00    +0.000 OA
ATOM     17  N   UNL     1       4.989   4.930  17.218  0.00  0.00    +0.000 N 
ATOM     18  H   UNL     1       5.244   5.269  18.146  0.00  0.00    +0.000 HD
BRANCH  17  19
ATOM     19  C   UNL     1       4.452   3.591  17.061  0.00  0.00    +0.000 C 
BRANCH  19  20
ATOM     20  C   UNL     1       2.925   3.508  17.176  0.00  0.00    +0.000 C 
BRANCH  20  21
ATOM     21  C   UNL     1       2.438   3.630  18.609  0.00  0.00    +0.000 C 
ATOM     22  C   UNL     1       2.068   4.810  19.145  0.00  0.00    +0.000 C 
ATOM     23  C   UNL     1       1.637   4.984  20.575  0.00  0.00    +0.000 C 
ATOM     24  C   UNL     1       1.974   3.783  21.456  0.00  0.00    +0.000 C 
ATOM     25  C   UNL     1       1.625   2.481  20.746  0.00  0.00    +0.000 C 
ATOM     26  C   UNL     1       2.384   2.351  19.422  0.00  0.00    +0.000 C 
ENDBRANCH  20  21
ENDBRANCH  19  20
ENDBRANCH  17  19
ENDBRANCH  14  15
ENDBRANCH   1  14
TORSDOF 9
ENDMDL
MODEL 5
REMARK VINA RESULT:      -7.3      1.576      2.179
REMARK  Name = 
REMARK  10 active torsions:
REMARK  status: ('A' for Active; 'I' for Inactive)
REMARK    1  A    between atoms: C_1  and  O_2
REMARK    2  A    between atoms: O_2  and  C_3
REMARK    3  A    between atoms: C_7  and  C_8
REMARK    4  A    between atoms: C_9  and  C_10
REMARK    5  A    between atoms: C_10  and  O_12
REMARK    6  A    between atoms: O_12  and  C_13
REMARK    7  A    between atoms: C_13  and  C_14
REMARK    8  A    between atoms: N_16  and  C_17
REMARK    9  A    between atoms: C_17  and  C_18
REMARK   10  A    between atoms: C_18  and  C_19
REMARK                            x       y       z     vdW  Elec       q    Type
REMARK                         _______ _______ _______ _____ _____    ______ ____
ROOT
ATOM      1  O   UNL     1       7.781   6.166  18.561  0.00  0.00    +0.000 OA
ENDROOT
BRANCH   1   2
ATOM      2  C   UNL     1       7.674   7.338  17.896  0.00  0.00    +0.000 C 
ATOM      3  O   UNL     1       6.918   7.573  16.965  0.00  0.00    +0.000 OA
BRANCH   2   5
ATOM      4  C   UNL     1       8.499   9.615  18.278  0.00  0.00    +0.000 C 
ATOM      5  C   UNL     1       8.619   8.297  18.503  0.00  0.00    +0.000 C 
BRANCH   4  10
ATOM      6  C   UNL     1      10.031  12.112  20.698  0.00  0.00    +0.000 A 
ATOM      7  C   UNL     1      11.017  12.676  19.891  0.00  0.00    +0.000 A 
ATOM      8  C   UNL     1      11.186  12.243  18.576  0.00  0.00    +0.000 A 
ATOM      9  C   UNL     1      10.365  11.234  18.063  0.00  0.00    +0.000 A 
ATOM     10  C   UNL     1       9.379  10.643  18.862  0.00  0.00    +0.000 A 
ATOM     11  C   UNL     1       9.216  11.099  20.179  0.00  0.00    +0.000 A 
BRANCH   6  13
ATOM     12  C   UNL     1       8.682  13.171  22.341  0.00  0.00    +0.000 C 
ATOM     13  O   UNL     1       9.943  12.635  21.960  0.00  0.00    +0.000 OA
ENDBRANCH   6  13
ENDBRANCH   4  10
ENDBRANCH   2   5
ENDBRANCH   1   2
BRANCH   1  14
ATOM     14  C   UNL     1       6.538   5.549  18.893  0.00  0.00    +0.000 C 
BRANCH  14  15
ATOM     15  C   UNL     1       5.983   4.689  17.758  0.00  0.00    +0.000 C 
ATOM     16  O   UNL     1       6.713   4.195  16.901  0.00  0.00    +0.000 OA
ATOM     17  N   UNL     1       4.611   4.512  17.776  0.00  0.00    +0.000 N 
ATOM     18  H   UNL     1       4.125   4.706  18.652  0.00  0.00    +0.000 HD
BRANCH  17  19
ATOM     19  C   UNL     1       3.993   3.651  16.784  0.00  0.00    +0.000 C 
BRANCH  19  20
ATOM     20  C   UNL     1       2.921   2.710  17.348  0.00  0.00    +0.000 C 
BRANCH  20  21
ATOM     21  C   UNL     1       2.577   3.015  18.795  0.00  0.00    +0.000 C 
ATOM     22  C   UNL     1       3.254   2.469  19.825  0.00  0.00    +0.000 C 
ATOM     23  C   UNL     1       2.909   2.697  21.271  0.00  0.00    +0.000 C 
ATOM     24  C   UNL     1       1.530   3.323  21.469  0.00  0.00    +0.000 C 
ATOM     25  C   UNL     1       1.310   4.462  20.482  0.00  0.00    +0.000 C 
ATOM     26  C   UNL     1       1.426   3.972  19.036  0.00  0.00    +0.000 C 
ENDBRANCH  20  21
ENDBRANCH  19  20
ENDBRANCH  17  19
ENDBRANCH  14  15
ENDBRANCH   1  14
TORSDOF 9
ENDMDL
MODEL 6
REMARK VINA RESULT:      -7.2      2.548      3.190
REMARK  Name = 
REMARK  10 active torsions:
REMARK  status: ('A' for Active; 'I' for Inactive)
REMARK    1  A    between atoms: C_1  and  O_2
REMARK    2  A    between atoms: O_2  and  C_3
REMARK    3  A    between atoms: C_7  and  C_8
REMARK    4  A    between atoms: C_9  and  C_10
REMARK    5  A    between atoms: C_10  and  O_12
REMARK    6  A    between atoms: O_12  and  C_13
REMARK    7  A    between atoms: C_13  and  C_14
REMARK    8  A    between atoms: N_16  and  C_17
REMARK    9  A    between atoms: C_17  and  C_18
REMARK   10  A    between atoms: C_18  and  C_19
REMARK                            x       y       z     vdW  Elec       q    Type
REMARK                         _______ _______ _______ _____ _____    ______ ____
ROOT
ATOM      1  O   UNL     1       8.070   6.826  18.750  0.00  0.00    +0.000 OA
ENDROOT
BRANCH   1   2
ATOM      2  C   UNL     1       7.949   7.615  17.659  0.00  0.00    +0.000 C 
ATOM      3  O   UNL     1       7.690   7.243  16.524  0.00  0.00    +0.000 OA
BRANCH   2   5
ATOM      4  C   UNL     1       9.202   9.339  18.871  0.00  0.00    +0.000 C 
ATOM      5  C   UNL     1       8.168   9.014  18.079  0.00  0.00    +0.000 C 
BRANCH   4  10
ATOM      6  C   UNL     1      10.400  12.945  18.908  0.00  0.00    +0.000 A 
ATOM      7  C   UNL     1      10.176  13.274  20.244  0.00  0.00    +0.000 A 
ATOM      8  C   UNL     1       9.634  12.333  21.121  0.00  0.00    +0.000 A 
ATOM      9  C   UNL     1       9.309  11.054  20.658  0.00  0.00    +0.000 A 
ATOM     10  C   UNL     1       9.511  10.710  19.317  0.00  0.00    +0.000 A 
ATOM     11  C   UNL     1      10.067  11.664  18.451  0.00  0.00    +0.000 A 
BRANCH   6  13
ATOM     12  C   UNL     1      11.352  13.588  16.830  0.00  0.00    +0.000 C 
ATOM     13  O   UNL     1      10.957  13.939  18.150  0.00  0.00    +0.000 OA
ENDBRANCH   6  13
ENDBRANCH   4  10
ENDBRANCH   2   5
ENDBRANCH   1   2
BRANCH   1  14
ATOM     14  C   UNL     1       7.549   5.506  18.596  0.00  0.00    +0.000 C 
BRANCH  14  15
ATOM     15  C   UNL     1       6.076   5.402  18.991  0.00  0.00    +0.000 C 
ATOM     16  O   UNL     1       5.712   4.754  19.970  0.00  0.00    +0.000 OA
ATOM     17  N   UNL     1       5.200   6.088  18.169  0.00  0.00    +0.000 N 
ATOM     18  H   UNL     1       5.593   6.813  17.568  0.00  0.00    +0.000 HD
BRANCH  17  19
ATOM     19  C   UNL     1       3.787   6.113  18.501  0.00  0.00    +0.000 C 
BRANCH  19  20
ATOM     20  C   UNL     1       2.973   7.147  17.713  0.00  0.00    +0.000 C 
BRANCH  20  21
ATOM     21  C   UNL     1       2.118   8.025  18.609  0.00  0.00    +0.000 C 
ATOM     22  C   UNL     1       1.474   9.115  18.145  0.00  0.00    +0.000 C 
ATOM     23  C   UNL     1       0.666  10.044  19.009  0.00  0.00    +0.000 C 
ATOM     24  C   UNL     1       0.912   9.843  20.502  0.00  0.00    +0.000 C 
ATOM     25  C   UNL     1       0.929   8.360  20.850  0.00  0.00    +0.000 C 
ATOM     26  C   UNL     1       2.018   7.620  20.067  0.00  0.00    +0.000 C 
ENDBRANCH  20  21
ENDBRANCH  19  20
ENDBRANCH  17  19
ENDBRANCH  14  15
ENDBRANCH   1  14
TORSDOF 9
ENDMDL
MODEL 7
REMARK VINA RESULT:      -7.1      4.873      7.060
REMARK  Name = 
REMARK  10 active torsions:
REMARK  status: ('A' for Active; 'I' for Inactive)
REMARK    1  A    between atoms: C_1  and  O_2
REMARK    2  A    between atoms: O_2  and  C_3
REMARK    3  A    between atoms: C_7  and  C_8
REMARK    4  A    between atoms: C_9  and  C_10
REMARK    5  A    between atoms: C_10  and  O_12
REMARK    6  A    between atoms: O_12  and  C_13
REMARK    7  A    between atoms: C_13  and  C_14
REMARK    8  A    between atoms: N_16  and  C_17
REMARK    9  A    between atoms: C_17  and  C_18
REMARK   10  A    between atoms: C_18  and  C_19
REMARK                            x       y       z     vdW  Elec       q    Type
REMARK                         _______ _______ _______ _____ _____    ______ ____
ROOT
ATOM      1  O   UNL     1       5.473   6.424  18.638  0.00  0.00    +0.000 OA
ENDROOT
BRANCH   1   2
ATOM      2  C   UNL     1       6.155   5.347  18.186  0.00  0.00    +0.000 C 
ATOM      3  O   UNL     1       6.717   4.508  18.874  0.00  0.00    +0.000 OA
BRANCH   2   5
ATOM      4  C   UNL     1       6.862   4.524  15.988  0.00  0.00    +0.000 C 
ATOM      5  C   UNL     1       6.090   5.350  16.710  0.00  0.00    +0.000 C 
BRANCH   4  10
ATOM      6  C   UNL     1       6.040   3.448  12.437  0.00  0.00    +0.000 A 
ATOM      7  C   UNL     1       6.923   4.251  11.717  0.00  0.00    +0.000 A 
ATOM      8  C   UNL     1       7.771   5.138  12.380  0.00  0.00    +0.000 A 
ATOM      9  C   UNL     1       7.735   5.227  13.775  0.00  0.00    +0.000 A 
ATOM     10  C   UNL     1       6.844   4.441  14.516  0.00  0.00    +0.000 A 
ATOM     11  C   UNL     1       6.006   3.546  13.833  0.00  0.00    +0.000 A 
BRANCH   6  13
ATOM     12  C   UNL     1       4.040   3.115  11.200  0.00  0.00    +0.000 C 
ATOM     13  O   UNL     1       5.276   2.601  11.681  0.00  0.00    +0.000 OA
ENDBRANCH   6  13
ENDBRANCH   4  10
ENDBRANCH   2   5
ENDBRANCH   1   2
BRANCH   1  14
ATOM     14  C   UNL     1       4.394   6.843  17.804  0.00  0.00    +0.000 C 
BRANCH  14  15
ATOM     15  C   UNL     1       3.045   6.811  18.523  0.00  0.00    +0.000 C 
ATOM     16  O   UNL     1       2.037   7.317  18.034  0.00  0.00    +0.000 OA
ATOM     17  N   UNL     1       3.051   6.173  19.751  0.00  0.00    +0.000 N 
ATOM     18  H   UNL     1       3.833   5.548  19.949  0.00  0.00    +0.000 HD
BRANCH  17  19
ATOM     19  C   UNL     1       1.805   6.024  20.480  0.00  0.00    +0.000 C 
BRANCH  19  20
ATOM     20  C   UNL     1       1.349   4.570  20.655  0.00  0.00    +0.000 C 
BRANCH  20  21
ATOM     21  C   UNL     1       2.117   3.605  19.770  0.00  0.00    +0.000 C 
ATOM     22  C   UNL     1       1.773   3.374  18.488  0.00  0.00    +0.000 C 
ATOM     23  C   UNL     1       2.469   2.383  17.596  0.00  0.00    +0.000 C 
ATOM     24  C   UNL     1       3.378   1.422  18.359  0.00  0.00    +0.000 C 
ATOM     25  C   UNL     1       4.204   2.172  19.396  0.00  0.00    +0.000 C 
ATOM     26  C   UNL     1       3.306   2.902  20.398  0.00  0.00    +0.000 C 
ENDBRANCH  20  21
ENDBRANCH  19  20
ENDBRANCH  17  19
ENDBRANCH  14  15
ENDBRANCH   1  14
TORSDOF 9
ENDMDL
MODEL 8
REMARK VINA RESULT:      -7.1      2.814      3.530
REMARK  Name = 
REMARK  10 active torsions:
REMARK  status: ('A' for Active; 'I' for Inactive)
REMARK    1  A    between atoms: C_1  and  O_2
REMARK    2  A    between atoms: O_2  and  C_3
REMARK    3  A    between atoms: C_7  and  C_8
REMARK    4  A    between atoms: C_9  and  C_10
REMARK    5  A    between atoms: C_10  and  O_12
REMARK    6  A    between atoms: O_12  and  C_13
REMARK    7  A    between atoms: C_13  and  C_14
REMARK    8  A    between atoms: N_16  and  C_17
REMARK    9  A    between atoms: C_17  and  C_18
REMARK   10  A    between atoms: C_18  and  C_19
REMARK                            x       y       z     vdW  Elec       q    Type
REMARK                         _______ _______ _______ _____ _____    ______ ____
ROOT
ATOM      1  O   UNL     1       6.776   7.244  16.546  0.00  0.00    +0.000 OA
ENDROOT
BRANCH   1   2
ATOM      2  C   UNL     1       7.585   7.318  17.627  0.00  0.00    +0.000 C 
ATOM      3  O   UNL     1       7.855   6.402  18.390  0.00  0.00    +0.000 OA
BRANCH   2   5
ATOM      4  C   UNL     1       8.780   9.106  18.803  0.00  0.00    +0.000 C 
ATOM      5  C   UNL     1       8.103   8.697  17.719  0.00  0.00    +0.000 C 
BRANCH   4  10
ATOM      6  C   UNL     1      10.330  12.493  18.049  0.00  0.00    +0.000 A 
ATOM      7  C   UNL     1      10.536  12.971  19.342  0.00  0.00    +0.000 A 
ATOM      8  C   UNL     1      10.169  12.202  20.446  0.00  0.00    +0.000 A 
ATOM      9  C   UNL     1       9.585  10.945  20.258  0.00  0.00    +0.000 A 
ATOM     10  C   UNL     1       9.354  10.454  18.968  0.00  0.00    +0.000 A 
ATOM     11  C   UNL     1       9.740  11.236  17.868  0.00  0.00    +0.000 A 
BRANCH   6  13
ATOM     12  C   UNL     1      11.507  14.464  17.440  0.00  0.00    +0.000 C 
ATOM     13  O   UNL     1      10.752  13.324  17.047  0.00  0.00    +0.000 OA
ENDBRANCH   6  13
ENDBRANCH   4  10
ENDBRANCH   2   5
ENDBRANCH   1   2
BRANCH   1  14
ATOM     14  C   UNL     1       5.981   6.062  16.471  0.00  0.00    +0.000 C 
BRANCH  14  15
ATOM     15  C   UNL     1       4.815   6.071  17.460  0.00  0.00    +0.000 C 
ATOM     16  O   UNL     1       4.713   5.230  18.351  0.00  0.00    +0.000 OA
ATOM     17  N   UNL     1       3.897   7.089  17.272  0.00  0.00    +0.000 N 
ATOM     18  H   UNL     1       4.194   7.889  16.713  0.00  0.00    +0.000 HD
BRANCH  17  19
ATOM     19  C   UNL     1       2.792   7.230  18.204  0.00  0.00    +0.000 C 
BRANCH  19  20
ATOM     20  C   UNL     1       2.036   8.559  18.087  0.00  0.00    +0.000 C 
BRANCH  20  21
ATOM     21  C   UNL     1       1.315   8.937  19.368  0.00  0.00    +0.000 C 
ATOM     22  C   UNL     1       1.595   8.353  20.550  0.00  0.00    +0.000 C 
ATOM     23  C   UNL     1       0.865   8.655  21.830  0.00  0.00    +0.000 C 
ATOM     24  C   UNL     1      -0.435   9.426  21.613  0.00  0.00    +0.000 C 
ATOM     25  C   UNL     1      -0.231  10.554  20.610  0.00  0.00    +0.000 C 
ATOM     26  C   UNL     1       0.253  10.015  19.262  0.00  0.00    +0.000 C 
ENDBRANCH  20  21
ENDBRANCH  19  20
ENDBRANCH  17  19
ENDBRANCH  14  15
ENDBRANCH   1  14
TORSDOF 9
ENDMDL
MODEL 9
REMARK VINA RESULT:      -7.1      1.548      1.933
REMARK  Name = 
REMARK  10 active torsions:
REMARK  status: ('A' for Active; 'I' for Inactive)
REMARK    1  A    between atoms: C_1  and  O_2
REMARK    2  A    between atoms: O_2  and  C_3
REMARK    3  A    between atoms: C_7  and  C_8
REMARK    4  A    between atoms: C_9  and  C_10
REMARK    5  A    between atoms: C_10  and  O_12
REMARK    6  A    between atoms: O_12  and  C_13
REMARK    7  A    between atoms: C_13  and  C_14
REMARK    8  A    between atoms: N_16  and  C_17
REMARK    9  A    between atoms: C_17  and  C_18
REMARK   10  A    between atoms: C_18  and  C_19
REMARK                            x       y       z     vdW  Elec       q    Type
REMARK                         _______ _______ _______ _____ _____    ______ ____
ROOT
ATOM      1  O   UNL     1       7.622   6.553  18.819  0.00  0.00    +0.000 OA
ENDROOT
BRANCH   1   2
ATOM      2  C   UNL     1       7.827   7.584  17.968  0.00  0.00    +0.000 C 
ATOM      3  O   UNL     1       7.356   7.698  16.846  0.00  0.00    +0.000 OA
BRANCH   2   5
ATOM      4  C   UNL     1       8.731   9.845  18.248  0.00  0.00    +0.000 C 
ATOM      5  C   UNL     1       8.709   8.561  18.637  0.00  0.00    +0.000 C 
BRANCH   4  10
ATOM      6  C   UNL     1      10.033  12.442  20.698  0.00  0.00    +0.000 A 
ATOM      7  C   UNL     1      11.107  12.957  19.976  0.00  0.00    +0.000 A 
ATOM      8  C   UNL     1      11.408  12.459  18.708  0.00  0.00    +0.000 A 
ATOM      9  C   UNL     1      10.632  11.435  18.157  0.00  0.00    +0.000 A 
ATOM     10  C   UNL     1       9.559  10.892  18.874  0.00  0.00    +0.000 A 
ATOM     11  C   UNL     1       9.263  11.412  20.143  0.00  0.00    +0.000 A 
BRANCH   6  13
ATOM     12  C   UNL     1       9.910  14.443  21.971  0.00  0.00    +0.000 C 
ATOM     13  O   UNL     1       9.819  13.024  21.918  0.00  0.00    +0.000 OA
ENDBRANCH   6  13
ENDBRANCH   4  10
ENDBRANCH   2   5
ENDBRANCH   1   2
BRANCH   1  14
ATOM     14  C   UNL     1       7.927   5.266  18.286  0.00  0.00    +0.000 C 
BRANCH  14  15
ATOM     15  C   UNL     1       6.857   4.757  17.321  0.00  0.00    +0.000 C 
ATOM     16  O   UNL     1       7.148   4.190  16.269  0.00  0.00    +0.000 OA
ATOM     17  N   UNL     1       5.552   4.982  17.722  0.00  0.00    +0.000 N 
ATOM     18  H   UNL     1       5.396   5.192  18.709  0.00  0.00    +0.000 HD
BRANCH  17  19
ATOM     19  C   UNL     1       4.462   4.471  16.912  0.00  0.00    +0.000 C 
BRANCH  19  20
ATOM     20  C   UNL     1       3.817   3.191  17.459  0.00  0.00    +0.000 C 
BRANCH  20  21
ATOM     21  C   UNL     1       2.910   3.454  18.648  0.00  0.00    +0.000 C 
ATOM     22  C   UNL     1       2.440   4.684  18.936  0.00  0.00    +0.000 C 
ATOM     23  C   UNL     1       1.589   4.998  20.135  0.00  0.00    +0.000 C 
ATOM     24  C   UNL     1       1.582   3.881  21.177  0.00  0.00    +0.000 C 
ATOM     25  C   UNL     1       1.419   2.523  20.508  0.00  0.00    +0.000 C 
ATOM     26  C   UNL     1       2.550   2.259  19.509  0.00  0.00    +0.000 C 
ENDBRANCH  20  21
ENDBRANCH  19  20
ENDBRANCH  17  19
ENDBRANCH  14  15
ENDBRANCH   1  14
TORSDOF 9
ENDMDL
