MODEL 1
REMARK VINA RESULT:      -6.9      0.000      0.000
REMARK  Name = 
REMARK  3 active torsions:
REMARK  status: ('A' for Active; 'I' for Inactive)
REMARK    1  A    between atoms: C_4  and  C_5
REMARK    2  A    between atoms: C_5  and  N_6
REMARK    3  A    between atoms: N_6  and  C_7
REMARK                            x       y       z     vdW  Elec       q    Type
REMARK                         _______ _______ _______ _____ _____    ______ ____
ROOT
ATOM      1  C   UNL     1       5.075   4.643  18.333  0.00  0.00    +0.000 A 
ATOM      2  N   UNL     1       4.917   5.982  18.239  0.00  0.00    +0.000 NA
ATOM      3  C   UNL     1       3.671   6.483  18.169  0.00  0.00    +0.000 A 
ATOM      4  N   UNL     1       2.517   5.813  18.188  0.00  0.00    +0.000 NA
ATOM      5  C   UNL     1       2.704   4.487  18.290  0.00  0.00    +0.000 A 
ATOM      6  S   UNL     1       1.376   3.418  18.333  0.00  0.00    +0.000 S 
ATOM      7  C   UNL     1       2.397   2.054  18.460  0.00  0.00    +0.000 A 
ATOM      8  C   UNL     1       3.728   2.409  18.463  0.00  0.00    +0.000 A 
ATOM      9  C   UNL     1       3.923   3.831  18.367  0.00  0.00    +0.000 A 
ENDROOT
BRANCH   1  10
ATOM     10  N   UNL     1       6.350   4.089  18.352  0.00  0.00    +0.000 N 
ATOM     11  H   UNL     1       6.707   3.930  19.286  0.00  0.00    +0.000 HD
BRANCH  10  12
ATOM     12  C   UNL     1       7.343   4.679  17.468  0.00  0.00    +0.000 C 
BRANCH  12  16
ATOM     13  C   UNL     1       6.231   3.940  13.998  0.00  0.00    +0.000 A 
ATOM     14  C   UNL     1       7.133   4.973  13.901  0.00  0.00    +0.000 A 
ATOM     15  O   UNL     1       7.588   5.326  15.131  0.00  0.00    +0.000 OA
ATOM     16  C   UNL     1       6.962   4.514  16.033  0.00  0.00    +0.000 A 
ATOM     17  C   UNL     1       6.120   3.640  15.377  0.00  0.00    +0.000 A 
ENDBRANCH  12  16
ENDBRANCH  10  12
ENDBRANCH   1  10
TORSDOF 3
ENDMDL
MODEL 2
REMARK VINA RESULT:      -6.7      2.061      3.429
REMARK  Name = 
REMARK  3 active torsions:
REMARK  status: ('A' for Active; 'I' for Inactive)
REMARK    1  A    between atoms: C_4  and  C_5
REMARK    2  A    between atoms: C_5  and  N_6
REMARK    3  A    between atoms: N_6  and  C_7
REMARK                            x       y       z     vdW  Elec       q    Type
REMARK                         _______ _______ _______ _____ _____    ______ ____
ROOT
ATOM      1  C   UNL     1       3.967   3.848  17.440  0.00  0.00    +0.000 A 
ATOM      2  N   UNL     1       3.881   2.518  17.664  0.00  0.00    +0.000 NA
ATOM      3  C   UNL     1       3.217   2.085  18.750  0.00  0.00    +0.000 A 
ATOM      4  N   UNL     1       2.595   2.819  19.675  0.00  0.00    +0.000 NA
ATOM      5  C   UNL     1       2.690   4.135  19.424  0.00  0.00    +0.000 A 
ATOM      6  S   UNL     1       1.974   5.277  20.469  0.00  0.00    +0.000 S 
ATOM      7  C   UNL     1       2.514   6.585  19.511  0.00  0.00    +0.000 A 
ATOM      8  C   UNL     1       3.234   6.157  18.418  0.00  0.00    +0.000 A 
ATOM      9  C   UNL     1       3.342   4.723  18.352  0.00  0.00    +0.000 A 
ENDROOT
BRANCH   1  10
ATOM     10  N   UNL     1       4.692   4.330  16.357  0.00  0.00    +0.000 N 
ATOM     11  H   UNL     1       4.286   4.092  15.460  0.00  0.00    +0.000 HD
BRANCH  10  12
ATOM     12  C   UNL     1       6.134   4.138  16.386  0.00  0.00    +0.000 C 
BRANCH  12  16
ATOM     13  C   UNL     1       7.820   6.805  18.352  0.00  0.00    +0.000 A 
ATOM     14  C   UNL     1       7.810   5.686  19.152  0.00  0.00    +0.000 A 
ATOM     15  O   UNL     1       7.195   4.654  18.518  0.00  0.00    +0.000 OA
ATOM     16  C   UNL     1       6.796   5.118  17.298  0.00  0.00    +0.000 A 
ATOM     17  C   UNL     1       7.166   6.439  17.152  0.00  0.00    +0.000 A 
ENDBRANCH  12  16
ENDBRANCH  10  12
ENDBRANCH   1  10
TORSDOF 3
ENDMDL
MODEL 3
REMARK VINA RESULT:      -6.6      2.917      4.864
REMARK  Name = 
REMARK  3 active torsions:
REMARK  status: ('A' for Active; 'I' for Inactive)
REMARK    1  A    between atoms: C_4  and  C_5
REMARK    2  A    between atoms: C_5  and  N_6
REMARK    3  A    between atoms: N_6  and  C_7
REMARK                            x       y       z     vdW  Elec       q    Type
REMARK                         _______ _______ _______ _____ _____    ______ ____
ROOT
ATOM      1  C   UNL     1       6.230   4.685  18.179  0.00  0.00    +0.000 A 
ATOM      2  N   UNL     1       6.845   5.755  18.730  0.00  0.00    +0.000 NA
ATOM      3  C   UNL     1       7.495   6.614  17.925  0.00  0.00    +0.000 A 
ATOM      4  N   UNL     1       7.616   6.559  16.597  0.00  0.00    +0.000 NA
ATOM      5  C   UNL     1       6.990   5.491  16.076  0.00  0.00    +0.000 A 
ATOM      6  S   UNL     1       7.006   5.204  14.395  0.00  0.00    +0.000 S 
ATOM      7  C   UNL     1       6.069   3.784  14.566  0.00  0.00    +0.000 A 
ATOM      8  C   UNL     1       5.757   3.532  15.883  0.00  0.00    +0.000 A 
ATOM      9  C   UNL     1       6.288   4.525  16.779  0.00  0.00    +0.000 A 
ENDROOT
BRANCH   1  10
ATOM     10  N   UNL     1       5.596   3.750  18.987  0.00  0.00    +0.000 N 
ATOM     11  H   UNL     1       5.445   2.858  18.532  0.00  0.00    +0.000 HD
BRANCH  10  12
ATOM     12  C   UNL     1       4.431   4.200  19.734  0.00  0.00    +0.000 C 
BRANCH  12  16
ATOM     13  C   UNL     1       1.343   4.184  17.664  0.00  0.00    +0.000 A 
ATOM     14  C   UNL     1       1.345   2.998  18.361  0.00  0.00    +0.000 A 
ATOM     15  O   UNL     1       2.453   2.906  19.141  0.00  0.00    +0.000 OA
ATOM     16  C   UNL     1       3.178   4.045  18.937  0.00  0.00    +0.000 A 
ATOM     17  C   UNL     1       2.527   4.863  18.036  0.00  0.00    +0.000 A 
ENDBRANCH  12  16
ENDBRANCH  10  12
ENDBRANCH   1  10
TORSDOF 3
ENDMDL
MODEL 4
REMARK VINA RESULT:      -6.5      3.081      5.435
REMARK  Name = 
REMARK  3 active torsions:
REMARK  status: ('A' for Active; 'I' for Inactive)
REMARK    1  A    between atoms: C_4  and  C_5
REMARK    2  A    between atoms: C_5  and  N_6
REMARK    3  A    between atoms: N_6  and  C_7
REMARK                            x       y       z     vdW  Elec       q    Type
REMARK                         _______ _______ _______ _____ _____    ______ ____
ROOT
ATOM      1  C   UNL     1       5.969   4.517  18.083  0.00  0.00    +0.000 A 
ATOM      2  N   UNL     1       6.554   5.543  18.742  0.00  0.00    +0.000 NA
ATOM      3  C   UNL     1       7.290   6.424  18.044  0.00  0.00    +0.000 A 
ATOM      4  N   UNL     1       7.529   6.433  16.730  0.00  0.00    +0.000 NA
ATOM      5  C   UNL     1       6.930   5.409  16.101  0.00  0.00    +0.000 A 
ATOM      6  S   UNL     1       7.091   5.206  14.415  0.00  0.00    +0.000 S 
ATOM      7  C   UNL     1       6.114   3.804  14.428  0.00  0.00    +0.000 A 
ATOM      8  C   UNL     1       5.681   3.493  15.698  0.00  0.00    +0.000 A 
ATOM      9  C   UNL     1       6.149   4.426  16.688  0.00  0.00    +0.000 A 
ENDROOT
BRANCH   1  10
ATOM     10  N   UNL     1       5.247   3.558  18.783  0.00  0.00    +0.000 N 
ATOM     11  H   UNL     1       5.768   2.707  18.957  0.00  0.00    +0.000 HD
BRANCH  10  12
ATOM     12  C   UNL     1       3.886   3.298  18.338  0.00  0.00    +0.000 C 
BRANCH  12  16
ATOM     13  C   UNL     1       1.311   3.346  21.020  0.00  0.00    +0.000 A 
ATOM     14  C   UNL     1       2.420   2.737  21.562  0.00  0.00    +0.000 A 
ATOM     15  O   UNL     1       3.418   2.660  20.643  0.00  0.00    +0.000 OA
ATOM     16  C   UNL     1       2.941   3.219  19.492  0.00  0.00    +0.000 A 
ATOM     17  C   UNL     1       1.647   3.660  19.682  0.00  0.00    +0.000 A 
ENDBRANCH  12  16
ENDBRANCH  10  12
ENDBRANCH   1  10
TORSDOF 3
ENDMDL
MODEL 5
REMARK VINA RESULT:      -6.5      1.867      3.255
REMARK  Name = 
REMARK  3 active torsions:
REMARK  status: ('A' for Active; 'I' for Inactive)
REMARK    1  A    between atoms: C_4  and  C_5
REMARK    2  A    between atoms: C_5  and  N_6
REMARK    3  A    between atoms: N_6  and  C_7
REMARK                            x       y       z     vdW  Elec       q    Type
REMARK                         _______ _______ _______ _____ _____    ______ ____
ROOT
ATOM      1  C   UNL     1       4.160   4.038  17.142  0.00  0.00    +0.000 A 
ATOM      2  N   UNL     1       4.092   2.735  17.492  0.00  0.00    +0.000 NA
ATOM      3  C   UNL     1       3.449   2.402  18.625  0.00  0.00    +0.000 A 
ATOM      4  N   UNL     1       2.834   3.215  19.486  0.00  0.00    +0.000 NA
ATOM      5  C   UNL     1       2.911   4.501  19.110  0.00  0.00    +0.000 A 
ATOM      6  S   UNL     1       2.199   5.731  20.053  0.00  0.00    +0.000 S 
ATOM      7  C   UNL     1       2.711   6.947  18.967  0.00  0.00    +0.000 A 
ATOM      8  C   UNL     1       3.418   6.423  17.908  0.00  0.00    +0.000 A 
ATOM      9  C   UNL     1       3.541   4.991  17.977  0.00  0.00    +0.000 A 
ENDROOT
BRANCH   1  10
ATOM     10  N   UNL     1       4.864   4.422  16.006  0.00  0.00    +0.000 N 
ATOM     11  H   UNL     1       4.458   4.080  15.144  0.00  0.00    +0.000 HD
BRANCH  10  12
ATOM     12  C   UNL     1       6.311   4.270  16.040  0.00  0.00    +0.000 C 
BRANCH  12  16
ATOM     13  C   UNL     1       7.873   6.501  18.571  0.00  0.00    +0.000 A 
ATOM     14  C   UNL     1       7.518   7.307  17.515  0.00  0.00    +0.000 A 
ATOM     15  O   UNL     1       6.947   6.572  16.525  0.00  0.00    +0.000 OA
ATOM     16  C   UNL     1       6.943   5.273  16.948  0.00  0.00    +0.000 A 
ATOM     17  C   UNL     1       7.501   5.185  18.207  0.00  0.00    +0.000 A 
ENDBRANCH  12  16
ENDBRANCH  10  12
ENDBRANCH   1  10
TORSDOF 3
ENDMDL
MODEL 6
REMARK VINA RESULT:      -6.5      3.110      5.523
REMARK  Name = 
REMARK  3 active torsions:
REMARK  status: ('A' for Active; 'I' for Inactive)
REMARK    1  A    between atoms: C_4  and  C_5
REMARK    2  A    between atoms: C_5  and  N_6
REMARK    3  A    between atoms: N_6  and  C_7
REMARK                            x       y       z     vdW  Elec       q    Type
REMARK                         _______ _______ _______ _____ _____    ______ ____
ROOT
ATOM      1  C   UNL     1       4.671   3.970  16.718  0.00  0.00    +0.000 A 
ATOM      2  N   UNL     1       5.118   3.772  15.458  0.00  0.00    +0.000 NA
ATOM      3  C   UNL     1       6.364   4.166  15.143  0.00  0.00    +0.000 A 
ATOM      4  N   UNL     1       7.265   4.746  15.940  0.00  0.00    +0.000 NA
ATOM      5  C   UNL     1       6.797   4.923  17.186  0.00  0.00    +0.000 A 
ATOM      6  S   UNL     1       7.766   5.648  18.388  0.00  0.00    +0.000 S 
ATOM      7  C   UNL     1       6.530   5.505  19.560  0.00  0.00    +0.000 A 
ATOM      8  C   UNL     1       5.397   4.921  19.040  0.00  0.00    +0.000 A 
ATOM      9  C   UNL     1       5.539   4.573  17.651  0.00  0.00    +0.000 A 
ENDROOT
BRANCH   1  10
ATOM     10  N   UNL     1       3.369   3.624  17.061  0.00  0.00    +0.000 N 
ATOM     11  H   UNL     1       2.833   4.394  17.440  0.00  0.00    +0.000 HD
BRANCH  10  12
ATOM     12  C   UNL     1       3.187   2.392  17.814  0.00  0.00    +0.000 C 
BRANCH  12  16
ATOM     13  C   UNL     1       1.213   3.197  20.860  0.00  0.00    +0.000 A 
ATOM     14  C   UNL     1       2.451   2.792  21.300  0.00  0.00    +0.000 A 
ATOM     15  O   UNL     1       3.246   2.460  20.250  0.00  0.00    +0.000 OA
ATOM     16  C   UNL     1       2.504   2.646  19.118  0.00  0.00    +0.000 A 
ATOM     17  C   UNL     1       1.245   3.104  19.448  0.00  0.00    +0.000 A 
ENDBRANCH  12  16
ENDBRANCH  10  12
ENDBRANCH   1  10
TORSDOF 3
ENDMDL
MODEL 7
REMARK VINA RESULT:      -6.5      1.080      1.080
REMARK  Name = 
REMARK  3 active torsions:
REMARK  status: ('A' for Active; 'I' for Inactive)
REMARK    1  A    between atoms: C_4  and  C_5
REMARK    2  A    between atoms: C_5  and  N_6
REMARK    3  A    between atoms: N_6  and  C_7
REMARK                            x       y       z     vdW  Elec       q    Type
REMARK                         _______ _______ _______ _____ _____    ______ ____
ROOT
ATOM      1  C   UNL     1       4.597   4.535  18.954  0.00  0.00    +0.000 A 
ATOM      2  N   UNL     1       4.511   5.872  18.783  0.00  0.00    +0.000 NA
ATOM      3  C   UNL     1       3.350   6.488  19.063  0.00  0.00    +0.000 A 
ATOM      4  N   UNL     1       2.220   5.938  19.516  0.00  0.00    +0.000 NA
ATOM      5  C   UNL     1       2.337   4.611  19.683  0.00  0.00    +0.000 A 
ATOM      6  S   UNL     1       1.022   3.684  20.252  0.00  0.00    +0.000 S 
ATOM      7  C   UNL     1       1.931   2.238  20.183  0.00  0.00    +0.000 A 
ATOM      8  C   UNL     1       3.211   2.460  19.727  0.00  0.00    +0.000 A 
ATOM      9  C   UNL     1       3.464   3.845  19.433  0.00  0.00    +0.000 A 
ENDROOT
BRANCH   1  10
ATOM     10  N   UNL     1       5.766   3.860  18.622  0.00  0.00    +0.000 N 
ATOM     11  H   UNL     1       6.158   3.328  19.389  0.00  0.00    +0.000 HD
BRANCH  10  12
ATOM     12  C   UNL     1       6.776   4.606  17.887  0.00  0.00    +0.000 C 
BRANCH  12  16
ATOM     13  C   UNL     1       5.994   4.072  14.291  0.00  0.00    +0.000 A 
ATOM     14  C   UNL     1       7.182   4.763  14.328  0.00  0.00    +0.000 A 
ATOM     15  O   UNL     1       7.545   5.020  15.611  0.00  0.00    +0.000 OA
ATOM     16  C   UNL     1       6.572   4.494  16.412  0.00  0.00    +0.000 A 
ATOM     17  C   UNL     1       5.598   3.895  15.638  0.00  0.00    +0.000 A 
ENDBRANCH  12  16
ENDBRANCH  10  12
ENDBRANCH   1  10
TORSDOF 3
ENDMDL
MODEL 8
REMARK VINA RESULT:      -6.5      3.384      5.613
REMARK  Name = 
REMARK  3 active torsions:
REMARK  status: ('A' for Active; 'I' for Inactive)
REMARK    1  A    between atoms: C_4  and  C_5
REMARK    2  A    between atoms: C_5  and  N_6
REMARK    3  A    between atoms: N_6  and  C_7
REMARK                            x       y       z     vdW  Elec       q    Type
REMARK                         _______ _______ _______ _____ _____    ______ ____
ROOT
ATOM      1  C   UNL     1       5.365   4.142  18.253  0.00  0.00    +0.000 A 
ATOM      2  N   UNL     1       4.555   4.038  17.176  0.00  0.00    +0.000 NA
ATOM      3  C   UNL     1       4.672   4.942  16.188  0.00  0.00    +0.000 A 
ATOM      4  N   UNL     1       5.523   5.968  16.113  0.00  0.00    +0.000 NA
ATOM      5  C   UNL     1       6.320   6.042  17.191  0.00  0.00    +0.000 A 
ATOM      6  S   UNL     1       7.492   7.274  17.327  0.00  0.00    +0.000 S 
ATOM      7  C   UNL     1       8.017   6.693  18.846  0.00  0.00    +0.000 A 
ATOM      8  C   UNL     1       7.306   5.583  19.244  0.00  0.00    +0.000 A 
ATOM      9  C   UNL     1       6.310   5.188  18.283  0.00  0.00    +0.000 A 
ENDROOT
BRANCH   1  10
ATOM     10  N   UNL     1       5.233   3.258  19.317  0.00  0.00    +0.000 N 
ATOM     11  H   UNL     1       6.116   2.898  19.656  0.00  0.00    +0.000 HD
BRANCH  10  12
ATOM     12  C   UNL     1       4.217   2.223  19.196  0.00  0.00    +0.000 C 
BRANCH  12  16
ATOM     13  C   UNL     1       0.959   3.332  20.602  0.00  0.00    +0.000 A 
ATOM     14  C   UNL     1       1.755   3.015  21.678  0.00  0.00    +0.000 A 
ATOM     15  O   UNL     1       2.972   2.581  21.260  0.00  0.00    +0.000 OA
ATOM     16  C   UNL     1       2.956   2.611  19.895  0.00  0.00    +0.000 A 
ATOM     17  C   UNL     1       1.735   3.073  19.447  0.00  0.00    +0.000 A 
ENDBRANCH  12  16
ENDBRANCH  10  12
ENDBRANCH   1  10
TORSDOF 3
ENDMDL
MODEL 9
REMARK VINA RESULT:      -6.4      2.922      5.095
REMARK  Name = 
REMARK  3 active torsions:
REMARK  status: ('A' for Active; 'I' for Inactive)
REMARK    1  A    between atoms: C_4  and  C_5
REMARK    2  A    between atoms: C_5  and  N_6
REMARK    3  A    between atoms: N_6  and  C_7
REMARK                            x       y       z     vdW  Elec       q    Type
REMARK                         _______ _______ _______ _____ _____    ______ ____
ROOT
ATOM      1  C   UNL     1       5.065   4.472  18.393  0.00  0.00    +0.000 A 
ATOM      2  N   UNL     1       5.822   4.423  17.274  0.00  0.00    +0.000 NA
ATOM      3  C   UNL     1       5.676   5.388  16.351  0.00  0.00    +0.000 A 
ATOM      4  N   UNL     1       4.857   6.442  16.390  0.00  0.00    +0.000 NA
ATOM      5  C   UNL     1       4.124   6.469  17.514  0.00  0.00    +0.000 A 
ATOM      6  S   UNL     1       2.999   7.721  17.793  0.00  0.00    +0.000 S 
ATOM      7  C   UNL     1       2.543   7.061  19.302  0.00  0.00    +0.000 A 
ATOM      8  C   UNL     1       3.232   5.902  19.583  0.00  0.00    +0.000 A 
ATOM      9  C   UNL     1       4.163   5.544  18.546  0.00  0.00    +0.000 A 
ENDROOT
BRANCH   1  10
ATOM     10  N   UNL     1       5.152   3.460  19.341  0.00  0.00    +0.000 N 
ATOM     11  H   UNL     1       6.104   3.198  19.567  0.00  0.00    +0.000 HD
BRANCH  10  12
ATOM     12  C   UNL     1       4.283   2.306  19.162  0.00  0.00    +0.000 C 
BRANCH  12  16
ATOM     13  C   UNL     1       0.870   2.859  20.530  0.00  0.00    +0.000 A 
ATOM     14  C   UNL     1       1.722   2.853  21.611  0.00  0.00    +0.000 A 
ATOM     15  O   UNL     1       3.002   2.641  21.208  0.00  0.00    +0.000 OA
ATOM     16  C   UNL     1       2.972   2.500  19.850  0.00  0.00    +0.000 A 
ATOM     17  C   UNL     1       1.677   2.632  19.390  0.00  0.00    +0.000 A 
ENDBRANCH  12  16
ENDBRANCH  10  12
ENDBRANCH   1  10
TORSDOF 3
ENDMDL
