MODEL 1
REMARK VINA RESULT:      -7.5      0.000      0.000
REMARK  Name = 
REMARK  4 active torsions:
REMARK  status: ('A' for Active; 'I' for Inactive)
REMARK    1  A    between atoms: C_4  and  O_5
REMARK    2  A    between atoms: C_4  and  C_6
REMARK    3  A    between atoms: C_11  and  C_12
REMARK    4  A    between atoms: C_19  and  C_20
REMARK                            x       y       z     vdW  Elec       q    Type
REMARK                         _______ _______ _______ _____ _____    ______ ____
ROOT
ATOM      1  O   UNL     1      -5.039  16.900  23.804  0.00  0.00    +0.000 OA
ATOM      2  C   UNL     1      -4.392  15.868  23.614  0.00  0.00    +0.000 C 
ATOM      3  C   UNL     1      -5.078  14.611  23.086  0.00  0.00    +0.000 C 
ATOM      4  C   UNL     1      -4.186  13.498  22.478  0.00  0.00    +0.000 C 
ATOM      5  C   UNL     1      -2.770  13.644  22.940  0.00  0.00    +0.000 A 
ATOM      6  C   UNL     1      -1.599  12.861  22.717  0.00  0.00    +0.000 A 
ATOM      7  N   UNL     1      -0.531  13.402  23.326  0.00  0.00    +0.000 NA
ATOM      8  N   UNL     1      -0.998  14.542  23.871  0.00  0.00    +0.000 N 
ATOM      9  C   UNL     1      -2.326  14.730  23.638  0.00  0.00    +0.000 A 
ATOM     10  N   UNL     1      -3.073  15.819  23.971  0.00  0.00    +0.000 N 
ATOM     11  H   UNL     1      -0.348  15.157  24.352  0.00  0.00    +0.000 HD
ATOM     12  H   UNL     1      -2.677  16.656  24.390  0.00  0.00    +0.000 HD
ENDROOT
BRANCH   6  13
ATOM     13  C   UNL     1      -1.464  11.690  21.771  0.00  0.00    +0.000 C 
ATOM     14  C   UNL     1      -1.005  10.364  22.397  0.00  0.00    +0.000 C 
ATOM     15  C   UNL     1       0.500  10.087  22.340  0.00  0.00    +0.000 C 
ATOM     16  N   UNL     1       1.060  10.477  21.050  0.00  0.00    +0.000 N 
ATOM     17  C   UNL     1       1.374   9.596  20.054  0.00  0.00    +0.000 A 
ATOM     18  N   UNL     1       1.402   9.930  18.780  0.00  0.00    +0.000 NA
ATOM     19  C   UNL     1       1.802   8.869  17.995  0.00  0.00    +0.000 A 
ATOM     20  C   UNL     1       2.093   7.697  18.659  0.00  0.00    +0.000 A 
ATOM     21  S   UNL     1       1.857   7.959  20.340  0.00  0.00    +0.000 S 
ATOM     22  C   UNL     1       0.823  11.869  20.691  0.00  0.00    +0.000 C 
ATOM     23  C   UNL     1      -0.671  12.086  20.516  0.00  0.00    +0.000 C 
BRANCH  20  24
ATOM     24  C   UNL     1       2.543   6.402  18.133  0.00  0.00    +0.000 A 
ATOM     25  C   UNL     1       1.677   5.298  18.125  0.00  0.00    +0.000 A 
ATOM     26  C   UNL     1       2.105   4.050  17.659  0.00  0.00    +0.000 A 
ATOM     27  C   UNL     1       3.408   3.889  17.195  0.00  0.00    +0.000 A 
ATOM     28  C   UNL     1       4.280   4.974  17.191  0.00  0.00    +0.000 A 
ATOM     29  C   UNL     1       3.852   6.218  17.657  0.00  0.00    +0.000 A 
ENDBRANCH  20  24
ENDBRANCH   6  13
BRANCH   4  30
ATOM     30  C   UNL     1      -4.303  13.475  20.912  0.00  0.00    +0.000 C 
ATOM     31  F   UNL     1      -4.238  12.231  20.388  0.00  0.00    +0.000 F 
ATOM     32  F   UNL     1      -5.437  14.035  20.443  0.00  0.00    +0.000 F 
ATOM     33  F   UNL     1      -3.265  14.168  20.367  0.00  0.00    +0.000 F 
ENDBRANCH   4  30
BRANCH   4  34
ATOM     34  O   UNL     1      -4.684  12.254  23.054  0.00  0.00    +0.000 OA
ATOM     35  H   UNL     1      -5.481  11.992  22.558  0.00  0.00    +0.000 HD
ENDBRANCH   4  34
TORSDOF 4
ENDMDL
MODEL 2
REMARK VINA RESULT:      -7.0      5.264     10.590
REMARK  Name = 
REMARK  4 active torsions:
REMARK  status: ('A' for Active; 'I' for Inactive)
REMARK    1  A    between atoms: C_4  and  O_5
REMARK    2  A    between atoms: C_4  and  C_6
REMARK    3  A    between atoms: C_11  and  C_12
REMARK    4  A    between atoms: C_19  and  C_20
REMARK                            x       y       z     vdW  Elec       q    Type
REMARK                         _______ _______ _______ _____ _____    ______ ____
ROOT
ATOM      1  O   UNL     1       5.149   1.191  19.926  0.00  0.00    +0.000 OA
ATOM      2  C   UNL     1       4.524   2.187  19.558  0.00  0.00    +0.000 C 
ATOM      3  C   UNL     1       3.009   2.127  19.377  0.00  0.00    +0.000 C 
ATOM      4  C   UNL     1       2.231   3.467  19.325  0.00  0.00    +0.000 C 
ATOM      5  C   UNL     1       3.149   4.600  18.991  0.00  0.00    +0.000 A 
ATOM      6  C   UNL     1       2.923   5.991  18.774  0.00  0.00    +0.000 A 
ATOM      7  N   UNL     1       4.073   6.636  18.518  0.00  0.00    +0.000 NA
ATOM      8  N   UNL     1       5.021   5.686  18.633  0.00  0.00    +0.000 N 
ATOM      9  C   UNL     1       4.507   4.464  18.941  0.00  0.00    +0.000 A 
ATOM     10  N   UNL     1       5.201   3.324  19.216  0.00  0.00    +0.000 N 
ATOM     11  H   UNL     1       5.996   5.952  18.529  0.00  0.00    +0.000 HD
ATOM     12  H   UNL     1       6.214   3.295  19.279  0.00  0.00    +0.000 HD
ENDROOT
BRANCH   6  13
ATOM     13  C   UNL     1       1.626   6.738  18.989  0.00  0.00    +0.000 C 
ATOM     14  C   UNL     1       1.344   7.897  18.021  0.00  0.00    +0.000 C 
ATOM     15  C   UNL     1       1.775   9.285  18.502  0.00  0.00    +0.000 C 
ATOM     16  N   UNL     1       1.471   9.472  19.917  0.00  0.00    +0.000 N 
ATOM     17  C   UNL     1       0.410  10.198  20.382  0.00  0.00    +0.000 A 
ATOM     18  N   UNL     1      -0.150   9.982  21.555  0.00  0.00    +0.000 NA
ATOM     19  C   UNL     1      -1.160  10.888  21.800  0.00  0.00    +0.000 A 
ATOM     20  C   UNL     1      -1.390  11.822  20.814  0.00  0.00    +0.000 A 
ATOM     21  S   UNL     1      -0.276  11.542  19.537  0.00  0.00    +0.000 S 
ATOM     22  C   UNL     1       2.058   8.466  20.793  0.00  0.00    +0.000 C 
ATOM     23  C   UNL     1       1.447   7.113  20.468  0.00  0.00    +0.000 C 
BRANCH  20  24
ATOM     24  C   UNL     1      -2.371  12.914  20.759  0.00  0.00    +0.000 A 
ATOM     25  C   UNL     1      -1.990  14.228  21.074  0.00  0.00    +0.000 A 
ATOM     26  C   UNL     1      -2.923  15.271  21.059  0.00  0.00    +0.000 A 
ATOM     27  C   UNL     1      -4.252  15.013  20.730  0.00  0.00    +0.000 A 
ATOM     28  C   UNL     1      -4.646  13.717  20.411  0.00  0.00    +0.000 A 
ATOM     29  C   UNL     1      -3.715  12.678  20.427  0.00  0.00    +0.000 A 
ENDBRANCH  20  24
ENDBRANCH   6  13
BRANCH   4  30
ATOM     30  C   UNL     1       1.442   3.712  20.661  0.00  0.00    +0.000 C 
ATOM     31  F   UNL     1       2.153   4.395  21.585  0.00  0.00    +0.000 F 
ATOM     32  F   UNL     1       0.281   4.380  20.493  0.00  0.00    +0.000 F 
ATOM     33  F   UNL     1       1.130   2.516  21.233  0.00  0.00    +0.000 F 
ENDBRANCH   4  30
BRANCH   4  34
ATOM     34  O   UNL     1       1.313   3.331  18.199  0.00  0.00    +0.000 OA
ATOM     35  H   UNL     1       1.483   2.469  17.776  0.00  0.00    +0.000 HD
ENDBRANCH   4  34
TORSDOF 4
ENDMDL
MODEL 3
REMARK VINA RESULT:      -7.0      1.662      2.349
REMARK  Name = 
REMARK  4 active torsions:
REMARK  status: ('A' for Active; 'I' for Inactive)
REMARK    1  A    between atoms: C_4  and  O_5
REMARK    2  A    between atoms: C_4  and  C_6
REMARK    3  A    between atoms: C_11  and  C_12
REMARK    4  A    between atoms: C_19  and  C_20
REMARK                            x       y       z     vdW  Elec       q    Type
REMARK                         _______ _______ _______ _____ _____    ______ ____
ROOT
ATOM      1  O   UNL     1      -7.915  16.841  23.279  0.00  0.00    +0.000 OA
ATOM      2  C   UNL     1      -6.959  16.070  23.185  0.00  0.00    +0.000 C 
ATOM      3  C   UNL     1      -7.175  14.560  23.236  0.00  0.00    +0.000 C 
ATOM      4  C   UNL     1      -6.039  13.646  22.707  0.00  0.00    +0.000 C 
ATOM      5  C   UNL     1      -4.738  14.386  22.672  0.00  0.00    +0.000 A 
ATOM      6  C   UNL     1      -3.413  13.987  22.327  0.00  0.00    +0.000 A 
ATOM      7  N   UNL     1      -2.556  15.016  22.426  0.00  0.00    +0.000 NA
ATOM      8  N   UNL     1      -3.330  16.065  22.765  0.00  0.00    +0.000 N 
ATOM      9  C   UNL     1      -4.643  15.730  22.895  0.00  0.00    +0.000 A 
ATOM     10  N   UNL     1      -5.688  16.570  23.135  0.00  0.00    +0.000 N 
ATOM     11  H   UNL     1      -2.902  16.982  22.851  0.00  0.00    +0.000 HD
ATOM     12  H   UNL     1      -5.586  17.580  23.181  0.00  0.00    +0.000 HD
ENDROOT
BRANCH   6  13
ATOM     13  C   UNL     1      -2.997  12.663  21.727  0.00  0.00    +0.000 C 
ATOM     14  C   UNL     1      -2.109  11.772  22.608  0.00  0.00    +0.000 C 
ATOM     15  C   UNL     1      -0.600  11.907  22.384  0.00  0.00    +0.000 C 
ATOM     16  N   UNL     1      -0.284  12.016  20.964  0.00  0.00    +0.000 N 
ATOM     17  C   UNL     1       0.209  10.989  20.208  0.00  0.00    +0.000 A 
ATOM     18  N   UNL     1       0.038  10.908  18.904  0.00  0.00    +0.000 NA
ATOM     19  C   UNL     1       0.683   9.807  18.384  0.00  0.00    +0.000 A 
ATOM     20  C   UNL     1       1.368   9.021  19.286  0.00  0.00    +0.000 A 
ATOM     21  S   UNL     1       1.190   9.716  20.847  0.00  0.00    +0.000 S 
ATOM     22  C   UNL     1      -0.963  13.111  20.282  0.00  0.00    +0.000 C 
ATOM     23  C   UNL     1      -2.460  12.850  20.300  0.00  0.00    +0.000 C 
BRANCH  20  24
ATOM     24  C   UNL     1       2.153   7.800  19.068  0.00  0.00    +0.000 A 
ATOM     25  C   UNL     1       2.798   7.579  17.840  0.00  0.00    +0.000 A 
ATOM     26  C   UNL     1       3.519   6.402  17.608  0.00  0.00    +0.000 A 
ATOM     27  C   UNL     1       3.606   5.430  18.601  0.00  0.00    +0.000 A 
ATOM     28  C   UNL     1       2.977   5.634  19.825  0.00  0.00    +0.000 A 
ATOM     29  C   UNL     1       2.257   6.807  20.056  0.00  0.00    +0.000 A 
ENDBRANCH  20  24
ENDBRANCH   6  13
BRANCH   4  30
ATOM     30  C   UNL     1      -6.413  13.033  21.311  0.00  0.00    +0.000 C 
ATOM     31  F   UNL     1      -7.745  12.989  21.084  0.00  0.00    +0.000 F 
ATOM     32  F   UNL     1      -5.863  13.685  20.265  0.00  0.00    +0.000 F 
ATOM     33  F   UNL     1      -5.977  11.745  21.247  0.00  0.00    +0.000 F 
ENDBRANCH   4  30
BRANCH   4  34
ATOM     34  O   UNL     1      -5.894  12.599  23.711  0.00  0.00    +0.000 OA
ATOM     35  H   UNL     1      -6.334  11.797  23.374  0.00  0.00    +0.000 HD
ENDBRANCH   4  34
TORSDOF 4
ENDMDL
MODEL 4
REMARK VINA RESULT:      -6.9      8.600     11.122
REMARK  Name = 
REMARK  4 active torsions:
REMARK  status: ('A' for Active; 'I' for Inactive)
REMARK    1  A    between atoms: C_4  and  O_5
REMARK    2  A    between atoms: C_4  and  C_6
REMARK    3  A    between atoms: C_11  and  C_12
REMARK    4  A    between atoms: C_19  and  C_20
REMARK                            x       y       z     vdW  Elec       q    Type
REMARK                         _______ _______ _______ _____ _____    ______ ____
ROOT
ATOM      1  O   UNL     1       0.256   1.284  18.792  0.00  0.00    +0.000 OA
ATOM      2  C   UNL     1       1.117   2.139  18.578  0.00  0.00    +0.000 C 
ATOM      3  C   UNL     1       0.765   3.623  18.640  0.00  0.00    +0.000 C 
ATOM      4  C   UNL     1       1.928   4.640  18.779  0.00  0.00    +0.000 C 
ATOM      5  C   UNL     1       3.224   4.021  18.358  0.00  0.00    +0.000 A 
ATOM      6  C   UNL     1       4.548   4.541  18.249  0.00  0.00    +0.000 A 
ATOM      7  N   UNL     1       5.409   3.593  17.844  0.00  0.00    +0.000 NA
ATOM      8  N   UNL     1       4.661   2.476  17.759  0.00  0.00    +0.000 N 
ATOM      9  C   UNL     1       3.357   2.690  18.084  0.00  0.00    +0.000 A 
ATOM     10  N   UNL     1       2.370   1.757  18.189  0.00  0.00    +0.000 N 
ATOM     11  H   UNL     1       5.114   1.601  17.513  0.00  0.00    +0.000 HD
ATOM     12  H   UNL     1       2.538   0.760  18.087  0.00  0.00    +0.000 HD
ENDROOT
BRANCH   6  13
ATOM     13  C   UNL     1       5.023   5.901  18.706  0.00  0.00    +0.000 C 
ATOM     14  C   UNL     1       4.820   7.056  17.714  0.00  0.00    +0.000 C 
ATOM     15  C   UNL     1       6.013   7.372  16.807  0.00  0.00    +0.000 C 
ATOM     16  N   UNL     1       7.270   7.302  17.545  0.00  0.00    +0.000 N 
ATOM     17  C   UNL     1       7.963   8.396  17.982  0.00  0.00    +0.000 A 
ATOM     18  N   UNL     1       8.777   8.365  19.018  0.00  0.00    +0.000 NA
ATOM     19  C   UNL     1       9.388   9.586  19.209  0.00  0.00    +0.000 A 
ATOM     20  C   UNL     1       9.053  10.579  18.314  0.00  0.00    +0.000 A 
ATOM     21  S   UNL     1       7.929   9.932  17.189  0.00  0.00    +0.000 S 
ATOM     22  C   UNL     1       7.506   6.025  18.206  0.00  0.00    +0.000 C 
ATOM     23  C   UNL     1       6.447   5.823  19.278  0.00  0.00    +0.000 C 
BRANCH  20  24
ATOM     24  C   UNL     1       9.517  11.970  18.232  0.00  0.00    +0.000 A 
ATOM     25  C   UNL     1       8.661  13.027  18.578  0.00  0.00    +0.000 A 
ATOM     26  C   UNL     1       9.080  14.358  18.471  0.00  0.00    +0.000 A 
ATOM     27  C   UNL     1      10.363  14.650  18.014  0.00  0.00    +0.000 A 
ATOM     28  C   UNL     1      11.227  13.615  17.671  0.00  0.00    +0.000 A 
ATOM     29  C   UNL     1      10.808  12.288  17.777  0.00  0.00    +0.000 A 
ENDBRANCH  20  24
ENDBRANCH   6  13
BRANCH   4  30
ATOM     30  C   UNL     1       1.992   5.226  20.234  0.00  0.00    +0.000 C 
ATOM     31  F   UNL     1       2.895   4.605  21.024  0.00  0.00    +0.000 F 
ATOM     32  F   UNL     1       2.280   6.544  20.278  0.00  0.00    +0.000 F 
ATOM     33  F   UNL     1       0.784   5.066  20.844  0.00  0.00    +0.000 F 
ENDBRANCH   4  30
BRANCH   4  34
ATOM     34  O   UNL     1       1.635   5.689  17.810  0.00  0.00    +0.000 OA
ATOM     35  H   UNL     1       1.040   5.316  17.134  0.00  0.00    +0.000 HD
ENDBRANCH   4  34
TORSDOF 4
ENDMDL
MODEL 5
REMARK VINA RESULT:      -6.8      0.881      1.034
REMARK  Name = 
REMARK  4 active torsions:
REMARK  status: ('A' for Active; 'I' for Inactive)
REMARK    1  A    between atoms: C_4  and  O_5
REMARK    2  A    between atoms: C_4  and  C_6
REMARK    3  A    between atoms: C_11  and  C_12
REMARK    4  A    between atoms: C_19  and  C_20
REMARK                            x       y       z     vdW  Elec       q    Type
REMARK                         _______ _______ _______ _____ _____    ______ ____
ROOT
ATOM      1  O   UNL     1      -4.865  17.018  22.872  0.00  0.00    +0.000 OA
ATOM      2  C   UNL     1      -4.285  15.931  22.883  0.00  0.00    +0.000 C 
ATOM      3  C   UNL     1      -5.006  14.664  22.430  0.00  0.00    +0.000 C 
ATOM      4  C   UNL     1      -4.144  13.428  22.068  0.00  0.00    +0.000 C 
ATOM      5  C   UNL     1      -2.779  13.539  22.673  0.00  0.00    +0.000 A 
ATOM      6  C   UNL     1      -1.656  12.659  22.684  0.00  0.00    +0.000 A 
ATOM      7  N   UNL     1      -0.622  13.202  23.346  0.00  0.00    +0.000 NA
ATOM      8  N   UNL     1      -1.055  14.430  23.695  0.00  0.00    +0.000 N 
ATOM      9  C   UNL     1      -2.330  14.673  23.286  0.00  0.00    +0.000 A 
ATOM     10  N   UNL     1      -3.021  15.842  23.396  0.00  0.00    +0.000 N 
ATOM     11  H   UNL     1      -0.415  15.057  24.172  0.00  0.00    +0.000 HD
ATOM     12  H   UNL     1      -2.608  16.697  23.757  0.00  0.00    +0.000 HD
ENDROOT
BRANCH   6  13
ATOM     13  C   UNL     1      -1.512  11.372  21.906  0.00  0.00    +0.000 C 
ATOM     14  C   UNL     1      -1.057  10.144  22.709  0.00  0.00    +0.000 C 
ATOM     15  C   UNL     1       0.448   9.865  22.702  0.00  0.00    +0.000 C 
ATOM     16  N   UNL     1       1.019  10.079  21.376  0.00  0.00    +0.000 N 
ATOM     17  C   UNL     1       1.343   9.072  20.510  0.00  0.00    +0.000 A 
ATOM     18  N   UNL     1       1.382   9.231  19.203  0.00  0.00    +0.000 NA
ATOM     19  C   UNL     1       1.790   8.076  18.571  0.00  0.00    +0.000 A 
ATOM     20  C   UNL     1       2.076   7.005  19.390  0.00  0.00    +0.000 A 
ATOM     21  S   UNL     1       1.825   7.490  21.018  0.00  0.00    +0.000 S 
ATOM     22  C   UNL     1       0.783  11.409  20.831  0.00  0.00    +0.000 C 
ATOM     23  C   UNL     1      -0.709  11.596  20.615  0.00  0.00    +0.000 C 
BRANCH  20  24
ATOM     24  C   UNL     1       2.533   5.651  19.047  0.00  0.00    +0.000 A 
ATOM     25  C   UNL     1       3.365   4.938  19.925  0.00  0.00    +0.000 A 
ATOM     26  C   UNL     1       3.835   3.662  19.594  0.00  0.00    +0.000 A 
ATOM     27  C   UNL     1       3.479   3.082  18.379  0.00  0.00    +0.000 A 
ATOM     28  C   UNL     1       2.651   3.773  17.499  0.00  0.00    +0.000 A 
ATOM     29  C   UNL     1       2.184   5.045  17.829  0.00  0.00    +0.000 A 
ENDBRANCH  20  24
ENDBRANCH   6  13
BRANCH   4  30
ATOM     30  C   UNL     1      -4.090  13.214  20.513  0.00  0.00    +0.000 C 
ATOM     31  F   UNL     1      -4.079  11.913  20.150  0.00  0.00    +0.000 F 
ATOM     32  F   UNL     1      -5.113  13.793  19.849  0.00  0.00    +0.000 F 
ATOM     33  F   UNL     1      -2.943  13.754  20.017  0.00  0.00    +0.000 F 
ENDBRANCH   4  30
BRANCH   4  34
ATOM     34  O   UNL     1      -4.798  12.301  22.723  0.00  0.00    +0.000 OA
ATOM     35  H   UNL     1      -4.414  11.481  22.365  0.00  0.00    +0.000 HD
ENDBRANCH   4  34
TORSDOF 4
ENDMDL
MODEL 6
REMARK VINA RESULT:      -6.7      4.820      6.351
REMARK  Name = 
REMARK  4 active torsions:
REMARK  status: ('A' for Active; 'I' for Inactive)
REMARK    1  A    between atoms: C_4  and  O_5
REMARK    2  A    between atoms: C_4  and  C_6
REMARK    3  A    between atoms: C_11  and  C_12
REMARK    4  A    between atoms: C_19  and  C_20
REMARK                            x       y       z     vdW  Elec       q    Type
REMARK                         _______ _______ _______ _____ _____    ______ ____
ROOT
ATOM      1  O   UNL     1      -7.911  12.817  23.534  0.00  0.00    +0.000 OA
ATOM      2  C   UNL     1      -6.868  13.008  22.906  0.00  0.00    +0.000 C 
ATOM      3  C   UNL     1      -5.771  13.900  23.481  0.00  0.00    +0.000 C 
ATOM      4  C   UNL     1      -4.348  13.781  22.877  0.00  0.00    +0.000 C 
ATOM      5  C   UNL     1      -4.400  13.152  21.520  0.00  0.00    +0.000 A 
ATOM      6  C   UNL     1      -3.394  12.878  20.546  0.00  0.00    +0.000 A 
ATOM      7  N   UNL     1      -3.916  12.271  19.468  0.00  0.00    +0.000 NA
ATOM      8  N   UNL     1      -5.217  12.104  19.775  0.00  0.00    +0.000 N 
ATOM      9  C   UNL     1      -5.535  12.595  21.004  0.00  0.00    +0.000 A 
ATOM     10  N   UNL     1      -6.733  12.500  21.644  0.00  0.00    +0.000 N 
ATOM     11  H   UNL     1      -5.816  11.613  19.118  0.00  0.00    +0.000 HD
ATOM     12  H   UNL     1      -7.520  11.977  21.270  0.00  0.00    +0.000 HD
ENDROOT
BRANCH   6  13
ATOM     13  C   UNL     1      -1.901  13.034  20.724  0.00  0.00    +0.000 C 
ATOM     14  C   UNL     1      -1.381  14.475  20.833  0.00  0.00    +0.000 C 
ATOM     15  C   UNL     1      -0.902  15.110  19.525  0.00  0.00    +0.000 C 
ATOM     16  N   UNL     1      -0.144  14.157  18.721  0.00  0.00    +0.000 N 
ATOM     17  C   UNL     1       1.219  14.149  18.624  0.00  0.00    +0.000 A 
ATOM     18  N   UNL     1       1.914  13.068  18.337  0.00  0.00    +0.000 NA
ATOM     19  C   UNL     1       3.261  13.350  18.247  0.00  0.00    +0.000 A 
ATOM     20  C   UNL     1       3.623  14.662  18.463  0.00  0.00    +0.000 A 
ATOM     21  S   UNL     1       2.198  15.567  18.782  0.00  0.00    +0.000 S 
ATOM     22  C   UNL     1      -0.865  12.928  18.413  0.00  0.00    +0.000 C 
ATOM     23  C   UNL     1      -1.134  12.177  19.706  0.00  0.00    +0.000 C 
BRANCH  20  24
ATOM     24  C   UNL     1       4.950  15.290  18.438  0.00  0.00    +0.000 A 
ATOM     25  C   UNL     1       6.047  14.612  17.885  0.00  0.00    +0.000 A 
ATOM     26  C   UNL     1       7.324  15.187  17.887  0.00  0.00    +0.000 A 
ATOM     27  C   UNL     1       7.520  16.448  18.444  0.00  0.00    +0.000 A 
ATOM     28  C   UNL     1       6.442  17.136  18.993  0.00  0.00    +0.000 A 
ATOM     29  C   UNL     1       5.170  16.563  18.991  0.00  0.00    +0.000 A 
ENDBRANCH  20  24
ENDBRANCH   6  13
BRANCH   4  30
ATOM     30  C   UNL     1      -3.384  13.016  23.852  0.00  0.00    +0.000 C 
ATOM     31  F   UNL     1      -3.232  11.710  23.540  0.00  0.00    +0.000 F 
ATOM     32  F   UNL     1      -2.144  13.546  23.919  0.00  0.00    +0.000 F 
ATOM     33  F   UNL     1      -3.894  13.046  25.114  0.00  0.00    +0.000 F 
ENDBRANCH   4  30
BRANCH   4  34
ATOM     34  O   UNL     1      -3.902  15.156  22.680  0.00  0.00    +0.000 OA
ATOM     35  H   UNL     1      -3.245  15.360  23.371  0.00  0.00    +0.000 HD
ENDBRANCH   4  34
TORSDOF 4
ENDMDL
MODEL 7
REMARK VINA RESULT:      -6.7      0.933      1.250
REMARK  Name = 
REMARK  4 active torsions:
REMARK  status: ('A' for Active; 'I' for Inactive)
REMARK    1  A    between atoms: C_4  and  O_5
REMARK    2  A    between atoms: C_4  and  C_6
REMARK    3  A    between atoms: C_11  and  C_12
REMARK    4  A    between atoms: C_19  and  C_20
REMARK                            x       y       z     vdW  Elec       q    Type
REMARK                         _______ _______ _______ _____ _____    ______ ____
ROOT
ATOM      1  O   UNL     1      -5.134  16.745  24.299  0.00  0.00    +0.000 OA
ATOM      2  C   UNL     1      -4.408  15.779  24.056  0.00  0.00    +0.000 C 
ATOM      3  C   UNL     1      -5.010  14.394  23.838  0.00  0.00    +0.000 C 
ATOM      4  C   UNL     1      -4.132  13.323  23.140  0.00  0.00    +0.000 C 
ATOM      5  C   UNL     1      -2.684  13.690  23.220  0.00  0.00    +0.000 A 
ATOM      6  C   UNL     1      -1.497  13.027  22.792  0.00  0.00    +0.000 A 
ATOM      7  N   UNL     1      -0.406  13.762  23.062  0.00  0.00    +0.000 NA
ATOM      8  N   UNL     1      -0.892  14.900  23.593  0.00  0.00    +0.000 N 
ATOM      9  C   UNL     1      -2.251  14.902  23.678  0.00  0.00    +0.000 A 
ATOM     10  N   UNL     1      -3.049  15.930  24.078  0.00  0.00    +0.000 N 
ATOM     11  H   UNL     1      -0.244  15.644  23.835  0.00  0.00    +0.000 HD
ATOM     12  H   UNL     1      -2.691  16.854  24.303  0.00  0.00    +0.000 HD
ENDROOT
BRANCH   6  13
ATOM     13  C   UNL     1      -1.418  11.767  21.960  0.00  0.00    +0.000 C 
ATOM     14  C   UNL     1      -1.171  10.462  22.731  0.00  0.00    +0.000 C 
ATOM     15  C   UNL     1       0.291  10.019  22.839  0.00  0.00    +0.000 C 
ATOM     16  N   UNL     1       1.000  10.228  21.581  0.00  0.00    +0.000 N 
ATOM     17  C   UNL     1       1.294   9.231  20.693  0.00  0.00    +0.000 A 
ATOM     18  N   UNL     1       1.468   9.444  19.405  0.00  0.00    +0.000 NA
ATOM     19  C   UNL     1       1.808   8.279  18.749  0.00  0.00    +0.000 A 
ATOM     20  C   UNL     1       1.904   7.148  19.530  0.00  0.00    +0.000 A 
ATOM     21  S   UNL     1       1.558   7.585  21.154  0.00  0.00    +0.000 S 
ATOM     22  C   UNL     1       0.957  11.599  21.090  0.00  0.00    +0.000 C 
ATOM     23  C   UNL     1      -0.482  11.959  20.758  0.00  0.00    +0.000 C 
BRANCH  20  24
ATOM     24  C   UNL     1       2.245   5.769  19.155  0.00  0.00    +0.000 A 
ATOM     25  C   UNL     1       2.575   4.826  20.141  0.00  0.00    +0.000 A 
ATOM     26  C   UNL     1       2.935   3.519  19.794  0.00  0.00    +0.000 A 
ATOM     27  C   UNL     1       2.970   3.137  18.455  0.00  0.00    +0.000 A 
ATOM     28  C   UNL     1       2.641   4.059  17.465  0.00  0.00    +0.000 A 
ATOM     29  C   UNL     1       2.283   5.362  17.811  0.00  0.00    +0.000 A 
ENDBRANCH  20  24
ENDBRANCH   6  13
BRANCH   4  30
ATOM     30  C   UNL     1      -4.606  13.084  21.662  0.00  0.00    +0.000 C 
ATOM     31  F   UNL     1      -4.097  13.977  20.785  0.00  0.00    +0.000 F 
ATOM     32  F   UNL     1      -4.304  11.858  21.185  0.00  0.00    +0.000 F 
ATOM     33  F   UNL     1      -5.959  13.213  21.590  0.00  0.00    +0.000 F 
ENDBRANCH   4  30
BRANCH   4  34
ATOM     34  O   UNL     1      -4.299  12.114  23.938  0.00  0.00    +0.000 OA
ATOM     35  H   UNL     1      -4.945  12.306  24.643  0.00  0.00    +0.000 HD
ENDBRANCH   4  34
TORSDOF 4
ENDMDL
MODEL 8
REMARK VINA RESULT:      -6.7      6.117      7.179
REMARK  Name = 
REMARK  4 active torsions:
REMARK  status: ('A' for Active; 'I' for Inactive)
REMARK    1  A    between atoms: C_4  and  O_5
REMARK    2  A    between atoms: C_4  and  C_6
REMARK    3  A    between atoms: C_11  and  C_12
REMARK    4  A    between atoms: C_19  and  C_20
REMARK                            x       y       z     vdW  Elec       q    Type
REMARK                         _______ _______ _______ _____ _____    ______ ____
ROOT
ATOM      1  O   UNL     1      -4.418  12.957  20.716  0.00  0.00    +0.000 OA
ATOM      2  C   UNL     1      -3.214  13.218  20.693  0.00  0.00    +0.000 C 
ATOM      3  C   UNL     1      -2.200  12.246  21.291  0.00  0.00    +0.000 C 
ATOM      4  C   UNL     1      -0.714  12.404  20.880  0.00  0.00    +0.000 C 
ATOM      5  C   UNL     1      -0.458  13.773  20.334  0.00  0.00    +0.000 A 
ATOM      6  C   UNL     1       0.727  14.424  19.880  0.00  0.00    +0.000 A 
ATOM      7  N   UNL     1       0.464  15.668  19.451  0.00  0.00    +0.000 NA
ATOM      8  N   UNL     1      -0.873  15.787  19.568  0.00  0.00    +0.000 N 
ATOM      9  C   UNL     1      -1.458  14.664  20.068  0.00  0.00    +0.000 A 
ATOM     10  N   UNL     1      -2.791  14.428  20.219  0.00  0.00    +0.000 N 
ATOM     11  H   UNL     1      -1.319  16.643  19.252  0.00  0.00    +0.000 HD
ATOM     12  H   UNL     1      -3.508  15.076  19.902  0.00  0.00    +0.000 HD
ENDROOT
BRANCH   6  13
ATOM     13  C   UNL     1       2.086  13.789  19.689  0.00  0.00    +0.000 C 
ATOM     14  C   UNL     1       3.098  14.004  20.824  0.00  0.00    +0.000 C 
ATOM     15  C   UNL     1       4.054  15.187  20.649  0.00  0.00    +0.000 C 
ATOM     16  N   UNL     1       4.524  15.287  19.271  0.00  0.00    +0.000 N 
ATOM     17  C   UNL     1       5.760  14.882  18.853  0.00  0.00    +0.000 A 
ATOM     18  N   UNL     1       6.015  14.511  17.614  0.00  0.00    +0.000 NA
ATOM     19  C   UNL     1       7.349  14.205  17.450  0.00  0.00    +0.000 A 
ATOM     20  C   UNL     1       8.146  14.339  18.566  0.00  0.00    +0.000 A 
ATOM     21  S   UNL     1       7.163  14.882  19.866  0.00  0.00    +0.000 S 
ATOM     22  C   UNL     1       3.459  15.390  18.282  0.00  0.00    +0.000 C 
ATOM     23  C   UNL     1       2.649  14.105  18.295  0.00  0.00    +0.000 C 
BRANCH  20  24
ATOM     24  C   UNL     1       9.586  14.102  18.732  0.00  0.00    +0.000 A 
ATOM     25  C   UNL     1      10.199  12.997  18.122  0.00  0.00    +0.000 A 
ATOM     26  C   UNL     1      11.563  12.741  18.301  0.00  0.00    +0.000 A 
ATOM     27  C   UNL     1      12.333  13.589  19.093  0.00  0.00    +0.000 A 
ATOM     28  C   UNL     1      11.743  14.692  19.701  0.00  0.00    +0.000 A 
ATOM     29  C   UNL     1      10.382  14.946  19.524  0.00  0.00    +0.000 A 
ENDBRANCH  20  24
ENDBRANCH   6  13
BRANCH   4  30
ATOM     30  C   UNL     1      -0.283  11.273  19.878  0.00  0.00    +0.000 C 
ATOM     31  F   UNL     1      -1.086  10.187  19.918  0.00  0.00    +0.000 F 
ATOM     32  F   UNL     1      -0.237  11.675  18.591  0.00  0.00    +0.000 F 
ATOM     33  F   UNL     1       0.965  10.831  20.198  0.00  0.00    +0.000 F 
ENDBRANCH   4  30
BRANCH   4  34
ATOM     34  O   UNL     1       0.038  12.306  22.125  0.00  0.00    +0.000 OA
ATOM     35  H   UNL     1      -0.517  12.666  22.841  0.00  0.00    +0.000 HD
ENDBRANCH   4  34
TORSDOF 4
ENDMDL
MODEL 9
REMARK VINA RESULT:      -6.5      1.162      1.235
REMARK  Name = 
REMARK  4 active torsions:
REMARK  status: ('A' for Active; 'I' for Inactive)
REMARK    1  A    between atoms: C_4  and  O_5
REMARK    2  A    between atoms: C_4  and  C_6
REMARK    3  A    between atoms: C_11  and  C_12
REMARK    4  A    between atoms: C_19  and  C_20
REMARK                            x       y       z     vdW  Elec       q    Type
REMARK                         _______ _______ _______ _____ _____    ______ ____
ROOT
ATOM      1  O   UNL     1      -5.685  16.635  22.977  0.00  0.00    +0.000 OA
ATOM      2  C   UNL     1      -4.824  15.811  22.665  0.00  0.00    +0.000 C 
ATOM      3  C   UNL     1      -5.140  14.318  22.683  0.00  0.00    +0.000 C 
ATOM      4  C   UNL     1      -4.196  13.366  21.904  0.00  0.00    +0.000 C 
ATOM      5  C   UNL     1      -2.872  14.019  21.658  0.00  0.00    +0.000 A 
ATOM      6  C   UNL     1      -1.669  13.557  21.047  0.00  0.00    +0.000 A 
ATOM      7  N   UNL     1      -0.733  14.519  21.030  0.00  0.00    +0.000 NA
ATOM      8  N   UNL     1      -1.348  15.594  21.561  0.00  0.00    +0.000 N 
ATOM      9  C   UNL     1      -2.635  15.338  21.923  0.00  0.00    +0.000 A 
ATOM     10  N   UNL     1      -3.550  16.228  22.397  0.00  0.00    +0.000 N 
ATOM     11  H   UNL     1      -0.843  16.474  21.608  0.00  0.00    +0.000 HD
ATOM     12  H   UNL     1      -3.366  17.225  22.472  0.00  0.00    +0.000 HD
ENDROOT
BRANCH   6  13
ATOM     13  C   UNL     1      -1.474  12.248  20.317  0.00  0.00    +0.000 C 
ATOM     14  C   UNL     1      -1.224  11.014  21.196  0.00  0.00    +0.000 C 
ATOM     15  C   UNL     1       0.246  10.654  21.435  0.00  0.00    +0.000 C 
ATOM     16  N   UNL     1       1.033  10.811  20.217  0.00  0.00    +0.000 N 
ATOM     17  C   UNL     1       1.435   9.771  19.426  0.00  0.00    +0.000 A 
ATOM     18  N   UNL     1       1.691   9.902  18.140  0.00  0.00    +0.000 NA
ATOM     19  C   UNL     1       2.129   8.714  17.595  0.00  0.00    +0.000 A 
ATOM     20  C   UNL     1       2.221   7.645  18.461  0.00  0.00    +0.000 A 
ATOM     21  S   UNL     1       1.739   8.176  20.022  0.00  0.00    +0.000 S 
ATOM     22  C   UNL     1       0.963  12.141  19.625  0.00  0.00    +0.000 C 
ATOM     23  C   UNL     1      -0.463  12.403  19.170  0.00  0.00    +0.000 C 
BRANCH  20  24
ATOM     24  C   UNL     1       2.650   6.263  18.212  0.00  0.00    +0.000 A 
ATOM     25  C   UNL     1       1.700   5.243  18.047  0.00  0.00    +0.000 A 
ATOM     26  C   UNL     1       2.096   3.916  17.843  0.00  0.00    +0.000 A 
ATOM     27  C   UNL     1       3.450   3.592  17.803  0.00  0.00    +0.000 A 
ATOM     28  C   UNL     1       4.405   4.591  17.960  0.00  0.00    +0.000 A 
ATOM     29  C   UNL     1       4.009   5.914  18.164  0.00  0.00    +0.000 A 
ENDBRANCH  20  24
ENDBRANCH   6  13
BRANCH   4  30
ATOM     30  C   UNL     1      -4.870  12.866  20.577  0.00  0.00    +0.000 C 
ATOM     31  F   UNL     1      -4.129  11.955  19.909  0.00  0.00    +0.000 F 
ATOM     32  F   UNL     1      -6.089  12.315  20.760  0.00  0.00    +0.000 F 
ATOM     33  F   UNL     1      -5.035  13.916  19.726  0.00  0.00    +0.000 F 
ENDBRANCH   4  30
BRANCH   4  34
ATOM     34  O   UNL     1      -3.946  12.251  22.810  0.00  0.00    +0.000 OA
ATOM     35  H   UNL     1      -3.405  11.594  22.336  0.00  0.00    +0.000 HD
ENDBRANCH   4  34
TORSDOF 4
ENDMDL
