MODEL 1
REMARK VINA RESULT:      -6.8      0.000      0.000
REMARK  Name = 
REMARK  6 active torsions:
REMARK  status: ('A' for Active; 'I' for Inactive)
REMARK    1  A    between atoms: C_1  and  O_2
REMARK    2  A    between atoms: O_2  and  C_3
REMARK    3  A    between atoms: C_8  and  C_9
REMARK    4  A    between atoms: C_9  and  N_10
REMARK    5  A    between atoms: N_10  and  C_11
REMARK    6  A    between atoms: C_18  and  O_19
REMARK                            x       y       z     vdW  Elec       q    Type
REMARK                         _______ _______ _______ _____ _____    ______ ____
ROOT
ATOM      1  C   UNL     1       6.722   4.614  17.812  0.00  0.00    +0.000 A 
ATOM      2  C   UNL     1       7.059   4.407  16.470  0.00  0.00    +0.000 A 
ATOM      3  C   UNL     1       6.072   4.369  15.492  0.00  0.00    +0.000 A 
ATOM      4 BR   UNL     1       6.546   4.050  13.691  0.00  0.00    +0.000 Br
ATOM      5  C   UNL     1       4.735   4.568  15.830  0.00  0.00    +0.000 A 
ATOM      6  C   UNL     1       4.367   4.804  17.164  0.00  0.00    +0.000 A 
ATOM      7  C   UNL     1       5.373   4.818  18.152  0.00  0.00    +0.000 A 
ENDROOT
BRANCH   1   9
ATOM      8  C   UNL     1       8.104   5.915  19.247  0.00  0.00    +0.000 C 
ATOM      9  O   UNL     1       7.813   4.666  18.636  0.00  0.00    +0.000 OA
ENDBRANCH   1   9
BRANCH   7  10
ATOM     10  O   UNL     1       5.023   5.067  19.453  0.00  0.00    +0.000 OA
ATOM     11  H   UNL     1       5.847   5.084  19.979  0.00  0.00    +0.000 HD
ENDBRANCH   7  10
BRANCH   6  12
ATOM     12  C   UNL     1       2.907   5.070  17.485  0.00  0.00    +0.000 C 
BRANCH  12  13
ATOM     13  N   UNL     1       2.347   3.923  18.211  0.00  0.00    +0.000 NA
ATOM     14  H   UNL     1       3.124   3.441  18.665  0.00  0.00    +0.000 HD
BRANCH  13  15
ATOM     15  C   UNL     1       1.353   4.306  19.246  0.00  0.00    +0.000 C 
ATOM     16  C   UNL     1       0.764   3.038  19.885  0.00  0.00    +0.000 C 
ATOM     17  C   UNL     1       1.758   2.357  20.822  0.00  0.00    +0.000 C 
ATOM     18  C   UNL     1       2.160   3.325  21.921  0.00  0.00    +0.000 C 
ATOM     19  N   UNL     1       2.563   4.615  21.409  0.00  0.00    +0.000 N 
ATOM     20  C   UNL     1       1.977   5.216  20.326  0.00  0.00    +0.000 C 
ATOM     21  O   UNL     1       2.069   6.435  20.185  0.00  0.00    +0.000 OA
ATOM     22  H   UNL     1       2.931   5.289  22.072  0.00  0.00    +0.000 HD
ENDBRANCH  13  15
ENDBRANCH  12  13
ENDBRANCH   6  12
TORSDOF 5
ENDMDL
MODEL 2
REMARK VINA RESULT:      -6.8      2.713      3.120
REMARK  Name = 
REMARK  6 active torsions:
REMARK  status: ('A' for Active; 'I' for Inactive)
REMARK    1  A    between atoms: C_1  and  O_2
REMARK    2  A    between atoms: O_2  and  C_3
REMARK    3  A    between atoms: C_8  and  C_9
REMARK    4  A    between atoms: C_9  and  N_10
REMARK    5  A    between atoms: N_10  and  C_11
REMARK    6  A    between atoms: C_18  and  O_19
REMARK                            x       y       z     vdW  Elec       q    Type
REMARK                         _______ _______ _______ _____ _____    ______ ____
ROOT
ATOM      1  C   UNL     1       6.407   6.408  17.064  0.00  0.00    +0.000 A 
ATOM      2  C   UNL     1       5.420   7.375  17.287  0.00  0.00    +0.000 A 
ATOM      3  C   UNL     1       4.095   7.002  17.478  0.00  0.00    +0.000 A 
ATOM      4 BR   UNL     1       2.774   8.327  17.741  0.00  0.00    +0.000 Br
ATOM      5  C   UNL     1       3.734   5.656  17.482  0.00  0.00    +0.000 A 
ATOM      6  C   UNL     1       4.704   4.660  17.286  0.00  0.00    +0.000 A 
ATOM      7  C   UNL     1       6.042   5.050  17.070  0.00  0.00    +0.000 A 
ENDROOT
BRANCH   1   9
ATOM      8  C   UNL     1       7.915   8.161  17.619  0.00  0.00    +0.000 C 
ATOM      9  O   UNL     1       7.660   6.941  16.939  0.00  0.00    +0.000 OA
ENDBRANCH   1   9
BRANCH   7  10
ATOM     10  O   UNL     1       6.996   4.082  16.898  0.00  0.00    +0.000 OA
ATOM     11  H   UNL     1       7.338   4.167  15.987  0.00  0.00    +0.000 HD
ENDBRANCH   7  10
BRANCH   6  12
ATOM     12  C   UNL     1       4.281   3.203  17.349  0.00  0.00    +0.000 C 
BRANCH  12  13
ATOM     13  N   UNL     1       2.829   3.121  17.548  0.00  0.00    +0.000 NA
ATOM     14  H   UNL     1       2.423   2.771  16.679  0.00  0.00    +0.000 HD
BRANCH  13  15
ATOM     15  C   UNL     1       2.434   2.214  18.657  0.00  0.00    +0.000 C 
ATOM     16  C   UNL     1       3.333   2.475  19.876  0.00  0.00    +0.000 C 
ATOM     17  C   UNL     1       2.982   3.787  20.574  0.00  0.00    +0.000 C 
ATOM     18  C   UNL     1       1.532   3.746  21.025  0.00  0.00    +0.000 C 
ATOM     19  N   UNL     1       0.631   3.333  19.973  0.00  0.00    +0.000 N 
ATOM     20  C   UNL     1       0.947   2.388  19.033  0.00  0.00    +0.000 C 
ATOM     21  O   UNL     1       0.046   1.799  18.439  0.00  0.00    +0.000 OA
ATOM     22  H   UNL     1      -0.364   3.366  20.168  0.00  0.00    +0.000 HD
ENDBRANCH  13  15
ENDBRANCH  12  13
ENDBRANCH   6  12
TORSDOF 5
ENDMDL
MODEL 3
REMARK VINA RESULT:      -6.8      2.598      3.591
REMARK  Name = 
REMARK  6 active torsions:
REMARK  status: ('A' for Active; 'I' for Inactive)
REMARK    1  A    between atoms: C_1  and  O_2
REMARK    2  A    between atoms: O_2  and  C_3
REMARK    3  A    between atoms: C_8  and  C_9
REMARK    4  A    between atoms: C_9  and  N_10
REMARK    5  A    between atoms: N_10  and  C_11
REMARK    6  A    between atoms: C_18  and  O_19
REMARK                            x       y       z     vdW  Elec       q    Type
REMARK                         _______ _______ _______ _____ _____    ______ ____
ROOT
ATOM      1  C   UNL     1       6.018   5.179  15.914  0.00  0.00    +0.000 A 
ATOM      2  C   UNL     1       6.769   6.326  16.194  0.00  0.00    +0.000 A 
ATOM      3  C   UNL     1       7.026   6.699  17.507  0.00  0.00    +0.000 A 
ATOM      4 BR   UNL     1       8.012   8.273  17.861  0.00  0.00    +0.000 Br
ATOM      5  C   UNL     1       6.566   5.919  18.567  0.00  0.00    +0.000 A 
ATOM      6  C   UNL     1       5.832   4.749  18.319  0.00  0.00    +0.000 A 
ATOM      7  C   UNL     1       5.556   4.391  16.984  0.00  0.00    +0.000 A 
ENDROOT
BRANCH   1   9
ATOM      8  C   UNL     1       7.086   4.632  13.860  0.00  0.00    +0.000 C 
ATOM      9  O   UNL     1       5.895   4.933  14.575  0.00  0.00    +0.000 OA
ENDBRANCH   1   9
BRANCH   7  10
ATOM     10  O   UNL     1       4.857   3.239  16.735  0.00  0.00    +0.000 OA
ATOM     11  H   UNL     1       4.165   3.164  17.421  0.00  0.00    +0.000 HD
ENDBRANCH   7  10
BRANCH   6  12
ATOM     12  C   UNL     1       5.393   3.897  19.497  0.00  0.00    +0.000 C 
BRANCH  12  13
ATOM     13  N   UNL     1       3.934   3.979  19.646  0.00  0.00    +0.000 NA
ATOM     14  H   UNL     1       3.548   4.219  18.732  0.00  0.00    +0.000 HD
BRANCH  13  15
ATOM     15  C   UNL     1       3.315   2.709  20.107  0.00  0.00    +0.000 C 
ATOM     16  C   UNL     1       2.041   3.022  20.908  0.00  0.00    +0.000 C 
ATOM     17  C   UNL     1       0.895   3.472  20.004  0.00  0.00    +0.000 C 
ATOM     18  C   UNL     1       0.591   2.380  18.994  0.00  0.00    +0.000 C 
ATOM     19  N   UNL     1       1.774   1.901  18.316  0.00  0.00    +0.000 N 
ATOM     20  C   UNL     1       2.995   1.770  18.925  0.00  0.00    +0.000 C 
ATOM     21  O   UNL     1       3.832   1.007  18.446  0.00  0.00    +0.000 OA
ATOM     22  H   UNL     1       1.646   1.234  17.562  0.00  0.00    +0.000 HD
ENDBRANCH  13  15
ENDBRANCH  12  13
ENDBRANCH   6  12
TORSDOF 5
ENDMDL
MODEL 4
REMARK VINA RESULT:      -6.8      2.865      3.902
REMARK  Name = 
REMARK  6 active torsions:
REMARK  status: ('A' for Active; 'I' for Inactive)
REMARK    1  A    between atoms: C_1  and  O_2
REMARK    2  A    between atoms: O_2  and  C_3
REMARK    3  A    between atoms: C_8  and  C_9
REMARK    4  A    between atoms: C_9  and  N_10
REMARK    5  A    between atoms: N_10  and  C_11
REMARK    6  A    between atoms: C_18  and  O_19
REMARK                            x       y       z     vdW  Elec       q    Type
REMARK                         _______ _______ _______ _____ _____    ______ ____
ROOT
ATOM      1  C   UNL     1       4.433   6.546  17.742  0.00  0.00    +0.000 A 
ATOM      2  C   UNL     1       3.672   7.694  17.495  0.00  0.00    +0.000 A 
ATOM      3  C   UNL     1       2.537   7.965  18.250  0.00  0.00    +0.000 A 
ATOM      4 BR   UNL     1       1.503   9.502  17.874  0.00  0.00    +0.000 Br
ATOM      5  C   UNL     1       2.157   7.113  19.285  0.00  0.00    +0.000 A 
ATOM      6  C   UNL     1       2.914   5.967  19.574  0.00  0.00    +0.000 A 
ATOM      7  C   UNL     1       4.050   5.688  18.788  0.00  0.00    +0.000 A 
ENDROOT
BRANCH   1   9
ATOM      8  C   UNL     1       5.355   5.889  15.650  0.00  0.00    +0.000 C 
ATOM      9  O   UNL     1       5.537   6.454  16.940  0.00  0.00    +0.000 OA
ENDBRANCH   1   9
BRANCH   7  10
ATOM     10  O   UNL     1       4.805   4.582  19.078  0.00  0.00    +0.000 OA
ATOM     11  H   UNL     1       4.545   4.277  19.970  0.00  0.00    +0.000 HD
ENDBRANCH   7  10
BRANCH   6  12
ATOM     12  C   UNL     1       2.499   5.091  20.744  0.00  0.00    +0.000 C 
BRANCH  12  13
ATOM     13  N   UNL     1       1.169   4.524  20.486  0.00  0.00    +0.000 NA
ATOM     14  H   UNL     1       0.877   4.845  19.561  0.00  0.00    +0.000 HD
BRANCH  13  15
ATOM     15  C   UNL     1       1.146   3.039  20.504  0.00  0.00    +0.000 C 
ATOM     16  C   UNL     1       0.709   2.517  19.126  0.00  0.00    +0.000 C 
ATOM     17  C   UNL     1       1.811   2.674  18.081  0.00  0.00    +0.000 C 
ATOM     18  C   UNL     1       3.046   1.913  18.531  0.00  0.00    +0.000 C 
ATOM     19  N   UNL     1       3.424   2.218  19.892  0.00  0.00    +0.000 N 
ATOM     20  C   UNL     1       2.520   2.452  20.894  0.00  0.00    +0.000 C 
ATOM     21  O   UNL     1       2.863   2.306  22.067  0.00  0.00    +0.000 OA
ATOM     22  H   UNL     1       4.290   1.819  20.239  0.00  0.00    +0.000 HD
ENDBRANCH  13  15
ENDBRANCH  12  13
ENDBRANCH   6  12
TORSDOF 5
ENDMDL
MODEL 5
REMARK VINA RESULT:      -6.8      1.144      1.197
REMARK  Name = 
REMARK  6 active torsions:
REMARK  status: ('A' for Active; 'I' for Inactive)
REMARK    1  A    between atoms: C_1  and  O_2
REMARK    2  A    between atoms: O_2  and  C_3
REMARK    3  A    between atoms: C_8  and  C_9
REMARK    4  A    between atoms: C_9  and  N_10
REMARK    5  A    between atoms: N_10  and  C_11
REMARK    6  A    between atoms: C_18  and  O_19
REMARK                            x       y       z     vdW  Elec       q    Type
REMARK                         _______ _______ _______ _____ _____    ______ ____
ROOT
ATOM      1  C   UNL     1       6.967   5.695  17.566  0.00  0.00    +0.000 A 
ATOM      2  C   UNL     1       6.999   5.408  16.196  0.00  0.00    +0.000 A 
ATOM      3  C   UNL     1       6.135   4.465  15.653  0.00  0.00    +0.000 A 
ATOM      4 BR   UNL     1       6.220   4.066  13.807  0.00  0.00    +0.000 Br
ATOM      5  C   UNL     1       5.202   3.814  16.458  0.00  0.00    +0.000 A 
ATOM      6  C   UNL     1       5.128   4.099  17.830  0.00  0.00    +0.000 A 
ATOM      7  C   UNL     1       6.024   5.039  18.377  0.00  0.00    +0.000 A 
ENDROOT
BRANCH   1   9
ATOM      8  C   UNL     1       7.578   7.992  17.472  0.00  0.00    +0.000 C 
ATOM      9  O   UNL     1       7.850   6.675  17.928  0.00  0.00    +0.000 OA
ENDBRANCH   1   9
BRANCH   7  10
ATOM     10  O   UNL     1       5.943   5.336  19.712  0.00  0.00    +0.000 OA
ATOM     11  H   UNL     1       6.822   5.162  20.104  0.00  0.00    +0.000 HD
ENDBRANCH   7  10
BRANCH   6  12
ATOM     12  C   UNL     1       4.064   3.408  18.665  0.00  0.00    +0.000 C 
BRANCH  12  13
ATOM     13  N   UNL     1       2.754   3.568  18.021  0.00  0.00    +0.000 NA
ATOM     14  H   UNL     1       2.383   2.632  17.850  0.00  0.00    +0.000 HD
BRANCH  13  15
ATOM     15  C   UNL     1       1.777   4.323  18.848  0.00  0.00    +0.000 C 
ATOM     16  C   UNL     1       0.802   3.339  19.515  0.00  0.00    +0.000 C 
ATOM     17  C   UNL     1       1.461   2.570  20.658  0.00  0.00    +0.000 C 
ATOM     18  C   UNL     1       1.967   3.552  21.701  0.00  0.00    +0.000 C 
ATOM     19  N   UNL     1       2.753   4.621  21.127  0.00  0.00    +0.000 N 
ATOM     20  C   UNL     1       2.482   5.191  19.912  0.00  0.00    +0.000 C 
ATOM     21  O   UNL     1       2.907   6.319  19.663  0.00  0.00    +0.000 OA
ATOM     22  H   UNL     1       3.202   5.268  21.766  0.00  0.00    +0.000 HD
ENDBRANCH  13  15
ENDBRANCH  12  13
ENDBRANCH   6  12
TORSDOF 5
ENDMDL
MODEL 6
REMARK VINA RESULT:      -6.8      3.106      5.858
REMARK  Name = 
REMARK  6 active torsions:
REMARK  status: ('A' for Active; 'I' for Inactive)
REMARK    1  A    between atoms: C_1  and  O_2
REMARK    2  A    between atoms: O_2  and  C_3
REMARK    3  A    between atoms: C_8  and  C_9
REMARK    4  A    between atoms: C_9  and  N_10
REMARK    5  A    between atoms: N_10  and  C_11
REMARK    6  A    between atoms: C_18  and  O_19
REMARK                            x       y       z     vdW  Elec       q    Type
REMARK                         _______ _______ _______ _____ _____    ______ ____
ROOT
ATOM      1  C   UNL     1       2.894   3.518  19.539  0.00  0.00    +0.000 A 
ATOM      2  C   UNL     1       2.157   4.706  19.598  0.00  0.00    +0.000 A 
ATOM      3  C   UNL     1       2.800   5.938  19.570  0.00  0.00    +0.000 A 
ATOM      4 BR   UNL     1       1.787   7.529  19.687  0.00  0.00    +0.000 Br
ATOM      5  C   UNL     1       4.187   6.009  19.452  0.00  0.00    +0.000 A 
ATOM      6  C   UNL     1       4.952   4.836  19.366  0.00  0.00    +0.000 A 
ATOM      7  C   UNL     1       4.293   3.590  19.418  0.00  0.00    +0.000 A 
ENDROOT
BRANCH   1   9
ATOM      8  C   UNL     1       0.825   2.514  18.932  0.00  0.00    +0.000 C 
ATOM      9  O   UNL     1       2.107   2.400  19.533  0.00  0.00    +0.000 OA
ENDBRANCH   1   9
BRANCH   7  10
ATOM     10  O   UNL     1       5.033   2.442  19.314  0.00  0.00    +0.000 OA
ATOM     11  H   UNL     1       5.420   2.424  18.416  0.00  0.00    +0.000 HD
ENDBRANCH   7  10
BRANCH   6  12
ATOM     12  C   UNL     1       6.455   4.954  19.185  0.00  0.00    +0.000 C 
BRANCH  12  13
ATOM     13  N   UNL     1       6.880   4.128  18.047  0.00  0.00    +0.000 NA
ATOM     14  H   UNL     1       6.060   3.614  17.722  0.00  0.00    +0.000 HD
BRANCH  13  15
ATOM     15  C   UNL     1       7.428   4.918  16.915  0.00  0.00    +0.000 C 
ATOM     16  C   UNL     1       6.829   4.404  15.595  0.00  0.00    +0.000 C 
ATOM     17  C   UNL     1       5.370   4.825  15.429  0.00  0.00    +0.000 C 
ATOM     18  C   UNL     1       5.275   6.340  15.461  0.00  0.00    +0.000 C 
ATOM     19  N   UNL     1       5.971   6.920  16.587  0.00  0.00    +0.000 N 
ATOM     20  C   UNL     1       7.149   6.427  17.084  0.00  0.00    +0.000 C 
ATOM     21  O   UNL     1       7.882   7.160  17.747  0.00  0.00    +0.000 OA
ATOM     22  H   UNL     1       5.881   7.920  16.730  0.00  0.00    +0.000 HD
ENDBRANCH  13  15
ENDBRANCH  12  13
ENDBRANCH   6  12
TORSDOF 5
ENDMDL
MODEL 7
REMARK VINA RESULT:      -6.7      2.351      3.049
REMARK  Name = 
REMARK  6 active torsions:
REMARK  status: ('A' for Active; 'I' for Inactive)
REMARK    1  A    between atoms: C_1  and  O_2
REMARK    2  A    between atoms: O_2  and  C_3
REMARK    3  A    between atoms: C_8  and  C_9
REMARK    4  A    between atoms: C_9  and  N_10
REMARK    5  A    between atoms: N_10  and  C_11
REMARK    6  A    between atoms: C_18  and  O_19
REMARK                            x       y       z     vdW  Elec       q    Type
REMARK                         _______ _______ _______ _____ _____    ______ ____
ROOT
ATOM      1  C   UNL     1       6.113   4.950  16.088  0.00  0.00    +0.000 A 
ATOM      2  C   UNL     1       7.053   5.913  16.475  0.00  0.00    +0.000 A 
ATOM      3  C   UNL     1       6.671   6.999  17.254  0.00  0.00    +0.000 A 
ATOM      4 BR   UNL     1       7.948   8.306  17.734  0.00  0.00    +0.000 Br
ATOM      5  C   UNL     1       5.353   7.129  17.687  0.00  0.00    +0.000 A 
ATOM      6  C   UNL     1       4.392   6.167  17.337  0.00  0.00    +0.000 A 
ATOM      7  C   UNL     1       4.784   5.081  16.527  0.00  0.00    +0.000 A 
ENDROOT
BRANCH   1   9
ATOM      8  C   UNL     1       6.531   3.994  13.951  0.00  0.00    +0.000 C 
ATOM      9  O   UNL     1       6.662   3.929  15.363  0.00  0.00    +0.000 OA
ENDBRANCH   1   9
BRANCH   7  10
ATOM     10  O   UNL     1       3.856   4.128  16.199  0.00  0.00    +0.000 OA
ATOM     11  H   UNL     1       3.883   4.017  15.228  0.00  0.00    +0.000 HD
ENDBRANCH   7  10
BRANCH   6  12
ATOM     12  C   UNL     1       2.979   6.315  17.871  0.00  0.00    +0.000 C 
BRANCH  12  13
ATOM     13  N   UNL     1       2.555   5.055  18.497  0.00  0.00    +0.000 NA
ATOM     14  H   UNL     1       2.844   4.296  17.877  0.00  0.00    +0.000 HD
BRANCH  13  15
ATOM     15  C   UNL     1       3.156   4.830  19.837  0.00  0.00    +0.000 C 
ATOM     16  C   UNL     1       2.055   4.893  20.908  0.00  0.00    +0.000 C 
ATOM     17  C   UNL     1       1.168   3.650  20.889  0.00  0.00    +0.000 C 
ATOM     18  C   UNL     1       2.022   2.417  21.126  0.00  0.00    +0.000 C 
ATOM     19  N   UNL     1       3.187   2.371  20.272  0.00  0.00    +0.000 N 
ATOM     20  C   UNL     1       3.903   3.481  19.908  0.00  0.00    +0.000 C 
ATOM     21  O   UNL     1       5.069   3.356  19.536  0.00  0.00    +0.000 OA
ATOM     22  H   UNL     1       3.762   1.536  20.306  0.00  0.00    +0.000 HD
ENDBRANCH  13  15
ENDBRANCH  12  13
ENDBRANCH   6  12
TORSDOF 5
ENDMDL
MODEL 8
REMARK VINA RESULT:      -6.6      3.301      5.900
REMARK  Name = 
REMARK  6 active torsions:
REMARK  status: ('A' for Active; 'I' for Inactive)
REMARK    1  A    between atoms: C_1  and  O_2
REMARK    2  A    between atoms: O_2  and  C_3
REMARK    3  A    between atoms: C_8  and  C_9
REMARK    4  A    between atoms: C_9  and  N_10
REMARK    5  A    between atoms: N_10  and  C_11
REMARK    6  A    between atoms: C_18  and  O_19
REMARK                            x       y       z     vdW  Elec       q    Type
REMARK                         _______ _______ _______ _____ _____    ______ ____
ROOT
ATOM      1  C   UNL     1       3.156   4.052  19.401  0.00  0.00    +0.000 A 
ATOM      2  C   UNL     1       2.444   5.085  20.022  0.00  0.00    +0.000 A 
ATOM      3  C   UNL     1       2.544   6.390  19.556  0.00  0.00    +0.000 A 
ATOM      4 BR   UNL     1       1.603   7.775  20.433  0.00  0.00    +0.000 Br
ATOM      5  C   UNL     1       3.330   6.686  18.444  0.00  0.00    +0.000 A 
ATOM      6  C   UNL     1       4.035   5.668  17.783  0.00  0.00    +0.000 A 
ATOM      7  C   UNL     1       3.947   4.351  18.277  0.00  0.00    +0.000 A 
ENDROOT
BRANCH   1   9
ATOM      8  C   UNL     1       1.868   2.052  19.384  0.00  0.00    +0.000 C 
ATOM      9  O   UNL     1       2.913   2.826  19.956  0.00  0.00    +0.000 OA
ENDBRANCH   1   9
BRANCH   7  10
ATOM     10  O   UNL     1       4.617   3.350  17.625  0.00  0.00    +0.000 OA
ATOM     11  H   UNL     1       4.764   3.647  16.705  0.00  0.00    +0.000 HD
ENDBRANCH   7  10
BRANCH   6  12
ATOM     12  C   UNL     1       4.838   6.020  16.543  0.00  0.00    +0.000 C 
BRANCH  12  13
ATOM     13  N   UNL     1       5.697   7.177  16.825  0.00  0.00    +0.000 NA
ATOM     14  H   UNL     1       5.503   7.472  17.784  0.00  0.00    +0.000 HD
BRANCH  13  15
ATOM     15  C   UNL     1       7.148   6.880  16.703  0.00  0.00    +0.000 C 
ATOM     16  C   UNL     1       7.817   7.019  18.080  0.00  0.00    +0.000 C 
ATOM     17  C   UNL     1       7.465   5.855  19.004  0.00  0.00    +0.000 C 
ATOM     18  C   UNL     1       7.909   4.552  18.365  0.00  0.00    +0.000 C 
ATOM     19  N   UNL     1       7.467   4.421  16.996  0.00  0.00    +0.000 N 
ATOM     20  C   UNL     1       7.395   5.473  16.120  0.00  0.00    +0.000 C 
ATOM     21  O   UNL     1       7.407   5.255  14.909  0.00  0.00    +0.000 OA
ATOM     22  H   UNL     1       7.646   3.540  16.526  0.00  0.00    +0.000 HD
ENDBRANCH  13  15
ENDBRANCH  12  13
ENDBRANCH   6  12
TORSDOF 5
ENDMDL
MODEL 9
REMARK VINA RESULT:      -6.6      1.340      1.407
REMARK  Name = 
REMARK  6 active torsions:
REMARK  status: ('A' for Active; 'I' for Inactive)
REMARK    1  A    between atoms: C_1  and  O_2
REMARK    2  A    between atoms: O_2  and  C_3
REMARK    3  A    between atoms: C_8  and  C_9
REMARK    4  A    between atoms: C_9  and  N_10
REMARK    5  A    between atoms: N_10  and  C_11
REMARK    6  A    between atoms: C_18  and  O_19
REMARK                            x       y       z     vdW  Elec       q    Type
REMARK                         _______ _______ _______ _____ _____    ______ ____
ROOT
ATOM      1  C   UNL     1       6.458   5.225  18.094  0.00  0.00    +0.000 A 
ATOM      2  C   UNL     1       6.765   4.863  16.778  0.00  0.00    +0.000 A 
ATOM      3  C   UNL     1       5.754   4.545  15.879  0.00  0.00    +0.000 A 
ATOM      4 BR   UNL     1       6.193   4.023  14.117  0.00  0.00    +0.000 Br
ATOM      5  C   UNL     1       4.417   4.613  16.267  0.00  0.00    +0.000 A 
ATOM      6  C   UNL     1       4.076   4.998  17.573  0.00  0.00    +0.000 A 
ATOM      7  C   UNL     1       5.109   5.295  18.484  0.00  0.00    +0.000 A 
ENDROOT
BRANCH   1   9
ATOM      8  C   UNL     1       8.091   6.857  18.671  0.00  0.00    +0.000 C 
ATOM      9  O   UNL     1       7.564   5.547  18.832  0.00  0.00    +0.000 OA
ENDBRANCH   1   9
BRANCH   7  10
ATOM     10  O   UNL     1       4.782   5.691  19.755  0.00  0.00    +0.000 OA
ATOM     11  H   UNL     1       4.442   4.905  20.226  0.00  0.00    +0.000 HD
ENDBRANCH   7  10
BRANCH   6  12
ATOM     12  C   UNL     1       2.608   5.111  17.943  0.00  0.00    +0.000 C 
BRANCH  12  13
ATOM     13  N   UNL     1       1.886   3.927  17.458  0.00  0.00    +0.000 NA
ATOM     14  H   UNL     1       2.523   3.412  16.848  0.00  0.00    +0.000 HD
BRANCH  13  15
ATOM     15  C   UNL     1       1.433   3.024  18.547  0.00  0.00    +0.000 C 
ATOM     16  C   UNL     1       2.210   1.700  18.470  0.00  0.00    +0.000 C 
ATOM     17  C   UNL     1       3.653   1.858  18.946  0.00  0.00    +0.000 C 
ATOM     18  C   UNL     1       3.659   2.356  20.381  0.00  0.00    +0.000 C 
ATOM     19  N   UNL     1       2.803   3.504  20.578  0.00  0.00    +0.000 N 
ATOM     20  C   UNL     1       1.605   3.674  19.936  0.00  0.00    +0.000 C 
ATOM     21  O   UNL     1       0.759   4.425  20.420  0.00  0.00    +0.000 OA
ATOM     22  H   UNL     1       2.820   3.951  21.488  0.00  0.00    +0.000 HD
ENDBRANCH  13  15
ENDBRANCH  12  13
ENDBRANCH   6  12
TORSDOF 5
ENDMDL
