MODEL 1
REMARK VINA RESULT:      -6.3      0.000      0.000
REMARK  Name = 
REMARK  4 active torsions:
REMARK  status: ('A' for Active; 'I' for Inactive)
REMARK    1  A    between atoms: C_1  and  C_2
REMARK    2  A    between atoms: C_9  and  C_10
REMARK    3  A    between atoms: C_16  and  C_17
REMARK    4  A    between atoms: C_19  and  N_20
REMARK                            x       y       z     vdW  Elec       q    Type
REMARK                         _______ _______ _______ _____ _____    ______ ____
ROOT
ATOM      1  C   UNL     1       7.021   4.975  14.834  0.00  0.00    +0.000 C 
ATOM      2  C   UNL     1       6.137   5.460  15.935  0.00  0.00    +0.000 A 
ATOM      3  C   UNL     1       5.230   6.441  15.829  0.00  0.00    +0.000 A 
ATOM      4  C   UNL     1       4.417   6.763  16.970  0.00  0.00    +0.000 A 
ATOM      5  C   UNL     1       4.563   6.098  18.121  0.00  0.00    +0.000 A 
ATOM      6  C   UNL     1       5.648   5.115  18.282  0.00  0.00    +0.000 A 
ATOM      7  O   UNL     1       5.908   4.625  19.378  0.00  0.00    +0.000 OA
ATOM      8  O   UNL     1       6.350   4.784  17.160  0.00  0.00    +0.000 OA
ATOM      9  C   UNL     1       3.630   6.308  19.273  0.00  0.00    +0.000 C 
ATOM     10  C   UNL     1       2.716   7.498  19.032  0.00  0.00    +0.000 C 
ATOM     11  C   UNL     1       2.672   8.162  17.861  0.00  0.00    +0.000 C 
ATOM     12  O   UNL     1       3.464   7.753  16.782  0.00  0.00    +0.000 OA
ENDROOT
BRANCH   9  13
ATOM     13  C   UNL     1       2.834   5.058  19.629  0.00  0.00    +0.000 A 
ATOM     14  C   UNL     1       2.435   4.623  20.880  0.00  0.00    +0.000 A 
ATOM     15  C   UNL     1       1.630   3.447  20.807  0.00  0.00    +0.000 A 
ATOM     16  C   UNL     1       1.464   3.034  19.510  0.00  0.00    +0.000 A 
ATOM     17 BR   UNL     1       0.415   1.565  19.012  0.00  0.00    +0.000 Br
ATOM     18  S   UNL     1       2.290   3.991  18.389  0.00  0.00    +0.000 S 
ENDBRANCH   9  13
BRANCH  11  19
ATOM     19  N   UNL     1       1.885   9.256  17.600  0.00  0.00    +0.000 N 
ATOM     20  H   UNL     1       0.995   9.303  18.091  0.00  0.00    +0.000 HD
ATOM     21  H   UNL     1       1.814   9.475  16.609  0.00  0.00    +0.000 HD
ENDBRANCH  11  19
BRANCH  10  22
ATOM     22  C   UNL     1       1.841   7.871  20.217  0.00  0.00    +0.000 C 
ATOM     23  N   UNL     1       1.116   8.180  21.201  0.00  0.00    +0.000 NA
ENDBRANCH  10  22
TORSDOF 3
ENDMDL
MODEL 2
REMARK VINA RESULT:      -6.3      1.012      1.149
REMARK  Name = 
REMARK  4 active torsions:
REMARK  status: ('A' for Active; 'I' for Inactive)
REMARK    1  A    between atoms: C_1  and  C_2
REMARK    2  A    between atoms: C_9  and  C_10
REMARK    3  A    between atoms: C_16  and  C_17
REMARK    4  A    between atoms: C_19  and  N_20
REMARK                            x       y       z     vdW  Elec       q    Type
REMARK                         _______ _______ _______ _____ _____    ______ ____
ROOT
ATOM      1  C   UNL     1       6.819   4.800  14.857  0.00  0.00    +0.000 C 
ATOM      2  C   UNL     1       5.952   5.347  15.943  0.00  0.00    +0.000 A 
ATOM      3  C   UNL     1       5.090   6.364  15.813  0.00  0.00    +0.000 A 
ATOM      4  C   UNL     1       4.287   6.745  16.942  0.00  0.00    +0.000 A 
ATOM      5  C   UNL     1       4.398   6.097  18.108  0.00  0.00    +0.000 A 
ATOM      6  C   UNL     1       5.437   5.070  18.293  0.00  0.00    +0.000 A 
ATOM      7  O   UNL     1       5.670   4.591  19.400  0.00  0.00    +0.000 OA
ATOM      8  O   UNL     1       6.129   4.686  17.183  0.00  0.00    +0.000 OA
ATOM      9  C   UNL     1       3.470   6.371  19.250  0.00  0.00    +0.000 C 
ATOM     10  C   UNL     1       2.611   7.596  18.981  0.00  0.00    +0.000 C 
ATOM     11  C   UNL     1       2.602   8.237  17.797  0.00  0.00    +0.000 C 
ATOM     12  O   UNL     1       3.380   7.773  16.730  0.00  0.00    +0.000 OA
ENDROOT
BRANCH   9  13
ATOM     13  C   UNL     1       2.618   5.165  19.626  0.00  0.00    +0.000 A 
ATOM     14  C   UNL     1       1.856   4.361  18.797  0.00  0.00    +0.000 A 
ATOM     15  C   UNL     1       1.261   3.274  19.503  0.00  0.00    +0.000 A 
ATOM     16  C   UNL     1       1.585   3.306  20.835  0.00  0.00    +0.000 A 
ATOM     17 BR   UNL     1       1.043   2.005  22.069  0.00  0.00    +0.000 Br
ATOM     18  S   UNL     1       2.539   4.632  21.263  0.00  0.00    +0.000 S 
ENDBRANCH   9  13
BRANCH  11  19
ATOM     19  N   UNL     1       1.866   9.360  17.510  0.00  0.00    +0.000 N 
ATOM     20  H   UNL     1       2.306  10.255  17.705  0.00  0.00    +0.000 HD
ATOM     21  H   UNL     1       0.901   9.303  17.831  0.00  0.00    +0.000 HD
ENDBRANCH  11  19
BRANCH  10  22
ATOM     22  C   UNL     1       1.748   8.031  20.153  0.00  0.00    +0.000 C 
ATOM     23  N   UNL     1       1.032   8.393  21.126  0.00  0.00    +0.000 NA
ENDBRANCH  10  22
TORSDOF 3
ENDMDL
MODEL 3
REMARK VINA RESULT:      -6.1      3.469      5.745
REMARK  Name = 
REMARK  4 active torsions:
REMARK  status: ('A' for Active; 'I' for Inactive)
REMARK    1  A    between atoms: C_1  and  C_2
REMARK    2  A    between atoms: C_9  and  C_10
REMARK    3  A    between atoms: C_16  and  C_17
REMARK    4  A    between atoms: C_19  and  N_20
REMARK                            x       y       z     vdW  Elec       q    Type
REMARK                         _______ _______ _______ _____ _____    ______ ____
ROOT
ATOM      1  C   UNL     1       1.727   2.173  20.281  0.00  0.00    +0.000 C 
ATOM      2  C   UNL     1       2.687   3.197  19.770  0.00  0.00    +0.000 A 
ATOM      3  C   UNL     1       3.954   3.345  20.178  0.00  0.00    +0.000 A 
ATOM      4  C   UNL     1       4.772   4.350  19.555  0.00  0.00    +0.000 A 
ATOM      5  C   UNL     1       4.278   5.127  18.585  0.00  0.00    +0.000 A 
ATOM      6  C   UNL     1       2.850   5.058  18.229  0.00  0.00    +0.000 A 
ATOM      7  O   UNL     1       2.341   5.879  17.470  0.00  0.00    +0.000 OA
ATOM      8  O   UNL     1       2.125   4.047  18.788  0.00  0.00    +0.000 OA
ATOM      9  C   UNL     1       5.147   6.073  17.816  0.00  0.00    +0.000 C 
ATOM     10  C   UNL     1       6.527   6.187  18.444  0.00  0.00    +0.000 C 
ATOM     11  C   UNL     1       6.932   5.410  19.467  0.00  0.00    +0.000 C 
ATOM     12  O   UNL     1       6.089   4.421  19.986  0.00  0.00    +0.000 OA
ENDROOT
BRANCH   9  13
ATOM     13  C   UNL     1       5.237   5.728  16.334  0.00  0.00    +0.000 A 
ATOM     14  C   UNL     1       5.035   6.558  15.247  0.00  0.00    +0.000 A 
ATOM     15  C   UNL     1       5.290   5.894  14.010  0.00  0.00    +0.000 A 
ATOM     16  C   UNL     1       5.662   4.590  14.210  0.00  0.00    +0.000 A 
ATOM     17 BR   UNL     1       6.143   3.421  12.828  0.00  0.00    +0.000 Br
ATOM     18  S   UNL     1       5.662   4.133  15.836  0.00  0.00    +0.000 S 
ENDBRANCH   9  13
BRANCH  11  19
ATOM     19  N   UNL     1       8.155   5.490  20.085  0.00  0.00    +0.000 N 
ATOM     20  H   UNL     1       8.504   6.424  20.285  0.00  0.00    +0.000 HD
ATOM     21  H   UNL     1       8.855   4.874  19.676  0.00  0.00    +0.000 HD
ENDBRANCH  11  19
BRANCH  10  22
ATOM     22  C   UNL     1       7.422   7.241  17.813  0.00  0.00    +0.000 C 
ATOM     23  N   UNL     1       8.164   8.115  17.289  0.00  0.00    +0.000 NA
ENDBRANCH  10  22
TORSDOF 3
ENDMDL
MODEL 4
REMARK VINA RESULT:      -5.9      5.526      7.691
REMARK  Name = 
REMARK  4 active torsions:
REMARK  status: ('A' for Active; 'I' for Inactive)
REMARK    1  A    between atoms: C_1  and  C_2
REMARK    2  A    between atoms: C_9  and  C_10
REMARK    3  A    between atoms: C_16  and  C_17
REMARK    4  A    between atoms: C_19  and  N_20
REMARK                            x       y       z     vdW  Elec       q    Type
REMARK                         _______ _______ _______ _____ _____    ______ ____
ROOT
ATOM      1  C   UNL     1       3.134   7.152  17.862  0.00  0.00    +0.000 C 
ATOM      2  C   UNL     1       2.188   7.988  18.659  0.00  0.00    +0.000 A 
ATOM      3  C   UNL     1       2.028   7.929  19.988  0.00  0.00    +0.000 A 
ATOM      4  C   UNL     1       1.108   8.836  20.619  0.00  0.00    +0.000 A 
ATOM      5  C   UNL     1       0.419   9.724  19.893  0.00  0.00    +0.000 A 
ATOM      6  C   UNL     1       0.492   9.701  18.422  0.00  0.00    +0.000 A 
ATOM      7  O   UNL     1      -0.262  10.386  17.735  0.00  0.00    +0.000 OA
ATOM      8  O   UNL     1       1.426   8.878  17.864  0.00  0.00    +0.000 OA
ATOM      9  C   UNL     1      -0.427  10.778  20.537  0.00  0.00    +0.000 C 
ATOM     10  C   UNL     1      -0.572  10.532  22.030  0.00  0.00    +0.000 C 
ATOM     11  C   UNL     1       0.109   9.571  22.682  0.00  0.00    +0.000 C 
ATOM     12  O   UNL     1       1.023   8.759  22.001  0.00  0.00    +0.000 OA
ENDROOT
BRANCH   9  13
ATOM     13  C   UNL     1       0.064  12.192  20.251  0.00  0.00    +0.000 A 
ATOM     14  C   UNL     1       1.335  12.709  20.424  0.00  0.00    +0.000 A 
ATOM     15  C   UNL     1       1.432  14.057  19.966  0.00  0.00    +0.000 A 
ATOM     16  C   UNL     1       0.233  14.507  19.478  0.00  0.00    +0.000 A 
ATOM     17 BR   UNL     1      -0.014  16.206  18.728  0.00  0.00    +0.000 Br
ATOM     18  S   UNL     1      -1.012  13.373  19.604  0.00  0.00    +0.000 S 
ENDBRANCH   9  13
BRANCH  11  19
ATOM     19  N   UNL     1      -0.003   9.291  24.022  0.00  0.00    +0.000 N 
ATOM     20  H   UNL     1      -0.781   8.698  24.299  0.00  0.00    +0.000 HD
ATOM     21  H   UNL     1       0.115  10.109  24.616  0.00  0.00    +0.000 HD
ENDBRANCH  11  19
BRANCH  10  22
ATOM     22  C   UNL     1      -1.538  11.470  22.733  0.00  0.00    +0.000 C 
ATOM     23  N   UNL     1      -2.340  12.249  23.316  0.00  0.00    +0.000 NA
ENDBRANCH  10  22
TORSDOF 3
ENDMDL
MODEL 5
REMARK VINA RESULT:      -5.8      9.917     10.832
REMARK  Name = 
REMARK  4 active torsions:
REMARK  status: ('A' for Active; 'I' for Inactive)
REMARK    1  A    between atoms: C_1  and  C_2
REMARK    2  A    between atoms: C_9  and  C_10
REMARK    3  A    between atoms: C_16  and  C_17
REMARK    4  A    between atoms: C_19  and  N_20
REMARK                            x       y       z     vdW  Elec       q    Type
REMARK                         _______ _______ _______ _____ _____    ______ ____
ROOT
ATOM      1  C   UNL     1       8.602   8.830  18.588  0.00  0.00    +0.000 C 
ATOM      2  C   UNL     1       9.143  10.205  18.803  0.00  0.00    +0.000 A 
ATOM      3  C   UNL     1       9.529  11.049  17.837  0.00  0.00    +0.000 A 
ATOM      4  C   UNL     1       9.985  12.362  18.202  0.00  0.00    +0.000 A 
ATOM      5  C   UNL     1      10.028  12.738  19.485  0.00  0.00    +0.000 A 
ATOM      6  C   UNL     1       9.734  11.770  20.555  0.00  0.00    +0.000 A 
ATOM      7  O   UNL     1       9.936  12.043  21.736  0.00  0.00    +0.000 OA
ATOM      8  O   UNL     1       9.236  10.560  20.171  0.00  0.00    +0.000 OA
ATOM      9  C   UNL     1      10.352  14.145  19.881  0.00  0.00    +0.000 C 
ATOM     10  C   UNL     1      10.842  14.954  18.691  0.00  0.00    +0.000 C 
ATOM     11  C   UNL     1      10.829  14.481  17.430  0.00  0.00    +0.000 C 
ATOM     12  O   UNL     1      10.323  13.205  17.154  0.00  0.00    +0.000 OA
ENDROOT
BRANCH   9  13
ATOM     13  C   UNL     1       9.199  14.843  20.592  0.00  0.00    +0.000 A 
ATOM     14  C   UNL     1       9.184  15.404  21.856  0.00  0.00    +0.000 A 
ATOM     15  C   UNL     1       7.942  16.044  22.145  0.00  0.00    +0.000 A 
ATOM     16  C   UNL     1       7.066  15.932  21.095  0.00  0.00    +0.000 A 
ATOM     17 BR   UNL     1       5.360  16.704  21.078  0.00  0.00    +0.000 Br
ATOM     18  S   UNL     1       7.679  15.038  19.801  0.00  0.00    +0.000 S 
ENDBRANCH   9  13
BRANCH  11  19
ATOM     19  N   UNL     1      11.283  15.159  16.326  0.00  0.00    +0.000 N 
ATOM     20  H   UNL     1      12.110  15.736  16.455  0.00  0.00    +0.000 HD
ATOM     21  H   UNL     1      10.542  15.623  15.805  0.00  0.00    +0.000 HD
ENDBRANCH  11  19
BRANCH  10  22
ATOM     22  C   UNL     1      11.335  16.349  19.037  0.00  0.00    +0.000 C 
ATOM     23  N   UNL     1      11.744  17.506  19.325  0.00  0.00    +0.000 NA
ENDBRANCH  10  22
TORSDOF 3
ENDMDL
MODEL 6
REMARK VINA RESULT:      -5.7      5.490      7.700
REMARK  Name = 
REMARK  4 active torsions:
REMARK  status: ('A' for Active; 'I' for Inactive)
REMARK    1  A    between atoms: C_1  and  C_2
REMARK    2  A    between atoms: C_9  and  C_10
REMARK    3  A    between atoms: C_16  and  C_17
REMARK    4  A    between atoms: C_19  and  N_20
REMARK                            x       y       z     vdW  Elec       q    Type
REMARK                         _______ _______ _______ _____ _____    ______ ____
ROOT
ATOM      1  C   UNL     1       3.127   7.203  17.845  0.00  0.00    +0.000 C 
ATOM      2  C   UNL     1       2.163   8.028  18.632  0.00  0.00    +0.000 A 
ATOM      3  C   UNL     1       2.022   8.001  19.964  0.00  0.00    +0.000 A 
ATOM      4  C   UNL     1       1.081   8.893  20.583  0.00  0.00    +0.000 A 
ATOM      5  C   UNL     1       0.353   9.737  19.843  0.00  0.00    +0.000 A 
ATOM      6  C   UNL     1       0.407   9.676  18.372  0.00  0.00    +0.000 A 
ATOM      7  O   UNL     1      -0.378  10.317  17.678  0.00  0.00    +0.000 OA
ATOM      8  O   UNL     1       1.361   8.870  17.824  0.00  0.00    +0.000 OA
ATOM      9  C   UNL     1      -0.520  10.779  20.470  0.00  0.00    +0.000 C 
ATOM     10  C   UNL     1      -0.637  10.570  21.971  0.00  0.00    +0.000 C 
ATOM     11  C   UNL     1       0.085   9.650  22.640  0.00  0.00    +0.000 C 
ATOM     12  O   UNL     1       1.017   8.851  21.968  0.00  0.00    +0.000 OA
ENDROOT
BRANCH   9  13
ATOM     13  C   UNL     1      -0.080  12.201  20.139  0.00  0.00    +0.000 A 
ATOM     14  C   UNL     1      -0.812  13.205  19.533  0.00  0.00    +0.000 A 
ATOM     15  C   UNL     1      -0.087  14.432  19.466  0.00  0.00    +0.000 A 
ATOM     16  C   UNL     1       1.164  14.304  20.012  0.00  0.00    +0.000 A 
ATOM     17 BR   UNL     1       2.383  15.718  20.165  0.00  0.00    +0.000 Br
ATOM     18  S   UNL     1       1.504  12.740  20.552  0.00  0.00    +0.000 S 
ENDBRANCH   9  13
BRANCH  11  19
ATOM     19  N   UNL     1      -0.001   9.404  23.988  0.00  0.00    +0.000 N 
ATOM     20  H   UNL     1      -0.932   9.239  24.362  0.00  0.00    +0.000 HD
ATOM     21  H   UNL     1       0.556  10.044  24.551  0.00  0.00    +0.000 HD
ENDBRANCH  11  19
BRANCH  10  22
ATOM     22  C   UNL     1      -1.625  11.495  22.662  0.00  0.00    +0.000 C 
ATOM     23  N   UNL     1      -2.444  12.262  23.235  0.00  0.00    +0.000 NA
ENDBRANCH  10  22
TORSDOF 3
ENDMDL
MODEL 7
REMARK VINA RESULT:      -5.7     10.120     11.037
REMARK  Name = 
REMARK  4 active torsions:
REMARK  status: ('A' for Active; 'I' for Inactive)
REMARK    1  A    between atoms: C_1  and  C_2
REMARK    2  A    between atoms: C_9  and  C_10
REMARK    3  A    between atoms: C_16  and  C_17
REMARK    4  A    between atoms: C_19  and  N_20
REMARK                            x       y       z     vdW  Elec       q    Type
REMARK                         _______ _______ _______ _____ _____    ______ ____
ROOT
ATOM      1  C   UNL     1       8.655   8.987  18.615  0.00  0.00    +0.000 C 
ATOM      2  C   UNL     1       9.167  10.373  18.831  0.00  0.00    +0.000 A 
ATOM      3  C   UNL     1       9.534  11.226  17.866  0.00  0.00    +0.000 A 
ATOM      4  C   UNL     1       9.962  12.548  18.231  0.00  0.00    +0.000 A 
ATOM      5  C   UNL     1       9.998  12.923  19.515  0.00  0.00    +0.000 A 
ATOM      6  C   UNL     1       9.726  11.948  20.584  0.00  0.00    +0.000 A 
ATOM      7  O   UNL     1       9.924  12.224  21.765  0.00  0.00    +0.000 OA
ATOM      8  O   UNL     1       9.254  10.728  20.199  0.00  0.00    +0.000 OA
ATOM      9  C   UNL     1      10.293  14.336  19.913  0.00  0.00    +0.000 C 
ATOM     10  C   UNL     1      10.764  15.157  18.723  0.00  0.00    +0.000 C 
ATOM     11  C   UNL     1      10.760  14.685  17.462  0.00  0.00    +0.000 C 
ATOM     12  O   UNL     1      10.282  13.400  17.184  0.00  0.00    +0.000 OA
ENDROOT
BRANCH   9  13
ATOM     13  C   UNL     1       9.125  15.009  20.625  0.00  0.00    +0.000 A 
ATOM     14  C   UNL     1       7.819  15.143  20.192  0.00  0.00    +0.000 A 
ATOM     15  C   UNL     1       6.989  15.764  21.173  0.00  0.00    +0.000 A 
ATOM     16  C   UNL     1       7.701  16.083  22.300  0.00  0.00    +0.000 A 
ATOM     17 BR   UNL     1       6.939  16.849  23.830  0.00  0.00    +0.000 Br
ATOM     18  S   UNL     1       9.343  15.705  22.187  0.00  0.00    +0.000 S 
ENDBRANCH   9  13
BRANCH  11  19
ATOM     19  N   UNL     1      11.198  15.374  16.358  0.00  0.00    +0.000 N 
ATOM     20  H   UNL     1      10.758  16.274  16.179  0.00  0.00    +0.000 HD
ATOM     21  H   UNL     1      11.285  14.793  15.527  0.00  0.00    +0.000 HD
ENDBRANCH  11  19
BRANCH  10  22
ATOM     22  C   UNL     1      11.228  16.562  19.070  0.00  0.00    +0.000 C 
ATOM     23  N   UNL     1      11.611  17.728  19.358  0.00  0.00    +0.000 NA
ENDBRANCH  10  22
TORSDOF 3
ENDMDL
MODEL 8
REMARK VINA RESULT:      -5.6      7.179      9.447
REMARK  Name = 
REMARK  4 active torsions:
REMARK  status: ('A' for Active; 'I' for Inactive)
REMARK    1  A    between atoms: C_1  and  C_2
REMARK    2  A    between atoms: C_9  and  C_10
REMARK    3  A    between atoms: C_16  and  C_17
REMARK    4  A    between atoms: C_19  and  N_20
REMARK                            x       y       z     vdW  Elec       q    Type
REMARK                         _______ _______ _______ _____ _____    ______ ____
ROOT
ATOM      1  C   UNL     1      -3.590  10.273  14.452  0.00  0.00    +0.000 C 
ATOM      2  C   UNL     1      -3.115  10.458  15.855  0.00  0.00    +0.000 A 
ATOM      3  C   UNL     1      -2.018   9.901  16.385  0.00  0.00    +0.000 A 
ATOM      4  C   UNL     1      -1.665  10.215  17.743  0.00  0.00    +0.000 A 
ATOM      5  C   UNL     1      -2.419  11.048  18.469  0.00  0.00    +0.000 A 
ATOM      6  C   UNL     1      -3.695  11.554  17.936  0.00  0.00    +0.000 A 
ATOM      7  O   UNL     1      -4.482  12.174  18.647  0.00  0.00    +0.000 OA
ATOM      8  O   UNL     1      -3.961  11.295  16.624  0.00  0.00    +0.000 OA
ATOM      9  C   UNL     1      -1.993  11.509  19.828  0.00  0.00    +0.000 C 
ATOM     10  C   UNL     1      -0.782  10.734  20.320  0.00  0.00    +0.000 C 
ATOM     11  C   UNL     1      -0.111   9.859  19.547  0.00  0.00    +0.000 C 
ATOM     12  O   UNL     1      -0.492   9.646  18.217  0.00  0.00    +0.000 OA
ENDROOT
BRANCH   9  13
ATOM     13  C   UNL     1      -1.757  13.013  19.898  0.00  0.00    +0.000 A 
ATOM     14  C   UNL     1      -2.434  13.954  20.653  0.00  0.00    +0.000 A 
ATOM     15  C   UNL     1      -1.871  15.258  20.518  0.00  0.00    +0.000 A 
ATOM     16  C   UNL     1      -0.801  15.253  19.660  0.00  0.00    +0.000 A 
ATOM     17 BR   UNL     1       0.236  16.767  19.283  0.00  0.00    +0.000 Br
ATOM     18  S   UNL     1      -0.493  13.740  18.978  0.00  0.00    +0.000 S 
ENDBRANCH   9  13
BRANCH  11  19
ATOM     19  N   UNL     1       0.972   9.116  19.949  0.00  0.00    +0.000 N 
ATOM     20  H   UNL     1       0.790   8.375  20.622  0.00  0.00    +0.000 HD
ATOM     21  H   UNL     1       1.787   9.681  20.177  0.00  0.00    +0.000 HD
ENDBRANCH  11  19
BRANCH  10  22
ATOM     22  C   UNL     1      -0.378  11.037  21.753  0.00  0.00    +0.000 C 
ATOM     23  N   UNL     1      -0.043  11.288  22.942  0.00  0.00    +0.000 NA
ENDBRANCH  10  22
TORSDOF 3
ENDMDL
MODEL 9
REMARK VINA RESULT:      -5.4      5.522      7.550
REMARK  Name = 
REMARK  4 active torsions:
REMARK  status: ('A' for Active; 'I' for Inactive)
REMARK    1  A    between atoms: C_1  and  C_2
REMARK    2  A    between atoms: C_9  and  C_10
REMARK    3  A    between atoms: C_16  and  C_17
REMARK    4  A    between atoms: C_19  and  N_20
REMARK                            x       y       z     vdW  Elec       q    Type
REMARK                         _______ _______ _______ _____ _____    ______ ____
ROOT
ATOM      1  C   UNL     1       1.479   6.308  20.666  0.00  0.00    +0.000 C 
ATOM      2  C   UNL     1       1.238   7.768  20.466  0.00  0.00    +0.000 A 
ATOM      3  C   UNL     1       1.820   8.531  19.531  0.00  0.00    +0.000 A 
ATOM      4  C   UNL     1       1.448   9.916  19.432  0.00  0.00    +0.000 A 
ATOM      5  C   UNL     1       0.537  10.438  20.261  0.00  0.00    +0.000 A 
ATOM      6  C   UNL     1      -0.003   9.639  21.374  0.00  0.00    +0.000 A 
ATOM      7  O   UNL     1      -0.703  10.150  22.245  0.00  0.00    +0.000 OA
ATOM      8  O   UNL     1       0.317   8.314  21.392  0.00  0.00    +0.000 OA
ATOM      9  C   UNL     1       0.021  11.832  20.083  0.00  0.00    +0.000 C 
ATOM     10  C   UNL     1       0.828  12.591  19.042  0.00  0.00    +0.000 C 
ATOM     11  C   UNL     1       1.779  12.008  18.288  0.00  0.00    +0.000 C 
ATOM     12  O   UNL     1       2.049  10.640  18.413  0.00  0.00    +0.000 OA
ENDROOT
BRANCH   9  13
ATOM     13  C   UNL     1      -1.471  11.879  19.772  0.00  0.00    +0.000 A 
ATOM     14  C   UNL     1      -2.475  12.512  20.482  0.00  0.00    +0.000 A 
ATOM     15  C   UNL     1      -3.741  12.402  19.833  0.00  0.00    +0.000 A 
ATOM     16  C   UNL     1      -3.646  11.682  18.670  0.00  0.00    +0.000 A 
ATOM     17 BR   UNL     1      -5.087  11.384  17.511  0.00  0.00    +0.000 Br
ATOM     18  S   UNL     1      -2.092  11.096  18.367  0.00  0.00    +0.000 S 
ENDBRANCH   9  13
BRANCH  11  19
ATOM     19  N   UNL     1       2.553  12.651  17.354  0.00  0.00    +0.000 N 
ATOM     20  H   UNL     1       3.234  12.082  16.857  0.00  0.00    +0.000 HD
ATOM     21  H   UNL     1       2.928  13.539  17.682  0.00  0.00    +0.000 HD
ENDBRANCH  11  19
BRANCH  10  22
ATOM     22  C   UNL     1       0.465  14.060  18.910  0.00  0.00    +0.000 C 
ATOM     23  N   UNL     1       0.163  15.279  18.799  0.00  0.00    +0.000 NA
ENDBRANCH  10  22
TORSDOF 3
ENDMDL
