MODEL 1
REMARK VINA RESULT:      -7.0      0.000      0.000
REMARK  Name = 
REMARK  6 active torsions:
REMARK  status: ('A' for Active; 'I' for Inactive)
REMARK    1  A    between atoms: C_1  and  O_2
REMARK    2  A    between atoms: O_2  and  C_3
REMARK    3  A    between atoms: C_3  and  C_4
REMARK    4  A    between atoms: C_7  and  C_8
REMARK    5  A    between atoms: C_15  and  C_17
REMARK    6  A    between atoms: C_20  and  C_21
REMARK                            x       y       z     vdW  Elec       q    Type
REMARK                         _______ _______ _______ _____ _____    ______ ____
ROOT
ATOM      1  C   UNL     1       2.585   6.831  18.514  0.00  0.00    +0.000 C 
ATOM      2  C   UNL     1       2.000   5.506  17.895  0.00  0.00    +0.000 C 
ATOM      3  N   UNL     1       2.260   4.243  18.640  0.00  0.00    +0.000 N 
ATOM      4  C   UNL     1       2.349   3.038  17.931  0.00  0.00    +0.000 C 
ATOM      5  C   UNL     1       2.360   1.748  18.732  0.00  0.00    +0.000 C 
ATOM      6  O   UNL     1       2.385   2.999  16.713  0.00  0.00    +0.000 OA
ATOM      7  C   UNL     1       2.170   4.239  20.088  0.00  0.00    +0.000 C 
ATOM      8  C   UNL     1       1.708   5.558  20.615  0.00  0.00    +0.000 C 
ATOM      9  C   UNL     1       2.542   6.739  20.082  0.00  0.00    +0.000 C 
ATOM     10  C   UNL     1       1.792   7.955  20.631  0.00  0.00    +0.000 C 
ATOM     11  N   UNL     1       1.402   8.748  19.515  0.00  0.00    +0.000 N 
ATOM     12  C   UNL     1       0.751   9.992  19.567  0.00  0.00    +0.000 C 
ATOM     13  O   UNL     1       0.658  10.636  18.509  0.00  0.00    +0.000 OA
ATOM     14  C   UNL     1       1.775   8.157  18.244  0.00  0.00    +0.000 C 
ENDROOT
BRANCH  12  15
ATOM     15  C   UNL     1       0.144  10.479  20.814  0.00  0.00    +0.000 A 
ATOM     16  C   UNL     1      -0.380   9.866  21.945  0.00  0.00    +0.000 A 
ATOM     17  C   UNL     1      -0.953  10.782  22.883  0.00  0.00    +0.000 A 
ATOM     18  C   UNL     1      -0.803  12.089  22.487  0.00  0.00    +0.000 A 
ATOM     19  C   UNL     1      -1.232  13.331  23.192  0.00  0.00    +0.000 C 
ATOM     20  S   UNL     1      -0.002  12.201  20.986  0.00  0.00    +0.000 S 
ENDBRANCH  12  15
BRANCH   1  21
ATOM     21  C   UNL     1       3.923   7.016  17.708  0.00  0.00    +0.000 C 
BRANCH  21  23
ATOM     22  C   UNL     1       5.685   5.576  18.363  0.00  0.00    +0.000 C 
ATOM     23  O   UNL     1       4.663   5.837  17.381  0.00  0.00    +0.000 OA
ENDBRANCH  21  23
ENDBRANCH   1  21
TORSDOF 3
ENDMDL
MODEL 2
REMARK VINA RESULT:      -7.0      2.305      3.597
REMARK  Name = 
REMARK  6 active torsions:
REMARK  status: ('A' for Active; 'I' for Inactive)
REMARK    1  A    between atoms: C_1  and  O_2
REMARK    2  A    between atoms: O_2  and  C_3
REMARK    3  A    between atoms: C_3  and  C_4
REMARK    4  A    between atoms: C_7  and  C_8
REMARK    5  A    between atoms: C_15  and  C_17
REMARK    6  A    between atoms: C_20  and  C_21
REMARK                            x       y       z     vdW  Elec       q    Type
REMARK                         _______ _______ _______ _____ _____    ______ ____
ROOT
ATOM      1  C   UNL     1       2.623   6.299  19.164  0.00  0.00    +0.000 C 
ATOM      2  C   UNL     1       4.142   5.928  19.354  0.00  0.00    +0.000 C 
ATOM      3  N   UNL     1       4.940   5.700  18.117  0.00  0.00    +0.000 N 
ATOM      4  C   UNL     1       6.023   4.814  18.156  0.00  0.00    +0.000 C 
ATOM      5  C   UNL     1       6.963   4.796  16.964  0.00  0.00    +0.000 C 
ATOM      6  O   UNL     1       6.245   4.096  19.117  0.00  0.00    +0.000 OA
ATOM      7  C   UNL     1       4.744   6.572  16.973  0.00  0.00    +0.000 C 
ATOM      8  C   UNL     1       3.789   7.679  17.281  0.00  0.00    +0.000 C 
ATOM      9  C   UNL     1       2.457   7.171  17.868  0.00  0.00    +0.000 C 
ATOM     10  C   UNL     1       1.733   8.470  18.231  0.00  0.00    +0.000 C 
ATOM     11  N   UNL     1       1.460   8.422  19.627  0.00  0.00    +0.000 N 
ATOM     12  C   UNL     1       0.747   9.380  20.366  0.00  0.00    +0.000 C 
ATOM     13  O   UNL     1       0.435   9.090  21.533  0.00  0.00    +0.000 OA
ATOM     14  C   UNL     1       1.978   7.226  20.264  0.00  0.00    +0.000 C 
ENDROOT
BRANCH  12  15
ATOM     15  C   UNL     1       0.442  10.702  19.801  0.00  0.00    +0.000 A 
ATOM     16  C   UNL     1      -0.500  11.181  18.898  0.00  0.00    +0.000 A 
ATOM     17  C   UNL     1      -0.343  12.568  18.584  0.00  0.00    +0.000 A 
ATOM     18  C   UNL     1       0.678  13.148  19.297  0.00  0.00    +0.000 A 
ATOM     19  C   UNL     1       1.139  14.566  19.279  0.00  0.00    +0.000 C 
ATOM     20  S   UNL     1       1.451  12.019  20.315  0.00  0.00    +0.000 S 
ENDBRANCH  12  15
BRANCH   1  21
ATOM     21  C   UNL     1       1.911   4.910  19.353  0.00  0.00    +0.000 C 
BRANCH  21  23
ATOM     22  C   UNL     1       1.474   3.419  21.140  0.00  0.00    +0.000 C 
ATOM     23  O   UNL     1       1.176   4.706  20.563  0.00  0.00    +0.000 OA
ENDBRANCH  21  23
ENDBRANCH   1  21
TORSDOF 3
ENDMDL
MODEL 3
REMARK VINA RESULT:      -6.8      1.075      1.194
REMARK  Name = 
REMARK  6 active torsions:
REMARK  status: ('A' for Active; 'I' for Inactive)
REMARK    1  A    between atoms: C_1  and  O_2
REMARK    2  A    between atoms: O_2  and  C_3
REMARK    3  A    between atoms: C_3  and  C_4
REMARK    4  A    between atoms: C_7  and  C_8
REMARK    5  A    between atoms: C_15  and  C_17
REMARK    6  A    between atoms: C_20  and  C_21
REMARK                            x       y       z     vdW  Elec       q    Type
REMARK                         _______ _______ _______ _____ _____    ______ ____
ROOT
ATOM      1  C   UNL     1       2.838   6.463  18.503  0.00  0.00    +0.000 C 
ATOM      2  C   UNL     1       2.176   5.167  17.899  0.00  0.00    +0.000 C 
ATOM      3  N   UNL     1       2.003   4.009  18.819  0.00  0.00    +0.000 N 
ATOM      4  C   UNL     1       2.027   2.710  18.296  0.00  0.00    +0.000 C 
ATOM      5  C   UNL     1       1.597   1.574  19.206  0.00  0.00    +0.000 C 
ATOM      6  O   UNL     1       2.347   2.478  17.142  0.00  0.00    +0.000 OA
ATOM      7  C   UNL     1       1.567   4.242  20.184  0.00  0.00    +0.000 C 
ATOM      8  C   UNL     1       1.253   5.684  20.422  0.00  0.00    +0.000 C 
ATOM      9  C   UNL     1       2.401   6.622  20.003  0.00  0.00    +0.000 C 
ATOM     10  C   UNL     1       1.789   8.011  20.198  0.00  0.00    +0.000 C 
ATOM     11  N   UNL     1       1.839   8.673  18.939  0.00  0.00    +0.000 N 
ATOM     12  C   UNL     1       1.445   9.996  18.681  0.00  0.00    +0.000 C 
ATOM     13  O   UNL     1       1.734  10.476  17.573  0.00  0.00    +0.000 OA
ATOM     14  C   UNL     1       2.387   7.841  17.884  0.00  0.00    +0.000 C 
ENDROOT
BRANCH  12  15
ATOM     15  C   UNL     1       0.660  10.760  19.662  0.00  0.00    +0.000 A 
ATOM     16  C   UNL     1      -0.595  10.605  20.237  0.00  0.00    +0.000 A 
ATOM     17  C   UNL     1      -0.971  11.683  21.098  0.00  0.00    +0.000 A 
ATOM     18  C   UNL     1       0.026  12.621  21.220  0.00  0.00    +0.000 A 
ATOM     19  C   UNL     1       0.038  13.867  22.038  0.00  0.00    +0.000 C 
ATOM     20  S   UNL     1       1.390  12.209  20.282  0.00  0.00    +0.000 S 
ENDBRANCH  12  15
BRANCH   1  21
ATOM     21  C   UNL     1       4.341   6.308  18.065  0.00  0.00    +0.000 C 
BRANCH  21  23
ATOM     22  C   UNL     1       5.233   6.181  15.875  0.00  0.00    +0.000 C 
ATOM     23  O   UNL     1       4.618   5.450  16.954  0.00  0.00    +0.000 OA
ENDBRANCH  21  23
ENDBRANCH   1  21
TORSDOF 3
ENDMDL
MODEL 4
REMARK VINA RESULT:      -6.8      1.251      1.425
REMARK  Name = 
REMARK  6 active torsions:
REMARK  status: ('A' for Active; 'I' for Inactive)
REMARK    1  A    between atoms: C_1  and  O_2
REMARK    2  A    between atoms: O_2  and  C_3
REMARK    3  A    between atoms: C_3  and  C_4
REMARK    4  A    between atoms: C_7  and  C_8
REMARK    5  A    between atoms: C_15  and  C_17
REMARK    6  A    between atoms: C_20  and  C_21
REMARK                            x       y       z     vdW  Elec       q    Type
REMARK                         _______ _______ _______ _____ _____    ______ ____
ROOT
ATOM      1  C   UNL     1       2.850   6.383  18.535  0.00  0.00    +0.000 C 
ATOM      2  C   UNL     1       2.170   5.093  17.940  0.00  0.00    +0.000 C 
ATOM      3  N   UNL     1       1.943   3.959  18.878  0.00  0.00    +0.000 N 
ATOM      4  C   UNL     1       1.947   2.650  18.380  0.00  0.00    +0.000 C 
ATOM      5  C   UNL     1       1.465   1.544  19.301  0.00  0.00    +0.000 C 
ATOM      6  O   UNL     1       2.290   2.386  17.240  0.00  0.00    +0.000 OA
ATOM      7  C   UNL     1       1.480   4.231  20.226  0.00  0.00    +0.000 C 
ATOM      8  C   UNL     1       1.198   5.684  20.428  0.00  0.00    +0.000 C 
ATOM      9  C   UNL     1       2.381   6.584  20.020  0.00  0.00    +0.000 C 
ATOM     10  C   UNL     1       1.800   7.992  20.173  0.00  0.00    +0.000 C 
ATOM     11  N   UNL     1       1.899   8.627  18.903  0.00  0.00    +0.000 N 
ATOM     12  C   UNL     1       1.546   9.955  18.609  0.00  0.00    +0.000 C 
ATOM     13  O   UNL     1       1.875  10.404  17.499  0.00  0.00    +0.000 OA
ATOM     14  C   UNL     1       2.451   7.760  17.878  0.00  0.00    +0.000 C 
ENDROOT
BRANCH  12  15
ATOM     15  C   UNL     1       0.757  10.758  19.554  0.00  0.00    +0.000 A 
ATOM     16  C   UNL     1       0.995  11.285  20.818  0.00  0.00    +0.000 A 
ATOM     17  C   UNL     1      -0.140  11.939  21.391  0.00  0.00    +0.000 A 
ATOM     18  C   UNL     1      -1.214  11.959  20.534  0.00  0.00    +0.000 A 
ATOM     19  C   UNL     1      -2.561  12.564  20.742  0.00  0.00    +0.000 C 
ATOM     20  S   UNL     1      -0.857  11.171  19.065  0.00  0.00    +0.000 S 
ENDBRANCH  12  15
BRANCH   1  21
ATOM     21  C   UNL     1       4.359   6.182  18.138  0.00  0.00    +0.000 C 
BRANCH  21  23
ATOM     22  C   UNL     1       5.291   6.266  15.963  0.00  0.00    +0.000 C 
ATOM     23  O   UNL     1       4.633   5.442  16.946  0.00  0.00    +0.000 OA
ENDBRANCH  21  23
ENDBRANCH   1  21
TORSDOF 3
ENDMDL
MODEL 5
REMARK VINA RESULT:      -6.7      1.872      3.298
REMARK  Name = 
REMARK  6 active torsions:
REMARK  status: ('A' for Active; 'I' for Inactive)
REMARK    1  A    between atoms: C_1  and  O_2
REMARK    2  A    between atoms: O_2  and  C_3
REMARK    3  A    between atoms: C_3  and  C_4
REMARK    4  A    between atoms: C_7  and  C_8
REMARK    5  A    between atoms: C_15  and  C_17
REMARK    6  A    between atoms: C_20  and  C_21
REMARK                            x       y       z     vdW  Elec       q    Type
REMARK                         _______ _______ _______ _____ _____    ______ ____
ROOT
ATOM      1  C   UNL     1       2.599   6.210  19.168  0.00  0.00    +0.000 C 
ATOM      2  C   UNL     1       4.094   5.740  19.329  0.00  0.00    +0.000 C 
ATOM      3  N   UNL     1       4.884   5.568  18.078  0.00  0.00    +0.000 N 
ATOM      4  C   UNL     1       5.916   4.622  18.048  0.00  0.00    +0.000 C 
ATOM      5  C   UNL     1       6.860   4.647  16.859  0.00  0.00    +0.000 C 
ATOM      6  O   UNL     1       6.092   3.818  18.948  0.00  0.00    +0.000 OA
ATOM      7  C   UNL     1       4.743   6.537  17.008  0.00  0.00    +0.000 C 
ATOM      8  C   UNL     1       3.849   7.668  17.403  0.00  0.00    +0.000 C 
ATOM      9  C   UNL     1       2.488   7.190  17.945  0.00  0.00    +0.000 C 
ATOM     10  C   UNL     1       1.836   8.494  18.411  0.00  0.00    +0.000 C 
ATOM     11  N   UNL     1       1.553   8.351  19.798  0.00  0.00    +0.000 N 
ATOM     12  C   UNL     1       0.890   9.285  20.611  0.00  0.00    +0.000 C 
ATOM     13  O   UNL     1       0.556   8.920  21.751  0.00  0.00    +0.000 OA
ATOM     14  C   UNL     1       2.000   7.080  20.338  0.00  0.00    +0.000 C 
ENDROOT
BRANCH  12  15
ATOM     15  C   UNL     1       0.662  10.663  20.153  0.00  0.00    +0.000 A 
ATOM     16  C   UNL     1       1.349  11.538  19.322  0.00  0.00    +0.000 A 
ATOM     17  C   UNL     1       0.763  12.841  19.247  0.00  0.00    +0.000 A 
ATOM     18  C   UNL     1      -0.400  12.928  19.972  0.00  0.00    +0.000 A 
ATOM     19  C   UNL     1      -1.318  14.093  20.127  0.00  0.00    +0.000 C 
ATOM     20  S   UNL     1      -0.761  11.456  20.754  0.00  0.00    +0.000 S 
ENDBRANCH  12  15
BRANCH   1  21
ATOM     21  C   UNL     1       1.809   4.851  19.244  0.00  0.00    +0.000 C 
BRANCH  21  23
ATOM     22  C   UNL     1       2.266   2.949  17.910  0.00  0.00    +0.000 C 
ATOM     23  O   UNL     1       1.528   4.183  18.011  0.00  0.00    +0.000 OA
ENDBRANCH  21  23
ENDBRANCH   1  21
TORSDOF 3
ENDMDL
MODEL 6
REMARK VINA RESULT:      -6.6      2.218      3.579
REMARK  Name = 
REMARK  6 active torsions:
REMARK  status: ('A' for Active; 'I' for Inactive)
REMARK    1  A    between atoms: C_1  and  O_2
REMARK    2  A    between atoms: O_2  and  C_3
REMARK    3  A    between atoms: C_3  and  C_4
REMARK    4  A    between atoms: C_7  and  C_8
REMARK    5  A    between atoms: C_15  and  C_17
REMARK    6  A    between atoms: C_20  and  C_21
REMARK                            x       y       z     vdW  Elec       q    Type
REMARK                         _______ _______ _______ _____ _____    ______ ____
ROOT
ATOM      1  C   UNL     1       2.884   5.990  19.196  0.00  0.00    +0.000 C 
ATOM      2  C   UNL     1       4.422   5.650  19.218  0.00  0.00    +0.000 C 
ATOM      3  N   UNL     1       5.114   5.574  17.902  0.00  0.00    +0.000 N 
ATOM      4  C   UNL     1       6.217   4.724  17.757  0.00  0.00    +0.000 C 
ATOM      5  C   UNL     1       7.050   4.857  16.495  0.00  0.00    +0.000 C 
ATOM      6  O   UNL     1       6.537   3.919  18.616  0.00  0.00    +0.000 OA
ATOM      7  C   UNL     1       4.800   6.551  16.875  0.00  0.00    +0.000 C 
ATOM      8  C   UNL     1       3.850   7.590  17.376  0.00  0.00    +0.000 C 
ATOM      9  C   UNL     1       2.586   6.984  18.016  0.00  0.00    +0.000 C 
ATOM     10  C   UNL     1       1.867   8.215  18.572  0.00  0.00    +0.000 C 
ATOM     11  N   UNL     1       1.718   8.017  19.973  0.00  0.00    +0.000 N 
ATOM     12  C   UNL     1       1.049   8.872  20.866  0.00  0.00    +0.000 C 
ATOM     13  O   UNL     1       0.847   8.455  22.018  0.00  0.00    +0.000 OA
ATOM     14  C   UNL     1       2.316   6.779  20.437  0.00  0.00    +0.000 C 
ENDROOT
BRANCH  12  15
ATOM     15  C   UNL     1       0.666  10.234  20.469  0.00  0.00    +0.000 A 
ATOM     16  C   UNL     1       1.216  11.495  20.662  0.00  0.00    +0.000 A 
ATOM     17  C   UNL     1       0.411  12.560  20.147  0.00  0.00    +0.000 A 
ATOM     18  C   UNL     1      -0.715  12.096  19.511  0.00  0.00    +0.000 A 
ATOM     19  C   UNL     1      -1.785  12.875  18.824  0.00  0.00    +0.000 C 
ATOM     20  S   UNL     1      -0.806  10.394  19.562  0.00  0.00    +0.000 S 
ENDBRANCH  12  15
BRANCH   1  21
ATOM     21  C   UNL     1       2.223   4.567  19.298  0.00  0.00    +0.000 C 
BRANCH  21  23
ATOM     22  C   UNL     1       1.184   3.127  20.865  0.00  0.00    +0.000 C 
ATOM     23  O   UNL     1       1.134   4.411  20.213  0.00  0.00    +0.000 OA
ENDBRANCH  21  23
ENDBRANCH   1  21
TORSDOF 3
ENDMDL
MODEL 7
REMARK VINA RESULT:      -6.5      1.297      1.509
REMARK  Name = 
REMARK  6 active torsions:
REMARK  status: ('A' for Active; 'I' for Inactive)
REMARK    1  A    between atoms: C_1  and  O_2
REMARK    2  A    between atoms: O_2  and  C_3
REMARK    3  A    between atoms: C_3  and  C_4
REMARK    4  A    between atoms: C_7  and  C_8
REMARK    5  A    between atoms: C_15  and  C_17
REMARK    6  A    between atoms: C_20  and  C_21
REMARK                            x       y       z     vdW  Elec       q    Type
REMARK                         _______ _______ _______ _____ _____    ______ ____
ROOT
ATOM      1  C   UNL     1       3.266   6.218  18.718  0.00  0.00    +0.000 C 
ATOM      2  C   UNL     1       2.833   4.838  18.095  0.00  0.00    +0.000 C 
ATOM      3  N   UNL     1       2.604   3.713  19.043  0.00  0.00    +0.000 N 
ATOM      4  C   UNL     1       2.831   2.400  18.613  0.00  0.00    +0.000 C 
ATOM      5  C   UNL     1       2.351   1.272  19.508  0.00  0.00    +0.000 C 
ATOM      6  O   UNL     1       3.364   2.146  17.545  0.00  0.00    +0.000 OA
ATOM      7  C   UNL     1       1.922   3.968  20.299  0.00  0.00    +0.000 C 
ATOM      8  C   UNL     1       1.448   5.382  20.391  0.00  0.00    +0.000 C 
ATOM      9  C   UNL     1       2.566   6.405  20.112  0.00  0.00    +0.000 C 
ATOM     10  C   UNL     1       1.811   7.736  20.115  0.00  0.00    +0.000 C 
ATOM     11  N   UNL     1       2.019   8.341  18.843  0.00  0.00    +0.000 N 
ATOM     12  C   UNL     1       1.563   9.607  18.441  0.00  0.00    +0.000 C 
ATOM     13  O   UNL     1       1.996  10.060  17.368  0.00  0.00    +0.000 OA
ATOM     14  C   UNL     1       2.811   7.517  17.948  0.00  0.00    +0.000 C 
ENDROOT
BRANCH  12  15
ATOM     15  C   UNL     1       0.558  10.337  19.228  0.00  0.00    +0.000 A 
ATOM     16  C   UNL     1      -0.816  10.514  19.126  0.00  0.00    +0.000 A 
ATOM     17  C   UNL     1      -1.355  11.407  20.105  0.00  0.00    +0.000 A 
ATOM     18  C   UNL     1      -0.396  11.854  20.982  0.00  0.00    +0.000 A 
ATOM     19  C   UNL     1      -0.555  12.766  22.150  0.00  0.00    +0.000 C 
ATOM     20  S   UNL     1       1.141  11.218  20.606  0.00  0.00    +0.000 S 
ENDBRANCH  12  15
BRANCH   1  21
ATOM     21  C   UNL     1       4.830   6.189  18.548  0.00  0.00    +0.000 C 
BRANCH  21  23
ATOM     22  C   UNL     1       6.998   5.551  19.255  0.00  0.00    +0.000 C 
ATOM     23  O   UNL     1       5.585   5.471  19.528  0.00  0.00    +0.000 OA
ENDBRANCH  21  23
ENDBRANCH   1  21
TORSDOF 3
ENDMDL
MODEL 8
REMARK VINA RESULT:      -6.4      1.012      1.241
REMARK  Name = 
REMARK  6 active torsions:
REMARK  status: ('A' for Active; 'I' for Inactive)
REMARK    1  A    between atoms: C_1  and  O_2
REMARK    2  A    between atoms: O_2  and  C_3
REMARK    3  A    between atoms: C_3  and  C_4
REMARK    4  A    between atoms: C_7  and  C_8
REMARK    5  A    between atoms: C_15  and  C_17
REMARK    6  A    between atoms: C_20  and  C_21
REMARK                            x       y       z     vdW  Elec       q    Type
REMARK                         _______ _______ _______ _____ _____    ______ ____
ROOT
ATOM      1  C   UNL     1       2.770   6.546  18.402  0.00  0.00    +0.000 C 
ATOM      2  C   UNL     1       2.045   5.231  17.925  0.00  0.00    +0.000 C 
ATOM      3  N   UNL     1       2.059   4.076  18.865  0.00  0.00    +0.000 N 
ATOM      4  C   UNL     1       2.023   2.775  18.349  0.00  0.00    +0.000 C 
ATOM      5  C   UNL     1       1.783   1.636  19.323  0.00  0.00    +0.000 C 
ATOM      6  O   UNL     1       2.146   2.541  17.158  0.00  0.00    +0.000 OA
ATOM      7  C   UNL     1       1.859   4.309  20.284  0.00  0.00    +0.000 C 
ATOM      8  C   UNL     1       1.557   5.745  20.568  0.00  0.00    +0.000 C 
ATOM      9  C   UNL     1       2.594   6.706  19.955  0.00  0.00    +0.000 C 
ATOM     10  C   UNL     1       1.992   8.082  20.248  0.00  0.00    +0.000 C 
ATOM     11  N   UNL     1       1.810   8.736  18.998  0.00  0.00    +0.000 N 
ATOM     12  C   UNL     1       1.346  10.048  18.807  0.00  0.00    +0.000 C 
ATOM     13  O   UNL     1       1.430  10.527  17.664  0.00  0.00    +0.000 OA
ATOM     14  C   UNL     1       2.188   7.909  17.867  0.00  0.00    +0.000 C 
ENDROOT
BRANCH  12  15
ATOM     15  C   UNL     1       0.725  10.801  19.906  0.00  0.00    +0.000 A 
ATOM     16  C   UNL     1       0.814  12.110  20.362  0.00  0.00    +0.000 A 
ATOM     17  C   UNL     1       0.064  12.357  21.554  0.00  0.00    +0.000 A 
ATOM     18  C   UNL     1      -0.641  11.250  21.962  0.00  0.00    +0.000 A 
ATOM     19  C   UNL     1      -1.556  11.106  23.130  0.00  0.00    +0.000 C 
ATOM     20  S   UNL     1      -0.374   9.923  20.925  0.00  0.00    +0.000 S 
ENDBRANCH  12  15
BRANCH   1  21
ATOM     21  C   UNL     1       4.179   6.422  17.713  0.00  0.00    +0.000 C 
BRANCH  21  23
ATOM     22  C   UNL     1       5.589   4.565  17.300  0.00  0.00    +0.000 C 
ATOM     23  O   UNL     1       4.408   5.279  16.884  0.00  0.00    +0.000 OA
ENDBRANCH  21  23
ENDBRANCH   1  21
TORSDOF 3
ENDMDL
MODEL 9
REMARK VINA RESULT:      -6.2      4.462      8.162
REMARK  Name = 
REMARK  6 active torsions:
REMARK  status: ('A' for Active; 'I' for Inactive)
REMARK    1  A    between atoms: C_1  and  O_2
REMARK    2  A    between atoms: O_2  and  C_3
REMARK    3  A    between atoms: C_3  and  C_4
REMARK    4  A    between atoms: C_7  and  C_8
REMARK    5  A    between atoms: C_15  and  C_17
REMARK    6  A    between atoms: C_20  and  C_21
REMARK                            x       y       z     vdW  Elec       q    Type
REMARK                         _______ _______ _______ _____ _____    ______ ____
ROOT
ATOM      1  C   UNL     1       4.032   5.475  18.584  0.00  0.00    +0.000 C 
ATOM      2  C   UNL     1       3.934   4.510  19.826  0.00  0.00    +0.000 C 
ATOM      3  N   UNL     1       2.688   3.704  19.955  0.00  0.00    +0.000 N 
ATOM      4  C   UNL     1       2.243   3.336  21.231  0.00  0.00    +0.000 C 
ATOM      5  C   UNL     1       1.126   2.311  21.319  0.00  0.00    +0.000 C 
ATOM      6  O   UNL     1       2.740   3.783  22.250  0.00  0.00    +0.000 OA
ATOM      7  C   UNL     1       2.099   3.108  18.770  0.00  0.00    +0.000 C 
ATOM      8  C   UNL     1       2.947   3.335  17.561  0.00  0.00    +0.000 C 
ATOM      9  C   UNL     1       3.307   4.819  17.354  0.00  0.00    +0.000 C 
ATOM     10  C   UNL     1       4.279   4.768  16.173  0.00  0.00    +0.000 C 
ATOM     11  N   UNL     1       5.504   5.344  16.612  0.00  0.00    +0.000 N 
ATOM     12  C   UNL     1       6.648   5.562  15.825  0.00  0.00    +0.000 C 
ATOM     13  O   UNL     1       7.560   6.248  16.315  0.00  0.00    +0.000 OA
ATOM     14  C   UNL     1       5.475   5.741  18.007  0.00  0.00    +0.000 C 
ENDROOT
BRANCH  12  15
ATOM     15  C   UNL     1       6.786   4.942  14.500  0.00  0.00    +0.000 A 
ATOM     16  C   UNL     1       7.621   5.153  13.409  0.00  0.00    +0.000 A 
ATOM     17  C   UNL     1       7.309   4.335  12.278  0.00  0.00    +0.000 A 
ATOM     18  C   UNL     1       6.278   3.464  12.538  0.00  0.00    +0.000 A 
ATOM     19  C   UNL     1       5.678   2.436  11.640  0.00  0.00    +0.000 C 
ATOM     20  S   UNL     1       5.682   3.655  14.124  0.00  0.00    +0.000 S 
ENDBRANCH  12  15
BRANCH   1  21
ATOM     21  C   UNL     1       3.592   6.856  19.195  0.00  0.00    +0.000 C 
BRANCH  21  23
ATOM     22  C   UNL     1       2.362   8.401  17.888  0.00  0.00    +0.000 C 
ATOM     23  O   UNL     1       2.288   7.338  18.860  0.00  0.00    +0.000 OA
ENDBRANCH  21  23
ENDBRANCH   1  21
TORSDOF 3
ENDMDL
