MODEL 1
REMARK VINA RESULT:      -9.0      0.000      0.000
REMARK  Name = 
REMARK  4 active torsions:
REMARK  status: ('A' for Active; 'I' for Inactive)
REMARK    1  A    between atoms: C_2  and  C_24
REMARK    2  A    between atoms: C_7  and  C_8
REMARK    3  A    between atoms: N_10  and  C_11
REMARK    4  A    between atoms: C_14  and  N_15
REMARK                            x       y       z     vdW  Elec       q    Type
REMARK                         _______ _______ _______ _____ _____    ______ ____
ROOT
ATOM      1  C   UNL     1       8.103   8.079  18.040  0.00  0.00    +0.000 C 
ATOM      2  O   UNL     1       8.032   8.578  16.919  0.00  0.00    +0.000 OA
ATOM      3  N   UNL     1       8.695   8.714  19.138  0.00  0.00    +0.000 N 
ATOM      4  H   UNL     1       8.820   8.147  19.971  0.00  0.00    +0.000 HD
ENDROOT
BRANCH   1  11
ATOM      5  O   UNL     1       3.536   6.197  18.291  0.00  0.00    +0.000 OA
ATOM      6  C   UNL     1       3.782   5.108  18.791  0.00  0.00    +0.000 C 
ATOM      7  N   UNL     1       5.026   4.560  18.998  0.00  0.00    +0.000 N 
ATOM      8  C   UNL     1       6.202   5.203  18.739  0.00  0.00    +0.000 A 
ATOM      9  N   UNL     1       7.397   4.647  18.748  0.00  0.00    +0.000 NA
ATOM     10  N   UNL     1       8.304   5.644  18.441  0.00  0.00    +0.000 NA
ATOM     11  C   UNL     1       7.594   6.749  18.311  0.00  0.00    +0.000 A 
ATOM     12  O   UNL     1       6.246   6.541  18.482  0.00  0.00    +0.000 OA
ATOM     13  H   UNL     1       5.125   3.586  19.240  0.00  0.00    +0.000 HD
BRANCH   6  14
ATOM     14  C   UNL     1       2.653   4.203  19.174  0.00  0.00    +0.000 A 
ATOM     15  C   UNL     1       2.266   4.120  20.517  0.00  0.00    +0.000 A 
ATOM     16  C   UNL     1       1.193   3.304  20.889  0.00  0.00    +0.000 A 
ATOM     17  C   UNL     1       0.512   2.559  19.924  0.00  0.00    +0.000 A 
ATOM     18  C   UNL     1       0.907   2.621  18.588  0.00  0.00    +0.000 A 
ATOM     19  C   UNL     1       1.977   3.437  18.211  0.00  0.00    +0.000 A 
ENDBRANCH   6  14
ENDBRANCH   1  11
BRANCH   3  20
ATOM     20  C   UNL     1       9.243  10.019  19.147  0.00  0.00    +0.000 A 
ATOM     21  C   UNL     1       9.700  10.639  20.307  0.00  0.00    +0.000 A 
ATOM     22  C   UNL     1      10.212  11.944  20.281  0.00  0.00    +0.000 A 
ATOM     23  C   UNL     1      10.286  12.687  19.101  0.00  0.00    +0.000 A 
ATOM     24  C   UNL     1       9.840  12.046  17.933  0.00  0.00    +0.000 A 
ATOM     25  C   UNL     1       9.345  10.726  17.946  0.00  0.00    +0.000 A 
BRANCH  23  26
ATOM     26  N   UNL     1      10.813  13.966  19.062  0.00  0.00    +0.000 N 
ATOM     27  C   UNL     1       9.966  15.157  18.869  0.00  0.00    +0.000 C 
ATOM     28  C   UNL     1      10.182  15.783  17.484  0.00  0.00    +0.000 C 
ATOM     29  O   UNL     1      11.571  16.064  17.249  0.00  0.00    +0.000 OA
ATOM     30  C   UNL     1      12.333  14.847  17.309  0.00  0.00    +0.000 C 
ATOM     31  C   UNL     1      12.226  14.168  18.690  0.00  0.00    +0.000 C 
ENDBRANCH  23  26
ENDBRANCH   3  20
TORSDOF 4
ENDMDL
MODEL 2
REMARK VINA RESULT:      -9.0      0.655      1.143
REMARK  Name = 
REMARK  4 active torsions:
REMARK  status: ('A' for Active; 'I' for Inactive)
REMARK    1  A    between atoms: C_2  and  C_24
REMARK    2  A    between atoms: C_7  and  C_8
REMARK    3  A    between atoms: N_10  and  C_11
REMARK    4  A    between atoms: C_14  and  N_15
REMARK                            x       y       z     vdW  Elec       q    Type
REMARK                         _______ _______ _______ _____ _____    ______ ____
ROOT
ATOM      1  C   UNL     1       8.112   8.301  18.150  0.00  0.00    +0.000 C 
ATOM      2  O   UNL     1       7.870   8.805  17.057  0.00  0.00    +0.000 OA
ATOM      3  N   UNL     1       8.878   8.924  19.143  0.00  0.00    +0.000 N 
ATOM      4  H   UNL     1       9.127   8.351  19.943  0.00  0.00    +0.000 HD
ENDROOT
BRANCH   1  11
ATOM      5  O   UNL     1       3.688   6.111  17.839  0.00  0.00    +0.000 OA
ATOM      6  C   UNL     1       3.899   5.108  18.508  0.00  0.00    +0.000 C 
ATOM      7  N   UNL     1       5.113   4.686  18.996  0.00  0.00    +0.000 N 
ATOM      8  C   UNL     1       6.279   5.385  18.867  0.00  0.00    +0.000 A 
ATOM      9  N   UNL     1       7.481   4.928  19.154  0.00  0.00    +0.000 NA
ATOM     10  N   UNL     1       8.372   5.950  18.887  0.00  0.00    +0.000 NA
ATOM     11  C   UNL     1       7.638   6.975  18.495  0.00  0.00    +0.000 A 
ATOM     12  O   UNL     1       6.295   6.683  18.454  0.00  0.00    +0.000 OA
ATOM     13  H   UNL     1       5.221   3.757  19.374  0.00  0.00    +0.000 HD
BRANCH   6  14
ATOM     14  C   UNL     1       2.772   4.168  18.799  0.00  0.00    +0.000 A 
ATOM     15  C   UNL     1       1.820   4.518  19.766  0.00  0.00    +0.000 A 
ATOM     16  C   UNL     1       0.743   3.667  20.029  0.00  0.00    +0.000 A 
ATOM     17  C   UNL     1       0.619   2.460  19.339  0.00  0.00    +0.000 A 
ATOM     18  C   UNL     1       1.575   2.096  18.392  0.00  0.00    +0.000 A 
ATOM     19  C   UNL     1       2.653   2.944  18.124  0.00  0.00    +0.000 A 
ENDBRANCH   6  14
ENDBRANCH   1  11
BRANCH   3  20
ATOM     20  C   UNL     1       9.436  10.223  19.068  0.00  0.00    +0.000 A 
ATOM     21  C   UNL     1       9.879  10.787  17.874  0.00  0.00    +0.000 A 
ATOM     22  C   UNL     1      10.451  12.067  17.843  0.00  0.00    +0.000 A 
ATOM     23  C   UNL     1      10.609  12.836  18.999  0.00  0.00    +0.000 A 
ATOM     24  C   UNL     1      10.141  12.265  20.194  0.00  0.00    +0.000 A 
ATOM     25  C   UNL     1       9.544  10.989  20.231  0.00  0.00    +0.000 A 
BRANCH  23  26
ATOM     26  N   UNL     1      11.148  14.110  18.973  0.00  0.00    +0.000 N 
ATOM     27  C   UNL     1      10.653  15.187  19.849  0.00  0.00    +0.000 C 
ATOM     28  C   UNL     1       9.891  16.255  19.050  0.00  0.00    +0.000 C 
ATOM     29  O   UNL     1      10.685  16.762  17.965  0.00  0.00    +0.000 OA
ATOM     30  C   UNL     1      11.023  15.692  17.066  0.00  0.00    +0.000 C 
ATOM     31  C   UNL     1      11.845  14.591  17.765  0.00  0.00    +0.000 C 
ENDBRANCH  23  26
ENDBRANCH   3  20
TORSDOF 4
ENDMDL
MODEL 3
REMARK VINA RESULT:      -8.9      0.833      1.486
REMARK  Name = 
REMARK  4 active torsions:
REMARK  status: ('A' for Active; 'I' for Inactive)
REMARK    1  A    between atoms: C_2  and  C_24
REMARK    2  A    between atoms: C_7  and  C_8
REMARK    3  A    between atoms: N_10  and  C_11
REMARK    4  A    between atoms: C_14  and  N_15
REMARK                            x       y       z     vdW  Elec       q    Type
REMARK                         _______ _______ _______ _____ _____    ______ ____
ROOT
ATOM      1  C   UNL     1       8.129   8.239  17.993  0.00  0.00    +0.000 C 
ATOM      2  O   UNL     1       8.063   8.493  16.793  0.00  0.00    +0.000 OA
ATOM      3  N   UNL     1       8.699   9.097  18.941  0.00  0.00    +0.000 N 
ATOM      4  H   UNL     1       8.823   8.717  19.874  0.00  0.00    +0.000 HD
ENDROOT
BRANCH   1  11
ATOM      5  O   UNL     1       3.770   5.920  17.704  0.00  0.00    +0.000 OA
ATOM      6  C   UNL     1       3.929   5.059  18.559  0.00  0.00    +0.000 C 
ATOM      7  N   UNL     1       5.099   4.762  19.218  0.00  0.00    +0.000 N 
ATOM      8  C   UNL     1       6.265   5.455  19.065  0.00  0.00    +0.000 A 
ATOM      9  N   UNL     1       7.442   5.086  19.532  0.00  0.00    +0.000 NA
ATOM     10  N   UNL     1       8.343   6.066  19.161  0.00  0.00    +0.000 NA
ATOM     11  C   UNL     1       7.638   6.985  18.530  0.00  0.00    +0.000 A 
ATOM     12  O   UNL     1       6.307   6.658  18.427  0.00  0.00    +0.000 OA
ATOM     13  H   UNL     1       5.181   3.918  19.765  0.00  0.00    +0.000 HD
BRANCH   6  14
ATOM     14  C   UNL     1       2.789   4.159  18.918  0.00  0.00    +0.000 A 
ATOM     15  C   UNL     1       2.097   4.375  20.116  0.00  0.00    +0.000 A 
ATOM     16  C   UNL     1       1.009   3.564  20.453  0.00  0.00    +0.000 A 
ATOM     17  C   UNL     1       0.617   2.529  19.602  0.00  0.00    +0.000 A 
ATOM     18  C   UNL     1       1.316   2.296  18.418  0.00  0.00    +0.000 A 
ATOM     19  C   UNL     1       2.403   3.105  18.076  0.00  0.00    +0.000 A 
ENDBRANCH   6  14
ENDBRANCH   1  11
BRANCH   3  20
ATOM     20  C   UNL     1       9.227  10.386  18.683  0.00  0.00    +0.000 A 
ATOM     21  C   UNL     1       8.565  11.332  17.906  0.00  0.00    +0.000 A 
ATOM     22  C   UNL     1       9.132  12.588  17.650  0.00  0.00    +0.000 A 
ATOM     23  C   UNL     1      10.382  12.953  18.154  0.00  0.00    +0.000 A 
ATOM     24  C   UNL     1      11.033  11.999  18.953  0.00  0.00    +0.000 A 
ATOM     25  C   UNL     1      10.461  10.741  19.234  0.00  0.00    +0.000 A 
BRANCH  23  26
ATOM     26  N   UNL     1      10.938  14.200  17.928  0.00  0.00    +0.000 N 
ATOM     27  C   UNL     1      12.316  14.529  18.336  0.00  0.00    +0.000 C 
ATOM     28  C   UNL     1      12.333  15.511  19.516  0.00  0.00    +0.000 C 
ATOM     29  O   UNL     1      11.560  16.687  19.229  0.00  0.00    +0.000 OA
ATOM     30  C   UNL     1      10.193  16.323  18.976  0.00  0.00    +0.000 C 
ATOM     31  C   UNL     1      10.064  15.377  17.765  0.00  0.00    +0.000 C 
ENDBRANCH  23  26
ENDBRANCH   3  20
TORSDOF 4
ENDMDL
MODEL 4
REMARK VINA RESULT:      -8.9      6.824      9.043
REMARK  Name = 
REMARK  4 active torsions:
REMARK  status: ('A' for Active; 'I' for Inactive)
REMARK    1  A    between atoms: C_2  and  C_24
REMARK    2  A    between atoms: C_7  and  C_8
REMARK    3  A    between atoms: N_10  and  C_11
REMARK    4  A    between atoms: C_14  and  N_15
REMARK                            x       y       z     vdW  Elec       q    Type
REMARK                         _______ _______ _______ _____ _____    ______ ____
ROOT
ATOM      1  C   UNL     1       2.254   6.003  19.892  0.00  0.00    +0.000 C 
ATOM      2  O   UNL     1       1.572   5.668  20.857  0.00  0.00    +0.000 OA
ATOM      3  N   UNL     1       2.291   7.305  19.378  0.00  0.00    +0.000 N 
ATOM      4  H   UNL     1       2.779   7.426  18.496  0.00  0.00    +0.000 HD
ENDROOT
BRANCH   1  11
ATOM      5  O   UNL     1       5.004   6.317  15.794  0.00  0.00    +0.000 OA
ATOM      6  C   UNL     1       5.222   5.130  15.592  0.00  0.00    +0.000 C 
ATOM      7  N   UNL     1       4.925   4.084  16.434  0.00  0.00    +0.000 N 
ATOM      8  C   UNL     1       4.254   4.216  17.616  0.00  0.00    +0.000 A 
ATOM      9  N   UNL     1       4.119   3.275  18.528  0.00  0.00    +0.000 NA
ATOM     10  N   UNL     1       3.373   3.819  19.557  0.00  0.00    +0.000 NA
ATOM     11  C   UNL     1       3.071   5.045  19.173  0.00  0.00    +0.000 A 
ATOM     12  O   UNL     1       3.605   5.367  17.948  0.00  0.00    +0.000 OA
ATOM     13  H   UNL     1       5.308   3.166  16.270  0.00  0.00    +0.000 HD
BRANCH   6  14
ATOM     14  C   UNL     1       5.946   4.716  14.349  0.00  0.00    +0.000 A 
ATOM     15  C   UNL     1       5.382   3.738  13.520  0.00  0.00    +0.000 A 
ATOM     16  C   UNL     1       6.029   3.362  12.339  0.00  0.00    +0.000 A 
ATOM     17  C   UNL     1       7.245   3.950  11.988  0.00  0.00    +0.000 A 
ATOM     18  C   UNL     1       7.822   4.908  12.821  0.00  0.00    +0.000 A 
ATOM     19  C   UNL     1       7.179   5.290  14.001  0.00  0.00    +0.000 A 
ENDBRANCH   6  14
ENDBRANCH   1  11
BRANCH   3  20
ATOM     20  C   UNL     1       1.608   8.426  19.908  0.00  0.00    +0.000 A 
ATOM     21  C   UNL     1       1.306   8.557  21.261  0.00  0.00    +0.000 A 
ATOM     22  C   UNL     1       0.604   9.670  21.745  0.00  0.00    +0.000 A 
ATOM     23  C   UNL     1       0.170  10.696  20.902  0.00  0.00    +0.000 A 
ATOM     24  C   UNL     1       0.497  10.564  19.543  0.00  0.00    +0.000 A 
ATOM     25  C   UNL     1       1.222   9.460  19.051  0.00  0.00    +0.000 A 
BRANCH  23  26
ATOM     26  N   UNL     1      -0.500  11.810  21.375  0.00  0.00    +0.000 N 
ATOM     27  C   UNL     1      -0.879  11.952  22.793  0.00  0.00    +0.000 C 
ATOM     28  C   UNL     1      -2.398  11.827  22.984  0.00  0.00    +0.000 C 
ATOM     29  O   UNL     1      -3.109  12.746  22.140  0.00  0.00    +0.000 OA
ATOM     30  C   UNL     1      -2.812  12.472  20.761  0.00  0.00    +0.000 C 
ATOM     31  C   UNL     1      -1.309  12.629  20.453  0.00  0.00    +0.000 C 
ENDBRANCH  23  26
ENDBRANCH   3  20
TORSDOF 4
ENDMDL
MODEL 5
REMARK VINA RESULT:      -8.8      0.861      1.247
REMARK  Name = 
REMARK  4 active torsions:
REMARK  status: ('A' for Active; 'I' for Inactive)
REMARK    1  A    between atoms: C_2  and  C_24
REMARK    2  A    between atoms: C_7  and  C_8
REMARK    3  A    between atoms: N_10  and  C_11
REMARK    4  A    between atoms: C_14  and  N_15
REMARK                            x       y       z     vdW  Elec       q    Type
REMARK                         _______ _______ _______ _____ _____    ______ ____
ROOT
ATOM      1  C   UNL     1       8.170   8.532  18.169  0.00  0.00    +0.000 C 
ATOM      2  O   UNL     1       7.864   9.074  17.110  0.00  0.00    +0.000 OA
ATOM      3  N   UNL     1       8.981   9.127  19.143  0.00  0.00    +0.000 N 
ATOM      4  H   UNL     1       9.280   8.527  19.906  0.00  0.00    +0.000 HD
ENDROOT
BRANCH   1  11
ATOM      5  O   UNL     1       3.881   6.149  17.551  0.00  0.00    +0.000 OA
ATOM      6  C   UNL     1       4.086   5.158  18.239  0.00  0.00    +0.000 C 
ATOM      7  N   UNL     1       5.278   4.791  18.817  0.00  0.00    +0.000 N 
ATOM      8  C   UNL     1       6.419   5.541  18.769  0.00  0.00    +0.000 A 
ATOM      9  N   UNL     1       7.616   5.137  19.145  0.00  0.00    +0.000 NA
ATOM     10  N   UNL     1       8.478   6.197  18.937  0.00  0.00    +0.000 NA
ATOM     11  C   UNL     1       7.730   7.187  18.486  0.00  0.00    +0.000 A 
ATOM     12  O   UNL     1       6.408   6.837  18.350  0.00  0.00    +0.000 OA
ATOM     13  H   UNL     1       5.399   3.869  19.207  0.00  0.00    +0.000 HD
BRANCH   6  14
ATOM     14  C   UNL     1       2.982   4.171  18.454  0.00  0.00    +0.000 A 
ATOM     15  C   UNL     1       3.030   2.935  17.796  0.00  0.00    +0.000 A 
ATOM     16  C   UNL     1       2.024   1.988  18.009  0.00  0.00    +0.000 A 
ATOM     17  C   UNL     1       0.962   2.275  18.868  0.00  0.00    +0.000 A 
ATOM     18  C   UNL     1       0.897   3.512  19.508  0.00  0.00    +0.000 A 
ATOM     19  C   UNL     1       1.901   4.462  19.300  0.00  0.00    +0.000 A 
ENDBRANCH   6  14
ENDBRANCH   1  11
BRANCH   3  20
ATOM     20  C   UNL     1       9.519  10.435  19.089  0.00  0.00    +0.000 A 
ATOM     21  C   UNL     1       9.366  11.358  20.120  0.00  0.00    +0.000 A 
ATOM     22  C   UNL     1       9.891  12.654  20.020  0.00  0.00    +0.000 A 
ATOM     23  C   UNL     1      10.584  13.087  18.888  0.00  0.00    +0.000 A 
ATOM     24  C   UNL     1      10.749  12.143  17.861  0.00  0.00    +0.000 A 
ATOM     25  C   UNL     1      10.246  10.830  17.963  0.00  0.00    +0.000 A 
BRANCH  23  26
ATOM     26  N   UNL     1      11.127  14.356  18.791  0.00  0.00    +0.000 N 
ATOM     27  C   UNL     1      10.712  15.455  19.682  0.00  0.00    +0.000 C 
ATOM     28  C   UNL     1       9.892  16.511  18.927  0.00  0.00    +0.000 C 
ATOM     29  O   UNL     1      10.595  16.990  17.770  0.00  0.00    +0.000 OA
ATOM     30  C   UNL     1      10.851  15.901  16.868  0.00  0.00    +0.000 C 
ATOM     31  C   UNL     1      11.722  14.807  17.519  0.00  0.00    +0.000 C 
ENDBRANCH  23  26
ENDBRANCH   3  20
TORSDOF 4
ENDMDL
MODEL 6
REMARK VINA RESULT:      -8.7      7.634     10.231
REMARK  Name = 
REMARK  4 active torsions:
REMARK  status: ('A' for Active; 'I' for Inactive)
REMARK    1  A    between atoms: C_2  and  C_24
REMARK    2  A    between atoms: C_7  and  C_8
REMARK    3  A    between atoms: N_10  and  C_11
REMARK    4  A    between atoms: C_14  and  N_15
REMARK                            x       y       z     vdW  Elec       q    Type
REMARK                         _______ _______ _______ _____ _____    ______ ____
ROOT
ATOM      1  C   UNL     1       1.344  10.195  18.684  0.00  0.00    +0.000 C 
ATOM      2  O   UNL     1       2.152  10.587  17.846  0.00  0.00    +0.000 OA
ATOM      3  N   UNL     1       1.329   8.894  19.201  0.00  0.00    +0.000 N 
ATOM      4  H   UNL     1       0.529   8.649  19.777  0.00  0.00    +0.000 HD
ENDROOT
BRANCH   1  11
ATOM      5  O   UNL     1      -3.537  10.401  17.916  0.00  0.00    +0.000 OA
ATOM      6  C   UNL     1      -3.788  11.484  18.429  0.00  0.00    +0.000 C 
ATOM      7  N   UNL     1      -2.929  12.260  19.171  0.00  0.00    +0.000 N 
ATOM      8  C   UNL     1      -1.614  11.964  19.384  0.00  0.00    +0.000 A 
ATOM      9  N   UNL     1      -0.819  12.580  20.236  0.00  0.00    +0.000 NA
ATOM     10  N   UNL     1       0.420  11.976  20.134  0.00  0.00    +0.000 NA
ATOM     11  C   UNL     1       0.299  11.061  19.192  0.00  0.00    +0.000 A 
ATOM     12  O   UNL     1      -0.973  10.995  18.674  0.00  0.00    +0.000 OA
ATOM     13  H   UNL     1      -3.276  13.041  19.708  0.00  0.00    +0.000 HD
BRANCH   6  14
ATOM     14  C   UNL     1      -5.174  12.040  18.331  0.00  0.00    +0.000 A 
ATOM     15  C   UNL     1      -5.967  12.110  19.483  0.00  0.00    +0.000 A 
ATOM     16  C   UNL     1      -7.252  12.656  19.417  0.00  0.00    +0.000 A 
ATOM     17  C   UNL     1      -7.754  13.120  18.200  0.00  0.00    +0.000 A 
ATOM     18  C   UNL     1      -6.978  13.032  17.046  0.00  0.00    +0.000 A 
ATOM     19  C   UNL     1      -5.691  12.490  17.106  0.00  0.00    +0.000 A 
ENDBRANCH   6  14
ENDBRANCH   1  11
BRANCH   3  20
ATOM     20  C   UNL     1       2.251   7.865  18.890  0.00  0.00    +0.000 A 
ATOM     21  C   UNL     1       2.433   6.745  19.695  0.00  0.00    +0.000 A 
ATOM     22  C   UNL     1       3.375   5.759  19.369  0.00  0.00    +0.000 A 
ATOM     23  C   UNL     1       4.178   5.851  18.230  0.00  0.00    +0.000 A 
ATOM     24  C   UNL     1       3.973   6.976  17.414  0.00  0.00    +0.000 A 
ATOM     25  C   UNL     1       3.012   7.960  17.722  0.00  0.00    +0.000 A 
BRANCH  23  26
ATOM     26  N   UNL     1       5.092   4.871  17.886  0.00  0.00    +0.000 N 
ATOM     27  C   UNL     1       6.290   4.598  18.701  0.00  0.00    +0.000 C 
ATOM     28  C   UNL     1       7.571   5.055  17.987  0.00  0.00    +0.000 C 
ATOM     29  O   UNL     1       7.669   4.482  16.672  0.00  0.00    +0.000 OA
ATOM     30  C   UNL     1       6.546   4.895  15.875  0.00  0.00    +0.000 C 
ATOM     31  C   UNL     1       5.207   4.430  16.483  0.00  0.00    +0.000 C 
ENDBRANCH  23  26
ENDBRANCH   3  20
TORSDOF 4
ENDMDL
MODEL 7
REMARK VINA RESULT:      -8.6      6.835      9.035
REMARK  Name = 
REMARK  4 active torsions:
REMARK  status: ('A' for Active; 'I' for Inactive)
REMARK    1  A    between atoms: C_2  and  C_24
REMARK    2  A    between atoms: C_7  and  C_8
REMARK    3  A    between atoms: N_10  and  C_11
REMARK    4  A    between atoms: C_14  and  N_15
REMARK                            x       y       z     vdW  Elec       q    Type
REMARK                         _______ _______ _______ _____ _____    ______ ____
ROOT
ATOM      1  C   UNL     1       2.299   6.098  19.885  0.00  0.00    +0.000 C 
ATOM      2  O   UNL     1       1.676   5.791  20.898  0.00  0.00    +0.000 OA
ATOM      3  N   UNL     1       2.270   7.373  19.309  0.00  0.00    +0.000 N 
ATOM      4  H   UNL     1       2.710   7.465  18.399  0.00  0.00    +0.000 HD
ENDROOT
BRANCH   1  11
ATOM      5  O   UNL     1       4.985   6.344  15.740  0.00  0.00    +0.000 OA
ATOM      6  C   UNL     1       5.204   5.154  15.557  0.00  0.00    +0.000 C 
ATOM      7  N   UNL     1       4.923   4.123  16.423  0.00  0.00    +0.000 N 
ATOM      8  C   UNL     1       4.270   4.275  17.613  0.00  0.00    +0.000 A 
ATOM      9  N   UNL     1       4.152   3.351  18.544  0.00  0.00    +0.000 NA
ATOM     10  N   UNL     1       3.420   3.911  19.573  0.00  0.00    +0.000 NA
ATOM     11  C   UNL     1       3.108   5.129  19.172  0.00  0.00    +0.000 A 
ATOM     12  O   UNL     1       3.622   5.430  17.933  0.00  0.00    +0.000 OA
ATOM     13  H   UNL     1       5.307   3.203  16.270  0.00  0.00    +0.000 HD
BRANCH   6  14
ATOM     14  C   UNL     1       5.910   4.719  14.311  0.00  0.00    +0.000 A 
ATOM     15  C   UNL     1       7.155   5.281  13.998  0.00  0.00    +0.000 A 
ATOM     16  C   UNL     1       7.844   4.864  12.855  0.00  0.00    +0.000 A 
ATOM     17  C   UNL     1       7.288   3.897  12.015  0.00  0.00    +0.000 A 
ATOM     18  C   UNL     1       6.040   3.351  12.311  0.00  0.00    +0.000 A 
ATOM     19  C   UNL     1       5.348   3.762  13.453  0.00  0.00    +0.000 A 
ENDBRANCH   6  14
ENDBRANCH   1  11
BRANCH   3  20
ATOM     20  C   UNL     1       1.580   8.500  19.819  0.00  0.00    +0.000 A 
ATOM     21  C   UNL     1       1.131   9.540  19.011  0.00  0.00    +0.000 A 
ATOM     22  C   UNL     1       0.474  10.653  19.556  0.00  0.00    +0.000 A 
ATOM     23  C   UNL     1       0.242  10.778  20.927  0.00  0.00    +0.000 A 
ATOM     24  C   UNL     1       0.683   9.714  21.732  0.00  0.00    +0.000 A 
ATOM     25  C   UNL     1       1.323   8.581  21.190  0.00  0.00    +0.000 A 
BRANCH  23  26
ATOM     26  N   UNL     1      -0.427  11.860  21.470  0.00  0.00    +0.000 N 
ATOM     27  C   UNL     1      -0.854  11.888  22.881  0.00  0.00    +0.000 C 
ATOM     28  C   UNL     1      -2.381  11.775  23.008  0.00  0.00    +0.000 C 
ATOM     29  O   UNL     1      -3.046  12.776  22.222  0.00  0.00    +0.000 OA
ATOM     30  C   UNL     1      -2.704  12.615  20.835  0.00  0.00    +0.000 C 
ATOM     31  C   UNL     1      -1.189  12.770  20.594  0.00  0.00    +0.000 C 
ENDBRANCH  23  26
ENDBRANCH   3  20
TORSDOF 4
ENDMDL
MODEL 8
REMARK VINA RESULT:      -8.5      6.831      8.602
REMARK  Name = 
REMARK  4 active torsions:
REMARK  status: ('A' for Active; 'I' for Inactive)
REMARK    1  A    between atoms: C_2  and  C_24
REMARK    2  A    between atoms: C_7  and  C_8
REMARK    3  A    between atoms: N_10  and  C_11
REMARK    4  A    between atoms: C_14  and  N_15
REMARK                            x       y       z     vdW  Elec       q    Type
REMARK                         _______ _______ _______ _____ _____    ______ ____
ROOT
ATOM      1  C   UNL     1       2.406   6.171  19.832  0.00  0.00    +0.000 C 
ATOM      2  O   UNL     1       1.816   5.869  20.866  0.00  0.00    +0.000 OA
ATOM      3  N   UNL     1       2.279   7.413  19.198  0.00  0.00    +0.000 N 
ATOM      4  H   UNL     1       2.703   7.493  18.279  0.00  0.00    +0.000 HD
ENDROOT
BRANCH   1  11
ATOM      5  O   UNL     1       4.968   6.387  15.608  0.00  0.00    +0.000 OA
ATOM      6  C   UNL     1       5.282   5.211  15.488  0.00  0.00    +0.000 C 
ATOM      7  N   UNL     1       5.109   4.215  16.421  0.00  0.00    +0.000 N 
ATOM      8  C   UNL     1       4.472   4.384  17.617  0.00  0.00    +0.000 A 
ATOM      9  N   UNL     1       4.454   3.511  18.604  0.00  0.00    +0.000 NA
ATOM     10  N   UNL     1       3.700   4.071  19.618  0.00  0.00    +0.000 NA
ATOM     11  C   UNL     1       3.278   5.232  19.155  0.00  0.00    +0.000 A 
ATOM     12  O   UNL     1       3.737   5.498  17.887  0.00  0.00    +0.000 OA
ATOM     13  H   UNL     1       5.565   3.322  16.311  0.00  0.00    +0.000 HD
BRANCH   6  14
ATOM     14  C   UNL     1       5.995   4.762  14.251  0.00  0.00    +0.000 A 
ATOM     15  C   UNL     1       5.415   3.773  13.447  0.00  0.00    +0.000 A 
ATOM     16  C   UNL     1       6.050   3.363  12.271  0.00  0.00    +0.000 A 
ATOM     17  C   UNL     1       7.272   3.929  11.902  0.00  0.00    +0.000 A 
ATOM     18  C   UNL     1       7.865   4.898  12.710  0.00  0.00    +0.000 A 
ATOM     19  C   UNL     1       7.233   5.313  13.885  0.00  0.00    +0.000 A 
ENDBRANCH   6  14
ENDBRANCH   1  11
BRANCH   3  20
ATOM     20  C   UNL     1       1.513   8.509  19.664  0.00  0.00    +0.000 A 
ATOM     21  C   UNL     1       1.186   8.687  21.005  0.00  0.00    +0.000 A 
ATOM     22  C   UNL     1       0.402   9.770  21.426  0.00  0.00    +0.000 A 
ATOM     23  C   UNL     1      -0.091  10.719  20.528  0.00  0.00    +0.000 A 
ATOM     24  C   UNL     1       0.260  10.542  19.180  0.00  0.00    +0.000 A 
ATOM     25  C   UNL     1       1.067   9.468  18.751  0.00  0.00    +0.000 A 
BRANCH  23  26
ATOM     26  N   UNL     1      -0.844  11.806  20.937  0.00  0.00    +0.000 N 
ATOM     27  C   UNL     1      -1.572  12.659  19.980  0.00  0.00    +0.000 C 
ATOM     28  C   UNL     1      -0.924  14.046  19.857  0.00  0.00    +0.000 C 
ATOM     29  O   UNL     1      -0.783  14.673  21.141  0.00  0.00    +0.000 OA
ATOM     30  C   UNL     1       0.052  13.867  21.989  0.00  0.00    +0.000 C 
ATOM     31  C   UNL     1      -0.546  12.466  22.223  0.00  0.00    +0.000 C 
ENDBRANCH  23  26
ENDBRANCH   3  20
TORSDOF 4
ENDMDL
MODEL 9
REMARK VINA RESULT:      -8.4      6.799      8.716
REMARK  Name = 
REMARK  4 active torsions:
REMARK  status: ('A' for Active; 'I' for Inactive)
REMARK    1  A    between atoms: C_2  and  C_24
REMARK    2  A    between atoms: C_7  and  C_8
REMARK    3  A    between atoms: N_10  and  C_11
REMARK    4  A    between atoms: C_14  and  N_15
REMARK                            x       y       z     vdW  Elec       q    Type
REMARK                         _______ _______ _______ _____ _____    ______ ____
ROOT
ATOM      1  C   UNL     1       2.285   6.081  19.863  0.00  0.00    +0.000 C 
ATOM      2  O   UNL     1       1.616   5.761  20.842  0.00  0.00    +0.000 OA
ATOM      3  N   UNL     1       2.304   7.371  19.320  0.00  0.00    +0.000 N 
ATOM      4  H   UNL     1       2.780   7.477  18.430  0.00  0.00    +0.000 HD
ENDROOT
BRANCH   1  11
ATOM      5  O   UNL     1       5.032   6.346  15.759  0.00  0.00    +0.000 OA
ATOM      6  C   UNL     1       5.252   5.156  15.572  0.00  0.00    +0.000 C 
ATOM      7  N   UNL     1       4.957   4.122  16.429  0.00  0.00    +0.000 N 
ATOM      8  C   UNL     1       4.287   4.268  17.609  0.00  0.00    +0.000 A 
ATOM      9  N   UNL     1       4.154   3.338  18.534  0.00  0.00    +0.000 NA
ATOM     10  N   UNL     1       3.407   3.894  19.555  0.00  0.00    +0.000 NA
ATOM     11  C   UNL     1       3.103   5.115  19.156  0.00  0.00    +0.000 A 
ATOM     12  O   UNL     1       3.636   5.422  17.926  0.00  0.00    +0.000 OA
ATOM     13  H   UNL     1       5.342   3.202  16.276  0.00  0.00    +0.000 HD
BRANCH   6  14
ATOM     14  C   UNL     1       5.976   4.728  14.335  0.00  0.00    +0.000 A 
ATOM     15  C   UNL     1       5.408   3.746  13.514  0.00  0.00    +0.000 A 
ATOM     16  C   UNL     1       6.055   3.356  12.337  0.00  0.00    +0.000 A 
ATOM     17  C   UNL     1       7.275   3.935  11.984  0.00  0.00    +0.000 A 
ATOM     18  C   UNL     1       7.856   4.897  12.809  0.00  0.00    +0.000 A 
ATOM     19  C   UNL     1       7.213   5.292  13.985  0.00  0.00    +0.000 A 
ENDBRANCH   6  14
ENDBRANCH   1  11
BRANCH   3  20
ATOM     20  C   UNL     1       1.616   8.497  19.833  0.00  0.00    +0.000 A 
ATOM     21  C   UNL     1       1.083   9.493  19.018  0.00  0.00    +0.000 A 
ATOM     22  C   UNL     1       0.432  10.608  19.564  0.00  0.00    +0.000 A 
ATOM     23  C   UNL     1       0.287  10.780  20.942  0.00  0.00    +0.000 A 
ATOM     24  C   UNL     1       0.810   9.761  21.754  0.00  0.00    +0.000 A 
ATOM     25  C   UNL     1       1.447   8.625  21.214  0.00  0.00    +0.000 A 
BRANCH  23  26
ATOM     26  N   UNL     1      -0.378  11.864  21.488  0.00  0.00    +0.000 N 
ATOM     27  C   UNL     1      -1.849  11.923  21.567  0.00  0.00    +0.000 C 
ATOM     28  C   UNL     1      -2.423  12.957  20.588  0.00  0.00    +0.000 C 
ATOM     29  O   UNL     1      -1.820  14.247  20.777  0.00  0.00    +0.000 OA
ATOM     30  C   UNL     1      -0.403  14.162  20.551  0.00  0.00    +0.000 C 
ATOM     31  C   UNL     1       0.278  13.185  21.530  0.00  0.00    +0.000 C 
ENDBRANCH  23  26
ENDBRANCH   3  20
TORSDOF 4
ENDMDL
