MODEL 1
REMARK VINA RESULT:      -6.4      0.000      0.000
REMARK  Name = 
REMARK  16 active torsions:
REMARK  status: ('A' for Active; 'I' for Inactive)
REMARK    1  A    between atoms: C_1  and  O_2
REMARK    2  A    between atoms: O_2  and  C_3
REMARK    3  A    between atoms: C_3  and  C_4
REMARK    4  A    between atoms: C_6  and  C_7
REMARK    5  A    between atoms: C_8  and  O_9
REMARK    6  A    between atoms: O_9  and  C_10
REMARK    7  A    between atoms: C_12  and  O_13
REMARK    8  A    between atoms: O_13  and  C_14
REMARK    9  A    between atoms: C_16  and  O_17
REMARK   10  A    between atoms: O_17  and  C_18
REMARK   11  A    between atoms: C_19  and  O_20
REMARK   12  A    between atoms: O_20  and  C_21
REMARK   13  A    between atoms: C_22  and  O_23
REMARK   14  A    between atoms: O_23  and  C_24
REMARK   15  A    between atoms: C_25  and  O_26
REMARK   16  A    between atoms: O_26  and  C_27
REMARK                            x       y       z     vdW  Elec       q    Type
REMARK                         _______ _______ _______ _____ _____    ______ ____
ROOT
ATOM      1  C   UNL     1       4.493   2.623  20.830  0.00  0.00    +0.000 C 
ATOM      2  O   UNL     1       4.984   2.850  19.510  0.00  0.00    +0.000 OA
ATOM      3  C   UNL     1       4.945   4.216  19.090  0.00  0.00    +0.000 C 
ATOM      4  C   UNL     1       3.525   4.837  19.169  0.00  0.00    +0.000 C 
ATOM      5  C   UNL     1       2.658   4.294  20.337  0.00  0.00    +0.000 C 
ATOM      6  C   UNL     1       2.979   2.879  20.853  0.00  0.00    +0.000 C 
ENDROOT
BRANCH   3   7
ATOM      7  C   UNL     1       5.489   4.310  17.647  0.00  0.00    +0.000 A 
ATOM      8  C   UNL     1       6.835   4.662  17.371  0.00  0.00    +0.000 A 
ATOM      9  C   UNL     1       7.273   4.772  16.045  0.00  0.00    +0.000 A 
ATOM     10  C   UNL     1       6.438   4.443  14.984  0.00  0.00    +0.000 A 
ATOM     11  C   UNL     1       5.131   4.050  15.236  0.00  0.00    +0.000 A 
ATOM     12  C   UNL     1       4.643   3.999  16.552  0.00  0.00    +0.000 A 
BRANCH   8  13
ATOM     13  O   UNL     1       7.673   4.875  18.440  0.00  0.00    +0.000 OA
ATOM     14  C   UNL     1       7.839   6.212  18.895  0.00  0.00    +0.000 C 
ENDBRANCH   8  13
BRANCH  10  15
ATOM     15  O   UNL     1       6.995   4.577  13.741  0.00  0.00    +0.000 OA
ATOM     16  C   UNL     1       6.412   3.775  12.721  0.00  0.00    +0.000 C 
ENDBRANCH  10  15
BRANCH  12  17
ATOM     17  O   UNL     1       3.352   3.634  16.851  0.00  0.00    +0.000 OA
ATOM     18  C   UNL     1       3.054   2.244  16.914  0.00  0.00    +0.000 C 
ENDBRANCH  12  17
ENDBRANCH   3   7
BRANCH   4  19
ATOM     19  O   UNL     1       3.674   6.278  19.272  0.00  0.00    +0.000 OA
ATOM     20  C   UNL     1       2.944   7.042  18.323  0.00  0.00    +0.000 C 
ENDBRANCH   4  19
BRANCH   5  21
ATOM     21  O   UNL     1       1.242   4.414  19.995  0.00  0.00    +0.000 OA
ATOM     22  C   UNL     1       0.712   3.353  19.199  0.00  0.00    +0.000 C 
ENDBRANCH   5  21
BRANCH   6  23
ATOM     23  O   UNL     1       2.522   2.662  22.209  0.00  0.00    +0.000 OA
ATOM     24  C   UNL     1       1.206   2.133  22.318  0.00  0.00    +0.000 C 
ENDBRANCH   6  23
BRANCH   1  25
ATOM     25  C   UNL     1       4.773   1.152  21.198  0.00  0.00    +0.000 C 
BRANCH  25  27
ATOM     26  C   UNL     1       6.305  -0.318  22.223  0.00  0.00    +0.000 C 
ATOM     27  O   UNL     1       5.987   1.041  21.951  0.00  0.00    +0.000 OA
ENDBRANCH  25  27
ENDBRANCH   1  25
TORSDOF 9
ENDMDL
MODEL 2
REMARK VINA RESULT:      -6.1      0.538      2.442
REMARK  Name = 
REMARK  16 active torsions:
REMARK  status: ('A' for Active; 'I' for Inactive)
REMARK    1  A    between atoms: C_1  and  O_2
REMARK    2  A    between atoms: O_2  and  C_3
REMARK    3  A    between atoms: C_3  and  C_4
REMARK    4  A    between atoms: C_6  and  C_7
REMARK    5  A    between atoms: C_8  and  O_9
REMARK    6  A    between atoms: O_9  and  C_10
REMARK    7  A    between atoms: C_12  and  O_13
REMARK    8  A    between atoms: O_13  and  C_14
REMARK    9  A    between atoms: C_16  and  O_17
REMARK   10  A    between atoms: O_17  and  C_18
REMARK   11  A    between atoms: C_19  and  O_20
REMARK   12  A    between atoms: O_20  and  C_21
REMARK   13  A    between atoms: C_22  and  O_23
REMARK   14  A    between atoms: O_23  and  C_24
REMARK   15  A    between atoms: C_25  and  O_26
REMARK   16  A    between atoms: O_26  and  C_27
REMARK                            x       y       z     vdW  Elec       q    Type
REMARK                         _______ _______ _______ _____ _____    ______ ____
ROOT
ATOM      1  C   UNL     1       4.646   2.631  20.658  0.00  0.00    +0.000 C 
ATOM      2  O   UNL     1       5.120   2.865  19.333  0.00  0.00    +0.000 OA
ATOM      3  C   UNL     1       5.094   4.236  18.928  0.00  0.00    +0.000 C 
ATOM      4  C   UNL     1       3.683   4.875  19.034  0.00  0.00    +0.000 C 
ATOM      5  C   UNL     1       2.826   4.331  20.209  0.00  0.00    +0.000 C 
ATOM      6  C   UNL     1       3.135   2.906  20.706  0.00  0.00    +0.000 C 
ENDROOT
BRANCH   3   7
ATOM      7  C   UNL     1       5.617   4.337  17.478  0.00  0.00    +0.000 A 
ATOM      8  C   UNL     1       4.772   4.136  16.356  0.00  0.00    +0.000 A 
ATOM      9  C   UNL     1       5.300   4.200  15.061  0.00  0.00    +0.000 A 
ATOM     10  C   UNL     1       6.624   4.560  14.842  0.00  0.00    +0.000 A 
ATOM     11  C   UNL     1       7.455   4.808  15.926  0.00  0.00    +0.000 A 
ATOM     12  C   UNL     1       6.972   4.682  17.239  0.00  0.00    +0.000 A 
BRANCH   8  13
ATOM     13  O   UNL     1       3.441   3.891  16.594  0.00  0.00    +0.000 OA
ATOM     14  C   UNL     1       3.030   2.536  16.727  0.00  0.00    +0.000 C 
ENDBRANCH   8  13
BRANCH  10  15
ATOM     15  O   UNL     1       7.008   4.602  13.529  0.00  0.00    +0.000 OA
ATOM     16  C   UNL     1       6.386   3.645  12.681  0.00  0.00    +0.000 C 
ENDBRANCH  10  15
BRANCH  12  17
ATOM     17  O   UNL     1       7.759   4.899  18.344  0.00  0.00    +0.000 OA
ATOM     18  C   UNL     1       7.909   6.239  18.798  0.00  0.00    +0.000 C 
ENDBRANCH  12  17
ENDBRANCH   3   7
BRANCH   4  19
ATOM     19  O   UNL     1       3.853   6.312  19.149  0.00  0.00    +0.000 OA
ATOM     20  C   UNL     1       3.206   7.090  18.154  0.00  0.00    +0.000 C 
ENDBRANCH   4  19
BRANCH   5  21
ATOM     21  O   UNL     1       1.408   4.473  19.890  0.00  0.00    +0.000 OA
ATOM     22  C   UNL     1       0.749   5.583  20.503  0.00  0.00    +0.000 C 
ENDBRANCH   5  21
BRANCH   6  23
ATOM     23  O   UNL     1       2.696   2.682  22.066  0.00  0.00    +0.000 OA
ATOM     24  C   UNL     1       1.328   2.312  22.198  0.00  0.00    +0.000 C 
ENDBRANCH   6  23
BRANCH   1  25
ATOM     25  C   UNL     1       4.911   1.152  21.007  0.00  0.00    +0.000 C 
BRANCH  25  27
ATOM     26  C   UNL     1       6.333  -0.299  22.203  0.00  0.00    +0.000 C 
ATOM     27  O   UNL     1       5.900   1.045  22.038  0.00  0.00    +0.000 OA
ENDBRANCH  25  27
ENDBRANCH   1  25
TORSDOF 9
ENDMDL
MODEL 3
REMARK VINA RESULT:      -5.5      9.061     12.302
REMARK  Name = 
REMARK  16 active torsions:
REMARK  status: ('A' for Active; 'I' for Inactive)
REMARK    1  A    between atoms: C_1  and  O_2
REMARK    2  A    between atoms: O_2  and  C_3
REMARK    3  A    between atoms: C_3  and  C_4
REMARK    4  A    between atoms: C_6  and  C_7
REMARK    5  A    between atoms: C_8  and  O_9
REMARK    6  A    between atoms: O_9  and  C_10
REMARK    7  A    between atoms: C_12  and  O_13
REMARK    8  A    between atoms: O_13  and  C_14
REMARK    9  A    between atoms: C_16  and  O_17
REMARK   10  A    between atoms: O_17  and  C_18
REMARK   11  A    between atoms: C_19  and  O_20
REMARK   12  A    between atoms: O_20  and  C_21
REMARK   13  A    between atoms: C_22  and  O_23
REMARK   14  A    between atoms: O_23  and  C_24
REMARK   15  A    between atoms: C_25  and  O_26
REMARK   16  A    between atoms: O_26  and  C_27
REMARK                            x       y       z     vdW  Elec       q    Type
REMARK                         _______ _______ _______ _____ _____    ______ ____
ROOT
ATOM      1  C   UNL     1      -2.668  13.006  23.055  0.00  0.00    +0.000 C 
ATOM      2  O   UNL     1      -2.840  12.323  21.814  0.00  0.00    +0.000 OA
ATOM      3  C   UNL     1      -1.796  12.549  20.864  0.00  0.00    +0.000 C 
ATOM      4  C   UNL     1      -1.583  14.053  20.540  0.00  0.00    +0.000 C 
ATOM      5  C   UNL     1      -1.847  15.004  21.738  0.00  0.00    +0.000 C 
ATOM      6  C   UNL     1      -2.825  14.516  22.824  0.00  0.00    +0.000 C 
ENDROOT
BRANCH   3   7
ATOM      7  C   UNL     1      -2.120  11.766  19.573  0.00  0.00    +0.000 A 
ATOM      8  C   UNL     1      -3.388  11.846  18.942  0.00  0.00    +0.000 A 
ATOM      9  C   UNL     1      -3.648  11.087  17.793  0.00  0.00    +0.000 A 
ATOM     10  C   UNL     1      -2.651  10.328  17.193  0.00  0.00    +0.000 A 
ATOM     11  C   UNL     1      -1.389  10.275  17.769  0.00  0.00    +0.000 A 
ATOM     12  C   UNL     1      -1.119  10.969  18.961  0.00  0.00    +0.000 A 
BRANCH   8  13
ATOM     13  O   UNL     1      -4.324  12.690  19.490  0.00  0.00    +0.000 OA
ATOM     14  C   UNL     1      -5.636  12.181  19.695  0.00  0.00    +0.000 C 
ENDBRANCH   8  13
BRANCH  10  15
ATOM     15  O   UNL     1      -3.032   9.649  16.067  0.00  0.00    +0.000 OA
ATOM     16  C   UNL     1      -3.021  10.408  14.864  0.00  0.00    +0.000 C 
ENDBRANCH  10  15
BRANCH  12  17
ATOM     17  O   UNL     1       0.107  10.933  19.579  0.00  0.00    +0.000 OA
ATOM     18  C   UNL     1       1.078  10.024  19.074  0.00  0.00    +0.000 C 
ENDBRANCH  12  17
ENDBRANCH   3   7
BRANCH   4  19
ATOM     19  O   UNL     1      -0.227  14.214  20.049  0.00  0.00    +0.000 OA
ATOM     20  C   UNL     1      -0.098  14.877  18.801  0.00  0.00    +0.000 C 
ENDBRANCH   4  19
BRANCH   5  21
ATOM     21  O   UNL     1      -2.237  16.322  21.242  0.00  0.00    +0.000 OA
ATOM     22  C   UNL     1      -3.586  16.430  20.783  0.00  0.00    +0.000 C 
ENDBRANCH   5  21
BRANCH   6  23
ATOM     23  O   UNL     1      -2.621  15.175  24.095  0.00  0.00    +0.000 OA
ATOM     24  C   UNL     1      -1.265  15.241  24.522  0.00  0.00    +0.000 C 
ENDBRANCH   6  23
BRANCH   1  25
ATOM     25  C   UNL     1      -3.762  12.517  24.026  0.00  0.00    +0.000 C 
BRANCH  25  27
ATOM     26  C   UNL     1      -6.064  12.979  23.814  0.00  0.00    +0.000 C 
ATOM     27  O   UNL     1      -4.971  12.218  23.318  0.00  0.00    +0.000 OA
ENDBRANCH  25  27
ENDBRANCH   1  25
TORSDOF 9
ENDMDL
MODEL 4
REMARK VINA RESULT:      -5.5      9.545     12.718
REMARK  Name = 
REMARK  16 active torsions:
REMARK  status: ('A' for Active; 'I' for Inactive)
REMARK    1  A    between atoms: C_1  and  O_2
REMARK    2  A    between atoms: O_2  and  C_3
REMARK    3  A    between atoms: C_3  and  C_4
REMARK    4  A    between atoms: C_6  and  C_7
REMARK    5  A    between atoms: C_8  and  O_9
REMARK    6  A    between atoms: O_9  and  C_10
REMARK    7  A    between atoms: C_12  and  O_13
REMARK    8  A    between atoms: O_13  and  C_14
REMARK    9  A    between atoms: C_16  and  O_17
REMARK   10  A    between atoms: O_17  and  C_18
REMARK   11  A    between atoms: C_19  and  O_20
REMARK   12  A    between atoms: O_20  and  C_21
REMARK   13  A    between atoms: C_22  and  O_23
REMARK   14  A    between atoms: O_23  and  C_24
REMARK   15  A    between atoms: C_25  and  O_26
REMARK   16  A    between atoms: O_26  and  C_27
REMARK                            x       y       z     vdW  Elec       q    Type
REMARK                         _______ _______ _______ _____ _____    ______ ____
ROOT
ATOM      1  C   UNL     1      -3.327  13.106  23.636  0.00  0.00    +0.000 C 
ATOM      2  O   UNL     1      -3.234  12.465  22.365  0.00  0.00    +0.000 OA
ATOM      3  C   UNL     1      -2.101  12.855  21.587  0.00  0.00    +0.000 C 
ATOM      4  C   UNL     1      -2.028  14.385  21.340  0.00  0.00    +0.000 C 
ATOM      5  C   UNL     1      -2.576  15.244  22.511  0.00  0.00    +0.000 C 
ATOM      6  C   UNL     1      -3.633  14.596  23.426  0.00  0.00    +0.000 C 
ENDROOT
BRANCH   3   7
ATOM      7  C   UNL     1      -2.137  12.098  20.240  0.00  0.00    +0.000 A 
ATOM      8  C   UNL     1      -3.281  12.110  19.401  0.00  0.00    +0.000 A 
ATOM      9  C   UNL     1      -3.281  11.378  18.206  0.00  0.00    +0.000 A 
ATOM     10  C   UNL     1      -2.140  10.715  17.770  0.00  0.00    +0.000 A 
ATOM     11  C   UNL     1      -0.995  10.732  18.555  0.00  0.00    +0.000 A 
ATOM     12  C   UNL     1      -0.987  11.399  19.791  0.00  0.00    +0.000 A 
BRANCH   8  13
ATOM     13  O   UNL     1      -4.359  12.864  19.799  0.00  0.00    +0.000 OA
ATOM     14  C   UNL     1      -5.636  12.239  19.809  0.00  0.00    +0.000 C 
ENDBRANCH   8  13
BRANCH  10  15
ATOM     15  O   UNL     1      -2.270  10.053  16.579  0.00  0.00    +0.000 OA
ATOM     16  C   UNL     1      -2.866  10.802  15.527  0.00  0.00    +0.000 C 
ENDBRANCH  10  15
BRANCH  12  17
ATOM     17  O   UNL     1       0.114  11.429  20.612  0.00  0.00    +0.000 OA
ATOM     18  C   UNL     1       1.330  11.931  20.070  0.00  0.00    +0.000 C 
ENDBRANCH  12  17
ENDBRANCH   3   7
BRANCH   4  19
ATOM     19  O   UNL     1      -0.645  14.726  21.060  0.00  0.00    +0.000 OA
ATOM     20  C   UNL     1       0.213  14.793  22.188  0.00  0.00    +0.000 C 
ENDBRANCH   4  19
BRANCH   5  21
ATOM     21  O   UNL     1      -3.049  16.529  22.000  0.00  0.00    +0.000 OA
ATOM     22  C   UNL     1      -4.103  16.455  21.038  0.00  0.00    +0.000 C 
ENDBRANCH   5  21
BRANCH   6  23
ATOM     23  O   UNL     1      -3.695  15.216  24.732  0.00  0.00    +0.000 OA
ATOM     24  C   UNL     1      -2.434  15.415  25.359  0.00  0.00    +0.000 C 
ENDBRANCH   6  23
BRANCH   1  25
ATOM     25  C   UNL     1      -4.482  12.449  24.420  0.00  0.00    +0.000 C 
BRANCH  25  27
ATOM     26  C   UNL     1      -6.794  12.782  24.102  0.00  0.00    +0.000 C 
ATOM     27  O   UNL     1      -5.606  12.215  23.564  0.00  0.00    +0.000 OA
ENDBRANCH  25  27
ENDBRANCH   1  25
TORSDOF 9
ENDMDL
MODEL 5
REMARK VINA RESULT:      -5.4      9.868     13.057
REMARK  Name = 
REMARK  16 active torsions:
REMARK  status: ('A' for Active; 'I' for Inactive)
REMARK    1  A    between atoms: C_1  and  O_2
REMARK    2  A    between atoms: O_2  and  C_3
REMARK    3  A    between atoms: C_3  and  C_4
REMARK    4  A    between atoms: C_6  and  C_7
REMARK    5  A    between atoms: C_8  and  O_9
REMARK    6  A    between atoms: O_9  and  C_10
REMARK    7  A    between atoms: C_12  and  O_13
REMARK    8  A    between atoms: O_13  and  C_14
REMARK    9  A    between atoms: C_16  and  O_17
REMARK   10  A    between atoms: O_17  and  C_18
REMARK   11  A    between atoms: C_19  and  O_20
REMARK   12  A    between atoms: O_20  and  C_21
REMARK   13  A    between atoms: C_22  and  O_23
REMARK   14  A    between atoms: O_23  and  C_24
REMARK   15  A    between atoms: C_25  and  O_26
REMARK   16  A    between atoms: O_26  and  C_27
REMARK                            x       y       z     vdW  Elec       q    Type
REMARK                         _______ _______ _______ _____ _____    ______ ____
ROOT
ATOM      1  C   UNL     1      -2.914  14.958  21.467  0.00  0.00    +0.000 C 
ATOM      2  O   UNL     1      -2.827  14.014  20.401  0.00  0.00    +0.000 OA
ATOM      3  C   UNL     1      -3.986  13.195  20.239  0.00  0.00    +0.000 C 
ATOM      4  C   UNL     1      -4.360  12.408  21.524  0.00  0.00    +0.000 C 
ATOM      5  C   UNL     1      -4.044  13.161  22.844  0.00  0.00    +0.000 C 
ATOM      6  C   UNL     1      -2.912  14.205  22.806  0.00  0.00    +0.000 C 
ENDROOT
BRANCH   3   7
ATOM      7  C   UNL     1      -3.746  12.217  19.066  0.00  0.00    +0.000 A 
ATOM      8  C   UNL     1      -2.550  11.464  18.947  0.00  0.00    +0.000 A 
ATOM      9  C   UNL     1      -2.361  10.619  17.847  0.00  0.00    +0.000 A 
ATOM     10  C   UNL     1      -3.369  10.422  16.910  0.00  0.00    +0.000 A 
ATOM     11  C   UNL     1      -4.566  11.115  17.036  0.00  0.00    +0.000 A 
ATOM     12  C   UNL     1      -4.757  12.023  18.091  0.00  0.00    +0.000 A 
BRANCH   8  13
ATOM     13  O   UNL     1      -1.613  11.590  19.944  0.00  0.00    +0.000 OA
ATOM     14  C   UNL     1      -0.495  10.711  19.917  0.00  0.00    +0.000 C 
ENDBRANCH   8  13
BRANCH  10  15
ATOM     15  O   UNL     1      -3.062   9.559  15.894  0.00  0.00    +0.000 OA
ATOM     16  C   UNL     1      -3.031  10.133  14.593  0.00  0.00    +0.000 C 
ENDBRANCH  10  15
BRANCH  12  17
ATOM     17  O   UNL     1      -5.916  12.745  18.248  0.00  0.00    +0.000 OA
ATOM     18  C   UNL     1      -6.709  12.985  17.092  0.00  0.00    +0.000 C 
ENDBRANCH  12  17
ENDBRANCH   3   7
BRANCH   4  19
ATOM     19  O   UNL     1      -5.773  12.080  21.450  0.00  0.00    +0.000 OA
ATOM     20  C   UNL     1      -6.668  13.153  21.699  0.00  0.00    +0.000 C 
ENDBRANCH   4  19
BRANCH   5  21
ATOM     21  O   UNL     1      -3.824  12.196  23.919  0.00  0.00    +0.000 OA
ATOM     22  C   UNL     1      -4.757  12.259  25.000  0.00  0.00    +0.000 C 
ENDBRANCH   5  21
BRANCH   6  23
ATOM     23  O   UNL     1      -3.025  15.190  23.859  0.00  0.00    +0.000 OA
ATOM     24  C   UNL     1      -4.297  15.820  23.952  0.00  0.00    +0.000 C 
ENDBRANCH   6  23
BRANCH   1  25
ATOM     25  C   UNL     1      -1.680  15.880  21.392  0.00  0.00    +0.000 C 
BRANCH  25  27
ATOM     26  C   UNL     1      -2.124  17.403  19.649  0.00  0.00    +0.000 C 
ATOM     27  O   UNL     1      -2.067  17.218  21.057  0.00  0.00    +0.000 OA
ENDBRANCH  25  27
ENDBRANCH   1  25
TORSDOF 9
ENDMDL
MODEL 6
REMARK VINA RESULT:      -5.4      5.037      8.368
REMARK  Name = 
REMARK  16 active torsions:
REMARK  status: ('A' for Active; 'I' for Inactive)
REMARK    1  A    between atoms: C_1  and  O_2
REMARK    2  A    between atoms: O_2  and  C_3
REMARK    3  A    between atoms: C_3  and  C_4
REMARK    4  A    between atoms: C_6  and  C_7
REMARK    5  A    between atoms: C_8  and  O_9
REMARK    6  A    between atoms: O_9  and  C_10
REMARK    7  A    between atoms: C_12  and  O_13
REMARK    8  A    between atoms: O_13  and  C_14
REMARK    9  A    between atoms: C_16  and  O_17
REMARK   10  A    between atoms: O_17  and  C_18
REMARK   11  A    between atoms: C_19  and  O_20
REMARK   12  A    between atoms: O_20  and  C_21
REMARK   13  A    between atoms: C_22  and  O_23
REMARK   14  A    between atoms: O_23  and  C_24
REMARK   15  A    between atoms: C_25  and  O_26
REMARK   16  A    between atoms: O_26  and  C_27
REMARK                            x       y       z     vdW  Elec       q    Type
REMARK                         _______ _______ _______ _____ _____    ______ ____
ROOT
ATOM      1  C   UNL     1      -1.346  10.632  19.404  0.00  0.00    +0.000 C 
ATOM      2  O   UNL     1      -0.271   9.848  18.890  0.00  0.00    +0.000 OA
ATOM      3  C   UNL     1       0.554   9.247  19.890  0.00  0.00    +0.000 C 
ATOM      4  C   UNL     1       1.165  10.279  20.876  0.00  0.00    +0.000 C 
ATOM      5  C   UNL     1       0.249  11.498  21.167  0.00  0.00    +0.000 C 
ATOM      6  C   UNL     1      -0.774  11.886  20.083  0.00  0.00    +0.000 C 
ENDROOT
BRANCH   3   7
ATOM      7  C   UNL     1       1.677   8.447  19.193  0.00  0.00    +0.000 A 
ATOM      8  C   UNL     1       2.101   7.178  19.665  0.00  0.00    +0.000 A 
ATOM      9  C   UNL     1       3.149   6.506  19.023  0.00  0.00    +0.000 A 
ATOM     10  C   UNL     1       3.723   7.012  17.863  0.00  0.00    +0.000 A 
ATOM     11  C   UNL     1       3.289   8.230  17.359  0.00  0.00    +0.000 A 
ATOM     12  C   UNL     1       2.288   8.960  18.020  0.00  0.00    +0.000 A 
BRANCH   8  13
ATOM     13  O   UNL     1       1.444   6.646  20.748  0.00  0.00    +0.000 OA
ATOM     14  C   UNL     1       1.626   5.262  21.019  0.00  0.00    +0.000 C 
ENDBRANCH   8  13
BRANCH  10  15
ATOM     15  O   UNL     1       4.725   6.249  17.327  0.00  0.00    +0.000 OA
ATOM     16  C   UNL     1       5.977   6.907  17.174  0.00  0.00    +0.000 C 
ENDBRANCH  10  15
BRANCH  12  17
ATOM     17  O   UNL     1       1.837  10.178  17.571  0.00  0.00    +0.000 OA
ATOM     18  C   UNL     1       2.705  11.298  17.708  0.00  0.00    +0.000 C 
ENDBRANCH  12  17
ENDBRANCH   3   7
BRANCH   4  19
ATOM     19  O   UNL     1       1.490   9.580  22.106  0.00  0.00    +0.000 OA
ATOM     20  C   UNL     1       0.413   9.393  23.012  0.00  0.00    +0.000 C 
ENDBRANCH   4  19
BRANCH   5  21
ATOM     21  O   UNL     1       1.067  12.648  21.545  0.00  0.00    +0.000 OA
ATOM     22  C   UNL     1       1.656  13.365  20.458  0.00  0.00    +0.000 C 
ENDBRANCH   5  21
BRANCH   6  23
ATOM     23  O   UNL     1      -1.888  12.642  20.611  0.00  0.00    +0.000 OA
ATOM     24  C   UNL     1      -2.253  12.313  21.946  0.00  0.00    +0.000 C 
ENDBRANCH   6  23
BRANCH   1  25
ATOM     25  C   UNL     1      -2.243  11.051  18.220  0.00  0.00    +0.000 C 
BRANCH  25  27
ATOM     26  C   UNL     1      -2.896  10.151  16.141  0.00  0.00    +0.000 C 
ATOM     27  O   UNL     1      -1.803  10.428  17.008  0.00  0.00    +0.000 OA
ENDBRANCH  25  27
ENDBRANCH   1  25
TORSDOF 9
ENDMDL
MODEL 7
REMARK VINA RESULT:      -5.3      8.092     11.374
REMARK  Name = 
REMARK  16 active torsions:
REMARK  status: ('A' for Active; 'I' for Inactive)
REMARK    1  A    between atoms: C_1  and  O_2
REMARK    2  A    between atoms: O_2  and  C_3
REMARK    3  A    between atoms: C_3  and  C_4
REMARK    4  A    between atoms: C_6  and  C_7
REMARK    5  A    between atoms: C_8  and  O_9
REMARK    6  A    between atoms: O_9  and  C_10
REMARK    7  A    between atoms: C_12  and  O_13
REMARK    8  A    between atoms: O_13  and  C_14
REMARK    9  A    between atoms: C_16  and  O_17
REMARK   10  A    between atoms: O_17  and  C_18
REMARK   11  A    between atoms: C_19  and  O_20
REMARK   12  A    between atoms: O_20  and  C_21
REMARK   13  A    between atoms: C_22  and  O_23
REMARK   14  A    between atoms: O_23  and  C_24
REMARK   15  A    between atoms: C_25  and  O_26
REMARK   16  A    between atoms: O_26  and  C_27
REMARK                            x       y       z     vdW  Elec       q    Type
REMARK                         _______ _______ _______ _____ _____    ______ ____
ROOT
ATOM      1  C   UNL     1      -3.318  11.284  18.031  0.00  0.00    +0.000 C 
ATOM      2  O   UNL     1      -2.025  11.876  17.915  0.00  0.00    +0.000 OA
ATOM      3  C   UNL     1      -1.253  11.851  19.118  0.00  0.00    +0.000 C 
ATOM      4  C   UNL     1      -1.969  12.533  20.315  0.00  0.00    +0.000 C 
ATOM      5  C   UNL     1      -3.513  12.373  20.307  0.00  0.00    +0.000 C 
ATOM      6  C   UNL     1      -4.192  12.161  18.941  0.00  0.00    +0.000 C 
ENDROOT
BRANCH   3   7
ATOM      7  C   UNL     1       0.107  12.534  18.851  0.00  0.00    +0.000 A 
ATOM      8  C   UNL     1       0.249  13.945  18.824  0.00  0.00    +0.000 A 
ATOM      9  C   UNL     1       1.495  14.518  18.541  0.00  0.00    +0.000 A 
ATOM     10  C   UNL     1       2.629  13.731  18.382  0.00  0.00    +0.000 A 
ATOM     11  C   UNL     1       2.519  12.349  18.452  0.00  0.00    +0.000 A 
ATOM     12  C   UNL     1       1.270  11.742  18.665  0.00  0.00    +0.000 A 
BRANCH   8  13
ATOM     13  O   UNL     1      -0.863  14.705  19.094  0.00  0.00    +0.000 OA
ATOM     14  C   UNL     1      -0.661  16.040  19.541  0.00  0.00    +0.000 C 
ENDBRANCH   8  13
BRANCH  10  15
ATOM     15  O   UNL     1       3.785  14.417  18.126  0.00  0.00    +0.000 OA
ATOM     16  C   UNL     1       3.761  15.799  18.464  0.00  0.00    +0.000 C 
ENDBRANCH  10  15
BRANCH  12  17
ATOM     17  O   UNL     1       1.107  10.379  18.725  0.00  0.00    +0.000 OA
ATOM     18  C   UNL     1       1.909   9.577  17.866  0.00  0.00    +0.000 C 
ENDBRANCH  12  17
ENDBRANCH   3   7
BRANCH   4  19
ATOM     19  O   UNL     1      -1.406  11.990  21.538  0.00  0.00    +0.000 OA
ATOM     20  C   UNL     1      -0.866  12.941  22.444  0.00  0.00    +0.000 C 
ENDBRANCH   4  19
BRANCH   5  21
ATOM     21  O   UNL     1      -4.126  13.488  21.024  0.00  0.00    +0.000 OA
ATOM     22  C   UNL     1      -4.804  13.141  22.234  0.00  0.00    +0.000 C 
ENDBRANCH   5  21
BRANCH   6  23
ATOM     23  O   UNL     1      -5.484  11.519  19.053  0.00  0.00    +0.000 OA
ATOM     24  C   UNL     1      -6.597  12.380  18.847  0.00  0.00    +0.000 C 
ENDBRANCH   6  23
BRANCH   1  25
ATOM     25  C   UNL     1      -3.943  11.221  16.622  0.00  0.00    +0.000 C 
BRANCH  25  27
ATOM     26  C   UNL     1      -3.212  10.149  14.653  0.00  0.00    +0.000 C 
ATOM     27  O   UNL     1      -2.923  11.152  15.619  0.00  0.00    +0.000 OA
ENDBRANCH  25  27
ENDBRANCH   1  25
TORSDOF 9
ENDMDL
MODEL 8
REMARK VINA RESULT:      -5.3      7.778     11.173
REMARK  Name = 
REMARK  16 active torsions:
REMARK  status: ('A' for Active; 'I' for Inactive)
REMARK    1  A    between atoms: C_1  and  O_2
REMARK    2  A    between atoms: O_2  and  C_3
REMARK    3  A    between atoms: C_3  and  C_4
REMARK    4  A    between atoms: C_6  and  C_7
REMARK    5  A    between atoms: C_8  and  O_9
REMARK    6  A    between atoms: O_9  and  C_10
REMARK    7  A    between atoms: C_12  and  O_13
REMARK    8  A    between atoms: O_13  and  C_14
REMARK    9  A    between atoms: C_16  and  O_17
REMARK   10  A    between atoms: O_17  and  C_18
REMARK   11  A    between atoms: C_19  and  O_20
REMARK   12  A    between atoms: O_20  and  C_21
REMARK   13  A    between atoms: C_22  and  O_23
REMARK   14  A    between atoms: O_23  and  C_24
REMARK   15  A    between atoms: C_25  and  O_26
REMARK   16  A    between atoms: O_26  and  C_27
REMARK                            x       y       z     vdW  Elec       q    Type
REMARK                         _______ _______ _______ _____ _____    ______ ____
ROOT
ATOM      1  C   UNL     1      -2.863  13.057  21.553  0.00  0.00    +0.000 C 
ATOM      2  O   UNL     1      -2.093  12.080  20.856  0.00  0.00    +0.000 OA
ATOM      3  C   UNL     1      -0.692  12.117  21.140  0.00  0.00    +0.000 C 
ATOM      4  C   UNL     1      -0.049  13.501  20.856  0.00  0.00    +0.000 C 
ATOM      5  C   UNL     1      -0.991  14.705  21.125  0.00  0.00    +0.000 C 
ATOM      6  C   UNL     1      -2.507  14.452  21.018  0.00  0.00    +0.000 C 
ENDROOT
BRANCH   3   7
ATOM      7  C   UNL     1       0.013  11.020  20.311  0.00  0.00    +0.000 A 
ATOM      8  C   UNL     1      -0.086  10.966  18.896  0.00  0.00    +0.000 A 
ATOM      9  C   UNL     1       0.540   9.931  18.190  0.00  0.00    +0.000 A 
ATOM     10  C   UNL     1       1.348   9.004  18.839  0.00  0.00    +0.000 A 
ATOM     11  C   UNL     1       1.496   9.070  20.217  0.00  0.00    +0.000 A 
ATOM     12  C   UNL     1       0.823  10.054  20.961  0.00  0.00    +0.000 A 
BRANCH   8  13
ATOM     13  O   UNL     1      -0.799  11.957  18.266  0.00  0.00    +0.000 OA
ATOM     14  C   UNL     1      -1.977  11.582  17.564  0.00  0.00    +0.000 C 
ENDBRANCH   8  13
BRANCH  10  15
ATOM     15  O   UNL     1       1.914   8.056  18.029  0.00  0.00    +0.000 OA
ATOM     16  C   UNL     1       2.604   7.012  18.704  0.00  0.00    +0.000 C 
ENDBRANCH  10  15
BRANCH  12  17
ATOM     17  O   UNL     1       0.924  10.150  22.328  0.00  0.00    +0.000 OA
ATOM     18  C   UNL     1       0.030   9.370  23.114  0.00  0.00    +0.000 C 
ENDBRANCH  12  17
ENDBRANCH   3   7
BRANCH   4  19
ATOM     19  O   UNL     1       1.155  13.605  21.660  0.00  0.00    +0.000 OA
ATOM     20  C   UNL     1       2.366  13.768  20.937  0.00  0.00    +0.000 C 
ENDBRANCH   4  19
BRANCH   5  21
ATOM     21  O   UNL     1      -0.593  15.836  20.289  0.00  0.00    +0.000 OA
ATOM     22  C   UNL     1      -0.282  15.516  18.932  0.00  0.00    +0.000 C 
ENDBRANCH   5  21
BRANCH   6  23
ATOM     23  O   UNL     1      -3.288  15.416  21.762  0.00  0.00    +0.000 OA
ATOM     24  C   UNL     1      -2.847  15.638  23.096  0.00  0.00    +0.000 C 
ENDBRANCH   6  23
BRANCH   1  25
ATOM     25  C   UNL     1      -4.355  12.769  21.289  0.00  0.00    +0.000 C 
BRANCH  25  27
ATOM     26  C   UNL     1      -6.281  13.153  22.593  0.00  0.00    +0.000 C 
ATOM     27  O   UNL     1      -5.037  12.468  22.512  0.00  0.00    +0.000 OA
ENDBRANCH  25  27
ENDBRANCH   1  25
TORSDOF 9
ENDMDL
MODEL 9
REMARK VINA RESULT:      -5.3      8.097     11.407
REMARK  Name = 
REMARK  16 active torsions:
REMARK  status: ('A' for Active; 'I' for Inactive)
REMARK    1  A    between atoms: C_1  and  O_2
REMARK    2  A    between atoms: O_2  and  C_3
REMARK    3  A    between atoms: C_3  and  C_4
REMARK    4  A    between atoms: C_6  and  C_7
REMARK    5  A    between atoms: C_8  and  O_9
REMARK    6  A    between atoms: O_9  and  C_10
REMARK    7  A    between atoms: C_12  and  O_13
REMARK    8  A    between atoms: O_13  and  C_14
REMARK    9  A    between atoms: C_16  and  O_17
REMARK   10  A    between atoms: O_17  and  C_18
REMARK   11  A    between atoms: C_19  and  O_20
REMARK   12  A    between atoms: O_20  and  C_21
REMARK   13  A    between atoms: C_22  and  O_23
REMARK   14  A    between atoms: O_23  and  C_24
REMARK   15  A    between atoms: C_25  and  O_26
REMARK   16  A    between atoms: O_26  and  C_27
REMARK                            x       y       z     vdW  Elec       q    Type
REMARK                         _______ _______ _______ _____ _____    ______ ____
ROOT
ATOM      1  C   UNL     1      -3.483  11.325  18.084  0.00  0.00    +0.000 C 
ATOM      2  O   UNL     1      -2.163  11.857  17.980  0.00  0.00    +0.000 OA
ATOM      3  C   UNL     1      -1.394  11.772  19.182  0.00  0.00    +0.000 C 
ATOM      4  C   UNL     1      -2.078  12.462  20.393  0.00  0.00    +0.000 C 
ATOM      5  C   UNL     1      -3.628  12.375  20.382  0.00  0.00    +0.000 C 
ATOM      6  C   UNL     1      -4.315  12.223  19.012  0.00  0.00    +0.000 C 
ENDROOT
BRANCH   3   7
ATOM      7  C   UNL     1      -0.003  12.395  18.929  0.00  0.00    +0.000 A 
ATOM      8  C   UNL     1       1.123  11.606  18.578  0.00  0.00    +0.000 A 
ATOM      9  C   UNL     1       2.373  12.211  18.395  0.00  0.00    +0.000 A 
ATOM     10  C   UNL     1       2.517  13.592  18.451  0.00  0.00    +0.000 A 
ATOM     11  C   UNL     1       1.416  14.385  18.745  0.00  0.00    +0.000 A 
ATOM     12  C   UNL     1       0.165  13.802  19.003  0.00  0.00    +0.000 A 
BRANCH   8  13
ATOM     13  O   UNL     1       0.932  10.254  18.420  0.00  0.00    +0.000 OA
ATOM     14  C   UNL     1       2.004   9.494  17.876  0.00  0.00    +0.000 C 
ENDBRANCH   8  13
BRANCH  10  15
ATOM     15  O   UNL     1       3.787  14.055  18.237  0.00  0.00    +0.000 OA
ATOM     16  C   UNL     1       3.875  15.351  17.658  0.00  0.00    +0.000 C 
ENDBRANCH  10  15
BRANCH  12  17
ATOM     17  O   UNL     1      -0.949  14.542  19.317  0.00  0.00    +0.000 OA
ATOM     18  C   UNL     1      -0.760  15.907  19.670  0.00  0.00    +0.000 C 
ENDBRANCH  12  17
ENDBRANCH   3   7
BRANCH   4  19
ATOM     19  O   UNL     1      -1.542  11.868  21.604  0.00  0.00    +0.000 OA
ATOM     20  C   UNL     1      -0.974  12.776  22.536  0.00  0.00    +0.000 C 
ENDBRANCH   4  19
BRANCH   5  21
ATOM     21  O   UNL     1      -4.189  13.502  21.122  0.00  0.00    +0.000 OA
ATOM     22  C   UNL     1      -4.871  13.164  22.331  0.00  0.00    +0.000 C 
ENDBRANCH   5  21
BRANCH   6  23
ATOM     23  O   UNL     1      -5.636  11.640  19.111  0.00  0.00    +0.000 OA
ATOM     24  C   UNL     1      -6.707  12.559  18.939  0.00  0.00    +0.000 C 
ENDBRANCH   6  23
BRANCH   1  25
ATOM     25  C   UNL     1      -4.109  11.319  16.674  0.00  0.00    +0.000 C 
BRANCH  25  27
ATOM     26  C   UNL     1      -3.298  10.160  14.789  0.00  0.00    +0.000 C 
ATOM     27  O   UNL     1      -3.091  11.257  15.668  0.00  0.00    +0.000 OA
ENDBRANCH  25  27
ENDBRANCH   1  25
TORSDOF 9
ENDMDL
