MODEL 1
REMARK VINA RESULT:      -8.3      0.000      0.000
REMARK  Name = 
REMARK  7 active torsions:
REMARK  status: ('A' for Active; 'I' for Inactive)
REMARK    1  A    between atoms: C_1  and  C_2
REMARK    2  A    between atoms: C_5  and  N_6
REMARK    3  A    between atoms: C_7  and  C_9
REMARK    4  A    between atoms: C_9  and  N_10
REMARK    5  A    between atoms: N_10  and  C_11
REMARK    6  A    between atoms: C_12  and  C_14
REMARK    7  A    between atoms: C_16  and  C_17
REMARK                            x       y       z     vdW  Elec       q    Type
REMARK                         _______ _______ _______ _____ _____    ______ ____
ROOT
ATOM      1  N   UNL     1       4.754   5.438  18.643  0.00  0.00    +0.000 N 
ATOM      2  C   UNL     1       6.095   5.702  18.885  0.00  0.00    +0.000 C 
ATOM      3  O   UNL     1       6.746   5.285  19.843  0.00  0.00    +0.000 OA
ATOM      4  H   UNL     1       4.358   5.780  17.775  0.00  0.00    +0.000 HD
ENDROOT
BRANCH   1   9
ATOM      5  C   UNL     1       1.284   2.397  22.065  0.00  0.00    +0.000 C 
ATOM      6  C   UNL     1       2.178   3.197  21.165  0.00  0.00    +0.000 A 
ATOM      7  C   UNL     1       1.983   4.570  21.010  0.00  0.00    +0.000 A 
ATOM      8  C   UNL     1       2.822   5.322  20.181  0.00  0.00    +0.000 A 
ATOM      9  C   UNL     1       3.871   4.722  19.486  0.00  0.00    +0.000 A 
ATOM     10  C   UNL     1       4.054   3.339  19.619  0.00  0.00    +0.000 A 
ATOM     11  C   UNL     1       3.219   2.585  20.459  0.00  0.00    +0.000 A 
ENDBRANCH   1   9
BRANCH   2  12
ATOM     12  C   UNL     1       6.776   6.554  17.801  0.00  0.00    +0.000 C 
BRANCH  12  13
ATOM     13  N   UNL     1       6.413   6.110  16.455  0.00  0.00    +0.000 N 
ATOM     14  C   UNL     1       5.225   6.695  15.847  0.00  0.00    +0.000 C 
ATOM     15  C   UNL     1       7.126   5.038  15.906  0.00  0.00    +0.000 C 
ATOM     16  O   UNL     1       7.959   4.432  16.584  0.00  0.00    +0.000 OA
BRANCH  15  17
ATOM     17  C   UNL     1       6.881   4.637  14.512  0.00  0.00    +0.000 A 
ATOM     18  C   UNL     1       5.972   3.636  14.069  0.00  0.00    +0.000 A 
ATOM     19  C   UNL     1       6.145   3.580  12.709  0.00  0.00    +0.000 A 
ATOM     20  C   UNL     1       5.560   2.780  11.621  0.00  0.00    +0.000 C 
ATOM     21  O   UNL     1       7.092   4.482  12.346  0.00  0.00    +0.000 OA
ATOM     22  N   UNL     1       7.569   5.132  13.470  0.00  0.00    +0.000 NA
ENDBRANCH  15  17
ENDBRANCH  12  13
ENDBRANCH   2  12
TORSDOF 4
ENDMDL
MODEL 2
REMARK VINA RESULT:      -8.2      0.070      1.049
REMARK  Name = 
REMARK  7 active torsions:
REMARK  status: ('A' for Active; 'I' for Inactive)
REMARK    1  A    between atoms: C_1  and  C_2
REMARK    2  A    between atoms: C_5  and  N_6
REMARK    3  A    between atoms: C_7  and  C_9
REMARK    4  A    between atoms: C_9  and  N_10
REMARK    5  A    between atoms: N_10  and  C_11
REMARK    6  A    between atoms: C_12  and  C_14
REMARK    7  A    between atoms: C_16  and  C_17
REMARK                            x       y       z     vdW  Elec       q    Type
REMARK                         _______ _______ _______ _____ _____    ______ ____
ROOT
ATOM      1  N   UNL     1       4.733   5.403  18.628  0.00  0.00    +0.000 N 
ATOM      2  C   UNL     1       6.068   5.715  18.847  0.00  0.00    +0.000 C 
ATOM      3  O   UNL     1       6.755   5.304  19.782  0.00  0.00    +0.000 OA
ATOM      4  H   UNL     1       4.305   5.747  17.776  0.00  0.00    +0.000 HD
ENDROOT
BRANCH   1   9
ATOM      5  C   UNL     1       1.217   2.426  22.059  0.00  0.00    +0.000 C 
ATOM      6  C   UNL     1       2.147   3.198  21.171  0.00  0.00    +0.000 A 
ATOM      7  C   UNL     1       3.225   2.564  20.553  0.00  0.00    +0.000 A 
ATOM      8  C   UNL     1       4.088   3.277  19.713  0.00  0.00    +0.000 A 
ATOM      9  C   UNL     1       3.896   4.638  19.475  0.00  0.00    +0.000 A 
ATOM     10  C   UNL     1       2.829   5.283  20.115  0.00  0.00    +0.000 A 
ATOM     11  C   UNL     1       1.957   4.566  20.949  0.00  0.00    +0.000 A 
ENDBRANCH   1   9
BRANCH   2  12
ATOM     12  C   UNL     1       6.691   6.614  17.766  0.00  0.00    +0.000 C 
BRANCH  12  13
ATOM     13  N   UNL     1       6.359   6.151  16.418  0.00  0.00    +0.000 N 
ATOM     14  C   UNL     1       5.176   6.718  15.782  0.00  0.00    +0.000 C 
ATOM     15  C   UNL     1       7.093   5.082  15.895  0.00  0.00    +0.000 C 
ATOM     16  O   UNL     1       7.920   4.491  16.594  0.00  0.00    +0.000 OA
BRANCH  15  17
ATOM     17  C   UNL     1       6.878   4.664  14.501  0.00  0.00    +0.000 A 
ATOM     18  C   UNL     1       5.996   3.641  14.052  0.00  0.00    +0.000 A 
ATOM     19  C   UNL     1       6.192   3.577  12.695  0.00  0.00    +0.000 A 
ATOM     20  C   UNL     1       5.640   2.756  11.605  0.00  0.00    +0.000 C 
ATOM     21  O   UNL     1       7.127   4.494  12.339  0.00  0.00    +0.000 OA
ATOM     22  N   UNL     1       7.573   5.163  13.465  0.00  0.00    +0.000 NA
ENDBRANCH  15  17
ENDBRANCH  12  13
ENDBRANCH   2  12
TORSDOF 4
ENDMDL
MODEL 3
REMARK VINA RESULT:      -7.8      3.039      4.704
REMARK  Name = 
REMARK  7 active torsions:
REMARK  status: ('A' for Active; 'I' for Inactive)
REMARK    1  A    between atoms: C_1  and  C_2
REMARK    2  A    between atoms: C_5  and  N_6
REMARK    3  A    between atoms: C_7  and  C_9
REMARK    4  A    between atoms: C_9  and  N_10
REMARK    5  A    between atoms: N_10  and  C_11
REMARK    6  A    between atoms: C_12  and  C_14
REMARK    7  A    between atoms: C_16  and  C_17
REMARK                            x       y       z     vdW  Elec       q    Type
REMARK                         _______ _______ _______ _____ _____    ______ ____
ROOT
ATOM      1  N   UNL     1       2.974   6.319  19.556  0.00  0.00    +0.000 N 
ATOM      2  C   UNL     1       2.520   5.099  20.037  0.00  0.00    +0.000 C 
ATOM      3  O   UNL     1       1.357   4.839  20.348  0.00  0.00    +0.000 OA
ATOM      4  H   UNL     1       3.943   6.377  19.264  0.00  0.00    +0.000 HD
ENDROOT
BRANCH   1   9
ATOM      5  C   UNL     1      -0.106  11.153  19.169  0.00  0.00    +0.000 C 
ATOM      6  C   UNL     1       0.690   9.885  19.258  0.00  0.00    +0.000 A 
ATOM      7  C   UNL     1       1.308   9.355  18.125  0.00  0.00    +0.000 A 
ATOM      8  C   UNL     1       2.062   8.180  18.206  0.00  0.00    +0.000 A 
ATOM      9  C   UNL     1       2.215   7.505  19.417  0.00  0.00    +0.000 A 
ATOM     10  C   UNL     1       1.574   8.021  20.552  0.00  0.00    +0.000 A 
ATOM     11  C   UNL     1       0.825   9.206  20.473  0.00  0.00    +0.000 A 
ENDBRANCH   1   9
BRANCH   2  12
ATOM     12  C   UNL     1       3.603   4.010  20.119  0.00  0.00    +0.000 C 
BRANCH  12  13
ATOM     13  N   UNL     1       4.354   3.897  18.868  0.00  0.00    +0.000 N 
ATOM     14  C   UNL     1       3.930   2.879  17.915  0.00  0.00    +0.000 C 
ATOM     15  C   UNL     1       5.524   4.652  18.738  0.00  0.00    +0.000 C 
ATOM     16  O   UNL     1       5.952   5.308  19.691  0.00  0.00    +0.000 OA
BRANCH  15  17
ATOM     17  C   UNL     1       6.244   4.665  17.455  0.00  0.00    +0.000 A 
ATOM     18  C   UNL     1       5.660   4.747  16.159  0.00  0.00    +0.000 A 
ATOM     19  C   UNL     1       6.718   4.658  15.290  0.00  0.00    +0.000 A 
ATOM     20  C   UNL     1       6.858   4.659  13.825  0.00  0.00    +0.000 C 
ATOM     21  O   UNL     1       7.866   4.530  16.001  0.00  0.00    +0.000 OA
ATOM     22  N   UNL     1       7.575   4.515  17.354  0.00  0.00    +0.000 NA
ENDBRANCH  15  17
ENDBRANCH  12  13
ENDBRANCH   2  12
TORSDOF 4
ENDMDL
MODEL 4
REMARK VINA RESULT:      -7.7      2.973      4.530
REMARK  Name = 
REMARK  7 active torsions:
REMARK  status: ('A' for Active; 'I' for Inactive)
REMARK    1  A    between atoms: C_1  and  C_2
REMARK    2  A    between atoms: C_5  and  N_6
REMARK    3  A    between atoms: C_7  and  C_9
REMARK    4  A    between atoms: C_9  and  N_10
REMARK    5  A    between atoms: N_10  and  C_11
REMARK    6  A    between atoms: C_12  and  C_14
REMARK    7  A    between atoms: C_16  and  C_17
REMARK                            x       y       z     vdW  Elec       q    Type
REMARK                         _______ _______ _______ _____ _____    ______ ____
ROOT
ATOM      1  N   UNL     1       3.088   6.187  19.406  0.00  0.00    +0.000 N 
ATOM      2  C   UNL     1       2.689   5.018  20.040  0.00  0.00    +0.000 C 
ATOM      3  O   UNL     1       1.588   4.824  20.556  0.00  0.00    +0.000 OA
ATOM      4  H   UNL     1       3.996   6.190  18.955  0.00  0.00    +0.000 HD
ENDROOT
BRANCH   1   9
ATOM      5  C   UNL     1       0.082  11.051  18.851  0.00  0.00    +0.000 C 
ATOM      6  C   UNL     1       0.875   9.787  19.008  0.00  0.00    +0.000 A 
ATOM      7  C   UNL     1       0.976   9.164  20.252  0.00  0.00    +0.000 A 
ATOM      8  C   UNL     1       1.703   7.978  20.400  0.00  0.00    +0.000 A 
ATOM      9  C   UNL     1       2.348   7.390  19.313  0.00  0.00    +0.000 A 
ATOM     10  C   UNL     1       2.269   8.028  18.067  0.00  0.00    +0.000 A 
ATOM     11  C   UNL     1       1.531   9.212  17.915  0.00  0.00    +0.000 A 
ENDBRANCH   1   9
BRANCH   2  12
ATOM     12  C   UNL     1       3.741   3.897  20.016  0.00  0.00    +0.000 C 
BRANCH  12  13
ATOM     13  N   UNL     1       4.408   3.806  18.717  0.00  0.00    +0.000 N 
ATOM     14  C   UNL     1       3.860   2.874  17.740  0.00  0.00    +0.000 C 
ATOM     15  C   UNL     1       5.618   4.489  18.555  0.00  0.00    +0.000 C 
ATOM     16  O   UNL     1       6.145   5.060  19.513  0.00  0.00    +0.000 OA
BRANCH  15  17
ATOM     17  C   UNL     1       6.261   4.528  17.232  0.00  0.00    +0.000 A 
ATOM     18  C   UNL     1       5.612   4.390  15.973  0.00  0.00    +0.000 A 
ATOM     19  C   UNL     1       6.625   4.427  15.048  0.00  0.00    +0.000 A 
ATOM     20  C   UNL     1       6.694   4.331  13.581  0.00  0.00    +0.000 C 
ATOM     21  O   UNL     1       7.809   4.576  15.694  0.00  0.00    +0.000 OA
ATOM     22  N   UNL     1       7.590   4.621  17.060  0.00  0.00    +0.000 NA
ENDBRANCH  15  17
ENDBRANCH  12  13
ENDBRANCH   2  12
TORSDOF 4
ENDMDL
MODEL 5
REMARK VINA RESULT:      -7.6      3.009      4.163
REMARK  Name = 
REMARK  7 active torsions:
REMARK  status: ('A' for Active; 'I' for Inactive)
REMARK    1  A    between atoms: C_1  and  C_2
REMARK    2  A    between atoms: C_5  and  N_6
REMARK    3  A    between atoms: C_7  and  C_9
REMARK    4  A    between atoms: C_9  and  N_10
REMARK    5  A    between atoms: N_10  and  C_11
REMARK    6  A    between atoms: C_12  and  C_14
REMARK    7  A    between atoms: C_16  and  C_17
REMARK                            x       y       z     vdW  Elec       q    Type
REMARK                         _______ _______ _______ _____ _____    ______ ____
ROOT
ATOM      1  N   UNL     1       3.232   6.607  19.074  0.00  0.00    +0.000 N 
ATOM      2  C   UNL     1       3.099   5.345  19.636  0.00  0.00    +0.000 C 
ATOM      3  O   UNL     1       2.115   4.937  20.254  0.00  0.00    +0.000 OA
ATOM      4  H   UNL     1       4.064   6.790  18.524  0.00  0.00    +0.000 HD
ENDROOT
BRANCH   1   9
ATOM      5  C   UNL     1      -0.480  10.949  19.682  0.00  0.00    +0.000 C 
ATOM      6  C   UNL     1       0.481   9.810  19.511  0.00  0.00    +0.000 A 
ATOM      7  C   UNL     1       1.041   9.537  18.263  0.00  0.00    +0.000 A 
ATOM      8  C   UNL     1       1.948   8.484  18.102  0.00  0.00    +0.000 A 
ATOM      9  C   UNL     1       2.313   7.678  19.180  0.00  0.00    +0.000 A 
ATOM     10  C   UNL     1       1.732   7.935  20.430  0.00  0.00    +0.000 A 
ATOM     11  C   UNL     1       0.831   8.998  20.594  0.00  0.00    +0.000 A 
ENDBRANCH   1   9
BRANCH   2  12
ATOM     12  C   UNL     1       4.297   4.414  19.387  0.00  0.00    +0.000 C 
BRANCH  12  13
ATOM     13  N   UNL     1       4.670   4.377  17.972  0.00  0.00    +0.000 N 
ATOM     14  C   UNL     1       3.654   3.956  17.015  0.00  0.00    +0.000 C 
ATOM     15  C   UNL     1       6.015   4.584  17.646  0.00  0.00    +0.000 C 
ATOM     16  O   UNL     1       6.863   4.691  18.536  0.00  0.00    +0.000 OA
BRANCH  15  17
ATOM     17  C   UNL     1       6.415   4.679  16.234  0.00  0.00    +0.000 A 
ATOM     18  C   UNL     1       5.989   3.828  15.176  0.00  0.00    +0.000 A 
ATOM     19  C   UNL     1       6.677   4.266  14.072  0.00  0.00    +0.000 A 
ATOM     20  C   UNL     1       6.743   3.854  12.660  0.00  0.00    +0.000 C 
ATOM     21  O   UNL     1       7.467   5.310  14.429  0.00  0.00    +0.000 OA
ATOM     22  N   UNL     1       7.323   5.561  15.782  0.00  0.00    +0.000 NA
ENDBRANCH  15  17
ENDBRANCH  12  13
ENDBRANCH   2  12
TORSDOF 4
ENDMDL
MODEL 6
REMARK VINA RESULT:      -7.3      3.151      4.416
REMARK  Name = 
REMARK  7 active torsions:
REMARK  status: ('A' for Active; 'I' for Inactive)
REMARK    1  A    between atoms: C_1  and  C_2
REMARK    2  A    between atoms: C_5  and  N_6
REMARK    3  A    between atoms: C_7  and  C_9
REMARK    4  A    between atoms: C_9  and  N_10
REMARK    5  A    between atoms: N_10  and  C_11
REMARK    6  A    between atoms: C_12  and  C_14
REMARK    7  A    between atoms: C_16  and  C_17
REMARK                            x       y       z     vdW  Elec       q    Type
REMARK                         _______ _______ _______ _____ _____    ______ ____
ROOT
ATOM      1  N   UNL     1       2.863   6.672  19.675  0.00  0.00    +0.000 N 
ATOM      2  C   UNL     1       2.587   5.332  19.905  0.00  0.00    +0.000 C 
ATOM      3  O   UNL     1       1.487   4.869  20.210  0.00  0.00    +0.000 OA
ATOM      4  H   UNL     1       3.794   6.911  19.355  0.00  0.00    +0.000 HD
ENDROOT
BRANCH   1   9
ATOM      5  C   UNL     1      -0.782  11.088  20.142  0.00  0.00    +0.000 C 
ATOM      6  C   UNL     1       0.177   9.940  20.034  0.00  0.00    +0.000 A 
ATOM      7  C   UNL     1       0.410   9.105  21.127  0.00  0.00    +0.000 A 
ATOM      8  C   UNL     1       1.293   8.025  21.025  0.00  0.00    +0.000 A 
ATOM      9  C   UNL     1       1.966   7.756  19.834  0.00  0.00    +0.000 A 
ATOM     10  C   UNL     1       1.754   8.609  18.742  0.00  0.00    +0.000 A 
ATOM     11  C   UNL     1       0.859   9.686  18.839  0.00  0.00    +0.000 A 
ENDBRANCH   1   9
BRANCH   2  12
ATOM     12  C   UNL     1       3.789   4.395  19.695  0.00  0.00    +0.000 C 
BRANCH  12  13
ATOM     13  N   UNL     1       4.182   4.325  18.287  0.00  0.00    +0.000 N 
ATOM     14  C   UNL     1       3.288   3.631  17.369  0.00  0.00    +0.000 C 
ATOM     15  C   UNL     1       5.461   4.776  17.943  0.00  0.00    +0.000 C 
ATOM     16  O   UNL     1       6.256   5.123  18.820  0.00  0.00    +0.000 OA
BRANCH  15  17
ATOM     17  C   UNL     1       5.854   4.839  16.527  0.00  0.00    +0.000 A 
ATOM     18  C   UNL     1       5.656   3.824  15.549  0.00  0.00    +0.000 A 
ATOM     19  C   UNL     1       6.244   4.314  14.410  0.00  0.00    +0.000 A 
ATOM     20  C   UNL     1       6.429   3.809  13.040  0.00  0.00    +0.000 C 
ATOM     21  O   UNL     1       6.764   5.539  14.671  0.00  0.00    +0.000 OA
ATOM     22  N   UNL     1       6.541   5.865  15.997  0.00  0.00    +0.000 NA
ENDBRANCH  15  17
ENDBRANCH  12  13
ENDBRANCH   2  12
TORSDOF 4
ENDMDL
MODEL 7
REMARK VINA RESULT:      -7.2      3.582      4.868
REMARK  Name = 
REMARK  7 active torsions:
REMARK  status: ('A' for Active; 'I' for Inactive)
REMARK    1  A    between atoms: C_1  and  C_2
REMARK    2  A    between atoms: C_5  and  N_6
REMARK    3  A    between atoms: C_7  and  C_9
REMARK    4  A    between atoms: C_9  and  N_10
REMARK    5  A    between atoms: N_10  and  C_11
REMARK    6  A    between atoms: C_12  and  C_14
REMARK    7  A    between atoms: C_16  and  C_17
REMARK                            x       y       z     vdW  Elec       q    Type
REMARK                         _______ _______ _______ _____ _____    ______ ____
ROOT
ATOM      1  N   UNL     1       2.414   7.136  20.281  0.00  0.00    +0.000 N 
ATOM      2  C   UNL     1       2.090   5.791  20.387  0.00  0.00    +0.000 C 
ATOM      3  O   UNL     1       0.979   5.343  20.673  0.00  0.00    +0.000 OA
ATOM      4  H   UNL     1       3.348   7.370  19.963  0.00  0.00    +0.000 HD
ENDROOT
BRANCH   1   9
ATOM      5  C   UNL     1      -0.992  11.569  21.603  0.00  0.00    +0.000 C 
ATOM      6  C   UNL     1      -0.113  10.408  21.247  0.00  0.00    +0.000 A 
ATOM      7  C   UNL     1       0.277  10.193  19.924  0.00  0.00    +0.000 A 
ATOM      8  C   UNL     1       1.108   9.119  19.589  0.00  0.00    +0.000 A 
ATOM      9  C   UNL     1       1.565   8.233  20.564  0.00  0.00    +0.000 A 
ATOM     10  C   UNL     1       1.155   8.431  21.890  0.00  0.00    +0.000 A 
ATOM     11  C   UNL     1       0.330   9.515  22.228  0.00  0.00    +0.000 A 
ENDBRANCH   1   9
BRANCH   2  12
ATOM     12  C   UNL     1       3.248   4.835  20.061  0.00  0.00    +0.000 C 
BRANCH  12  13
ATOM     13  N   UNL     1       3.577   4.848  18.634  0.00  0.00    +0.000 N 
ATOM     14  C   UNL     1       2.472   4.788  17.686  0.00  0.00    +0.000 C 
ATOM     15  C   UNL     1       4.925   4.749  18.274  0.00  0.00    +0.000 C 
ATOM     16  O   UNL     1       5.788   4.555  19.133  0.00  0.00    +0.000 OA
BRANCH  15  17
ATOM     17  C   UNL     1       5.313   4.882  16.861  0.00  0.00    +0.000 A 
ATOM     18  C   UNL     1       5.585   3.817  15.956  0.00  0.00    +0.000 A 
ATOM     19  C   UNL     1       5.964   4.435  14.790  0.00  0.00    +0.000 A 
ATOM     20  C   UNL     1       6.393   3.968  13.462  0.00  0.00    +0.000 C 
ATOM     21  O   UNL     1       5.927   5.779  14.969  0.00  0.00    +0.000 OA
ATOM     22  N   UNL     1       5.539   6.065  16.265  0.00  0.00    +0.000 NA
ENDBRANCH  15  17
ENDBRANCH  12  13
ENDBRANCH   2  12
TORSDOF 4
ENDMDL
MODEL 8
REMARK VINA RESULT:      -7.1      3.129      4.453
REMARK  Name = 
REMARK  7 active torsions:
REMARK  status: ('A' for Active; 'I' for Inactive)
REMARK    1  A    between atoms: C_1  and  C_2
REMARK    2  A    between atoms: C_5  and  N_6
REMARK    3  A    between atoms: C_7  and  C_9
REMARK    4  A    between atoms: C_9  and  N_10
REMARK    5  A    between atoms: N_10  and  C_11
REMARK    6  A    between atoms: C_12  and  C_14
REMARK    7  A    between atoms: C_16  and  C_17
REMARK                            x       y       z     vdW  Elec       q    Type
REMARK                         _______ _______ _______ _____ _____    ______ ____
ROOT
ATOM      1  N   UNL     1       3.060   6.379  19.634  0.00  0.00    +0.000 N 
ATOM      2  C   UNL     1       2.673   5.046  19.650  0.00  0.00    +0.000 C 
ATOM      3  O   UNL     1       1.512   4.637  19.630  0.00  0.00    +0.000 OA
ATOM      4  H   UNL     1       4.052   6.579  19.576  0.00  0.00    +0.000 HD
ENDROOT
BRANCH   1   9
ATOM      5  C   UNL     1      -0.410  10.958  19.648  0.00  0.00    +0.000 C 
ATOM      6  C   UNL     1       0.503   9.767  19.657  0.00  0.00    +0.000 A 
ATOM      7  C   UNL     1       0.637   8.987  20.806  0.00  0.00    +0.000 A 
ATOM      8  C   UNL     1       1.477   7.868  20.815  0.00  0.00    +0.000 A 
ATOM      9  C   UNL     1       2.204   7.505  19.681  0.00  0.00    +0.000 A 
ATOM     10  C   UNL     1       2.091   8.303  18.534  0.00  0.00    +0.000 A 
ATOM     11  C   UNL     1       1.240   9.419  18.521  0.00  0.00    +0.000 A 
ENDBRANCH   1   9
BRANCH   2  12
ATOM     12  C   UNL     1       3.844   4.049  19.643  0.00  0.00    +0.000 C 
BRANCH  12  13
ATOM     13  N   UNL     1       4.893   4.452  18.705  0.00  0.00    +0.000 N 
ATOM     14  C   UNL     1       5.967   5.295  19.214  0.00  0.00    +0.000 C 
ATOM     15  C   UNL     1       4.713   4.144  17.353  0.00  0.00    +0.000 C 
ATOM     16  O   UNL     1       3.656   3.642  16.963  0.00  0.00    +0.000 OA
BRANCH  15  17
ATOM     17  C   UNL     1       5.795   4.418  16.393  0.00  0.00    +0.000 A 
ATOM     18  C   UNL     1       5.644   4.672  15.001  0.00  0.00    +0.000 A 
ATOM     19  C   UNL     1       6.926   4.801  14.526  0.00  0.00    +0.000 A 
ATOM     20  C   UNL     1       7.520   5.053  13.204  0.00  0.00    +0.000 C 
ATOM     21  O   UNL     1       7.797   4.636  15.553  0.00  0.00    +0.000 OA
ATOM     22  N   UNL     1       7.098   4.378  16.719  0.00  0.00    +0.000 NA
ENDBRANCH  15  17
ENDBRANCH  12  13
ENDBRANCH   2  12
TORSDOF 4
ENDMDL
MODEL 9
REMARK VINA RESULT:      -7.0      3.428      4.520
REMARK  Name = 
REMARK  7 active torsions:
REMARK  status: ('A' for Active; 'I' for Inactive)
REMARK    1  A    between atoms: C_1  and  C_2
REMARK    2  A    between atoms: C_5  and  N_6
REMARK    3  A    between atoms: C_7  and  C_9
REMARK    4  A    between atoms: C_9  and  N_10
REMARK    5  A    between atoms: N_10  and  C_11
REMARK    6  A    between atoms: C_12  and  C_14
REMARK    7  A    between atoms: C_16  and  C_17
REMARK                            x       y       z     vdW  Elec       q    Type
REMARK                         _______ _______ _______ _____ _____    ______ ____
ROOT
ATOM      1  N   UNL     1       2.795   7.336  19.766  0.00  0.00    +0.000 N 
ATOM      2  C   UNL     1       2.912   6.205  18.971  0.00  0.00    +0.000 C 
ATOM      3  O   UNL     1       2.154   5.894  18.051  0.00  0.00    +0.000 OA
ATOM      4  H   UNL     1       3.531   7.514  20.440  0.00  0.00    +0.000 HD
ENDROOT
BRANCH   1   9
ATOM      5  C   UNL     1      -1.446  11.198  19.443  0.00  0.00    +0.000 C 
ATOM      6  C   UNL     1      -0.334  10.196  19.541  0.00  0.00    +0.000 A 
ATOM      7  C   UNL     1      -0.130   9.476  20.719  0.00  0.00    +0.000 A 
ATOM      8  C   UNL     1       0.898   8.531  20.809  0.00  0.00    +0.000 A 
ATOM      9  C   UNL     1       1.746   8.286  19.730  0.00  0.00    +0.000 A 
ATOM     10  C   UNL     1       1.560   9.027  18.555  0.00  0.00    +0.000 A 
ATOM     11  C   UNL     1       0.522   9.967  18.459  0.00  0.00    +0.000 A 
ENDBRANCH   1   9
BRANCH   2  12
ATOM     12  C   UNL     1       4.140   5.336  19.286  0.00  0.00    +0.000 C 
BRANCH  12  13
ATOM     13  N   UNL     1       4.774   4.829  18.068  0.00  0.00    +0.000 N 
ATOM     14  C   UNL     1       4.644   3.406  17.780  0.00  0.00    +0.000 C 
ATOM     15  C   UNL     1       5.599   5.700  17.349  0.00  0.00    +0.000 C 
ATOM     16  O   UNL     1       5.856   6.822  17.793  0.00  0.00    +0.000 OA
BRANCH  15  17
ATOM     17  C   UNL     1       6.157   5.275  16.056  0.00  0.00    +0.000 A 
ATOM     18  C   UNL     1       5.454   4.617  15.008  0.00  0.00    +0.000 A 
ATOM     19  C   UNL     1       6.403   4.371  14.048  0.00  0.00    +0.000 A 
ATOM     20  C   UNL     1       6.396   3.723  12.726  0.00  0.00    +0.000 C 
ATOM     21  O   UNL     1       7.600   4.843  14.477  0.00  0.00    +0.000 OA
ATOM     22  N   UNL     1       7.457   5.393  15.739  0.00  0.00    +0.000 NA
ENDBRANCH  15  17
ENDBRANCH  12  13
ENDBRANCH   2  12
TORSDOF 4
ENDMDL
