MODEL 1
REMARK VINA RESULT:      -8.9      0.000      0.000
REMARK  Name = 
REMARK  10 active torsions:
REMARK  status: ('A' for Active; 'I' for Inactive)
REMARK    1  A    between atoms: C_1  and  O_2
REMARK    2  A    between atoms: O_2  and  C_3
REMARK    3  A    between atoms: C_5  and  N_6
REMARK    4  A    between atoms: N_6  and  S_7
REMARK    5  A    between atoms: S_7  and  C_8
REMARK    6  A    between atoms: C_13  and  N_14
REMARK    7  A    between atoms: N_14  and  C_15
REMARK    8  A    between atoms: C_24  and  C_25
REMARK    9  A    between atoms: C_26  and  C_27
REMARK   10  A    between atoms: C_28  and  N_29
REMARK                            x       y       z     vdW  Elec       q    Type
REMARK                         _______ _______ _______ _____ _____    ______ ____
ROOT
ATOM      1  C   UNL     1       3.425   6.269  18.918  0.00  0.00    +0.000 A 
ATOM      2  C   UNL     1       4.590   6.174  17.938  0.00  0.00    +0.000 A 
ATOM      3  C   UNL     1       4.745   6.431  16.529  0.00  0.00    +0.000 A 
ATOM      4  C   UNL     1       5.895   5.998  15.794  0.00  0.00    +0.000 A 
ATOM      5  C   UNL     1       7.001   5.457  16.438  0.00  0.00    +0.000 A 
ATOM      6  C   UNL     1       6.893   5.209  17.789  0.00  0.00    +0.000 A 
ATOM      7  C   UNL     1       5.676   5.400  18.421  0.00  0.00    +0.000 A 
ATOM      8  N   UNL     1       5.464   4.511  19.362  0.00  0.00    +0.000 NA
ATOM      9  C   UNL     1       4.181   4.223  19.505  0.00  0.00    +0.000 A 
ATOM     10  C   UNL     1       3.465   3.370  18.616  0.00  0.00    +0.000 A 
ATOM     11  C   UNL     1       4.151   2.792  17.390  0.00  0.00    +0.000 C 
ATOM     12  C   UNL     1       2.059   3.427  18.661  0.00  0.00    +0.000 A 
ATOM     13  C   UNL     1       1.349   3.772  17.353  0.00  0.00    +0.000 C 
ATOM     14  C   UNL     1       1.498   3.924  19.852  0.00  0.00    +0.000 A 
ATOM     15  C   UNL     1       2.269   4.838  20.552  0.00  0.00    +0.000 A 
ATOM     16  C   UNL     1       3.413   5.266  19.920  0.00  0.00    +0.000 A 
ENDROOT
BRANCH  14  17
ATOM     17  N   UNL     1       0.494   3.248  20.527  0.00  0.00    +0.000 N 
ATOM     18  H   UNL     1       0.726   2.986  21.476  0.00  0.00    +0.000 HD
ATOM     19  H   UNL     1       0.079   2.488  19.993  0.00  0.00    +0.000 HD
ENDBRANCH  14  17
BRANCH   1  20
ATOM     20  N   UNL     1       2.295   7.190  18.751  0.00  0.00    +0.000 N 
ATOM     21  H   UNL     1       1.504   6.624  18.447  0.00  0.00    +0.000 HD
BRANCH  20  27
ATOM     22  C   UNL     1       1.531   9.681  19.073  0.00  0.00    +0.000 A 
ATOM     23  C   UNL     1       0.819  10.608  19.914  0.00  0.00    +0.000 A 
ATOM     24  C   UNL     1       0.394  10.298  21.199  0.00  0.00    +0.000 A 
ATOM     25  C   UNL     1       0.757   9.064  21.697  0.00  0.00    +0.000 A 
ATOM     26  C   UNL     1       1.418   8.112  20.865  0.00  0.00    +0.000 A 
ATOM     27  C   UNL     1       1.766   8.343  19.493  0.00  0.00    +0.000 A 
BRANCH  22  29
ATOM     28  C   UNL     1       2.334  11.739  18.016  0.00  0.00    +0.000 C 
ATOM     29  O   UNL     1       1.931  10.394  17.983  0.00  0.00    +0.000 OA
ENDBRANCH  22  29
BRANCH  24  30
ATOM     30  N   UNL     1      -0.482  11.157  21.937  0.00  0.00    +0.000 N 
ATOM     31  H   UNL     1      -1.470  10.898  21.887  0.00  0.00    +0.000 HD
BRANCH  30  32
ATOM     32  S   UNL     1      -0.413  12.850  21.736  0.00  0.00    +0.000 S 
ATOM     33  C   UNL     1      -1.224  13.402  23.220  0.00  0.00    +0.000 C 
ATOM     34  O   UNL     1       0.962  13.293  21.752  0.00  0.00    +0.000 OA
ATOM     35  O   UNL     1      -1.279  13.129  20.635  0.00  0.00    +0.000 OA
ENDBRANCH  30  32
ENDBRANCH  24  30
ENDBRANCH  20  27
ENDBRANCH   1  20
TORSDOF 6
ENDMDL
MODEL 2
REMARK VINA RESULT:      -8.8      1.540      3.750
REMARK  Name = 
REMARK  10 active torsions:
REMARK  status: ('A' for Active; 'I' for Inactive)
REMARK    1  A    between atoms: C_1  and  O_2
REMARK    2  A    between atoms: O_2  and  C_3
REMARK    3  A    between atoms: C_5  and  N_6
REMARK    4  A    between atoms: N_6  and  S_7
REMARK    5  A    between atoms: S_7  and  C_8
REMARK    6  A    between atoms: C_13  and  N_14
REMARK    7  A    between atoms: N_14  and  C_15
REMARK    8  A    between atoms: C_24  and  C_25
REMARK    9  A    between atoms: C_26  and  C_27
REMARK   10  A    between atoms: C_28  and  N_29
REMARK                            x       y       z     vdW  Elec       q    Type
REMARK                         _______ _______ _______ _____ _____    ______ ____
ROOT
ATOM      1  C   UNL     1       2.903   5.917  18.014  0.00  0.00    +0.000 A 
ATOM      2  C   UNL     1       2.115   4.894  18.826  0.00  0.00    +0.000 A 
ATOM      3  C   UNL     1       1.795   4.748  20.224  0.00  0.00    +0.000 A 
ATOM      4  C   UNL     1       1.260   3.534  20.762  0.00  0.00    +0.000 A 
ATOM      5  C   UNL     1       0.862   2.491  19.935  0.00  0.00    +0.000 A 
ATOM      6  C   UNL     1       1.141   2.602  18.591  0.00  0.00    +0.000 A 
ATOM      7  C   UNL     1       1.891   3.674  18.138  0.00  0.00    +0.000 A 
ATOM      8  N   UNL     1       2.685   3.338  17.149  0.00  0.00    +0.000 NA
ATOM      9  C   UNL     1       3.806   4.041  17.140  0.00  0.00    +0.000 A 
ATOM     10  C   UNL     1       4.895   3.789  18.025  0.00  0.00    +0.000 A 
ATOM     11  C   UNL     1       4.782   2.715  19.093  0.00  0.00    +0.000 C 
ATOM     12  C   UNL     1       5.861   4.805  18.162  0.00  0.00    +0.000 A 
ATOM     13  C   UNL     1       6.099   5.332  19.575  0.00  0.00    +0.000 C 
ATOM     14  C   UNL     1       5.940   5.729  17.104  0.00  0.00    +0.000 A 
ATOM     15  C   UNL     1       4.765   5.956  16.405  0.00  0.00    +0.000 A 
ATOM     16  C   UNL     1       3.635   5.373  16.928  0.00  0.00    +0.000 A 
ENDROOT
BRANCH  14  17
ATOM     17  N   UNL     1       7.145   6.048  16.498  0.00  0.00    +0.000 N 
ATOM     18  H   UNL     1       7.426   7.015  16.601  0.00  0.00    +0.000 HD
ATOM     19  H   UNL     1       7.228   5.707  15.545  0.00  0.00    +0.000 HD
ENDBRANCH  14  17
BRANCH   1  20
ATOM     20  N   UNL     1       3.063   7.321  18.410  0.00  0.00    +0.000 N 
ATOM     21  H   UNL     1       3.592   7.773  17.665  0.00  0.00    +0.000 HD
BRANCH  20  27
ATOM     22  C   UNL     1       1.802   9.618  18.564  0.00  0.00    +0.000 A 
ATOM     23  C   UNL     1       0.789  10.376  19.253  0.00  0.00    +0.000 A 
ATOM     24  C   UNL     1       0.205   9.961  20.441  0.00  0.00    +0.000 A 
ATOM     25  C   UNL     1       0.696   8.804  21.010  0.00  0.00    +0.000 A 
ATOM     26  C   UNL     1       1.663   8.012  20.320  0.00  0.00    +0.000 A 
ATOM     27  C   UNL     1       2.203   8.338  19.033  0.00  0.00    +0.000 A 
BRANCH  22  29
ATOM     28  C   UNL     1       2.573  11.779  17.707  0.00  0.00    +0.000 C 
ATOM     29  O   UNL     1       2.251  10.420  17.558  0.00  0.00    +0.000 OA
ENDBRANCH  22  29
BRANCH  24  30
ATOM     30  N   UNL     1      -0.935  10.624  21.000  0.00  0.00    +0.000 N 
ATOM     31  H   UNL     1      -1.461  11.195  20.335  0.00  0.00    +0.000 HD
BRANCH  30  32
ATOM     32  S   UNL     1      -0.789  11.549  22.427  0.00  0.00    +0.000 S 
ATOM     33  C   UNL     1      -2.437  12.204  22.576  0.00  0.00    +0.000 C 
ATOM     34  O   UNL     1      -0.517  10.685  23.551  0.00  0.00    +0.000 OA
ATOM     35  O   UNL     1       0.080  12.629  22.082  0.00  0.00    +0.000 OA
ENDBRANCH  30  32
ENDBRANCH  24  30
ENDBRANCH  20  27
ENDBRANCH   1  20
TORSDOF 6
ENDMDL
MODEL 3
REMARK VINA RESULT:      -8.8      1.651      2.207
REMARK  Name = 
REMARK  10 active torsions:
REMARK  status: ('A' for Active; 'I' for Inactive)
REMARK    1  A    between atoms: C_1  and  O_2
REMARK    2  A    between atoms: O_2  and  C_3
REMARK    3  A    between atoms: C_5  and  N_6
REMARK    4  A    between atoms: N_6  and  S_7
REMARK    5  A    between atoms: S_7  and  C_8
REMARK    6  A    between atoms: C_13  and  N_14
REMARK    7  A    between atoms: N_14  and  C_15
REMARK    8  A    between atoms: C_24  and  C_25
REMARK    9  A    between atoms: C_26  and  C_27
REMARK   10  A    between atoms: C_28  and  N_29
REMARK                            x       y       z     vdW  Elec       q    Type
REMARK                         _______ _______ _______ _____ _____    ______ ____
ROOT
ATOM      1  C   UNL     1       3.354   6.508  18.718  0.00  0.00    +0.000 A 
ATOM      2  C   UNL     1       4.547   6.367  17.779  0.00  0.00    +0.000 A 
ATOM      3  C   UNL     1       4.726   6.483  16.353  0.00  0.00    +0.000 A 
ATOM      4  C   UNL     1       5.913   6.031  15.693  0.00  0.00    +0.000 A 
ATOM      5  C   UNL     1       7.026   5.614  16.413  0.00  0.00    +0.000 A 
ATOM      6  C   UNL     1       6.894   5.503  17.780  0.00  0.00    +0.000 A 
ATOM      7  C   UNL     1       5.654   5.701  18.363  0.00  0.00    +0.000 A 
ATOM      8  N   UNL     1       5.459   4.905  19.387  0.00  0.00    +0.000 NA
ATOM      9  C   UNL     1       4.186   4.573  19.533  0.00  0.00    +0.000 A 
ATOM     10  C   UNL     1       3.534   3.597  18.724  0.00  0.00    +0.000 A 
ATOM     11  C   UNL     1       4.277   2.929  17.580  0.00  0.00    +0.000 C 
ATOM     12  C   UNL     1       2.125   3.592  18.734  0.00  0.00    +0.000 A 
ATOM     13  C   UNL     1       1.434   3.764  17.382  0.00  0.00    +0.000 C 
ATOM     14  C   UNL     1       1.512   4.182  19.854  0.00  0.00    +0.000 A 
ATOM     15  C   UNL     1       2.222   5.200  20.470  0.00  0.00    +0.000 A 
ATOM     16  C   UNL     1       3.361   5.614  19.820  0.00  0.00    +0.000 A 
ENDROOT
BRANCH  14  17
ATOM     17  N   UNL     1       0.522   3.533  20.574  0.00  0.00    +0.000 N 
ATOM     18  H   UNL     1      -0.278   3.243  20.026  0.00  0.00    +0.000 HD
ATOM     19  H   UNL     1       0.266   4.004  21.437  0.00  0.00    +0.000 HD
ENDBRANCH  14  17
BRANCH   1  20
ATOM     20  N   UNL     1       2.187   7.351  18.432  0.00  0.00    +0.000 N 
ATOM     21  H   UNL     1       1.393   6.720  18.332  0.00  0.00    +0.000 HD
BRANCH  20  27
ATOM     22  C   UNL     1       1.168   9.002  20.199  0.00  0.00    +0.000 A 
ATOM     23  C   UNL     1       0.908  10.379  20.530  0.00  0.00    +0.000 A 
ATOM     24  C   UNL     1       1.056  11.420  19.624  0.00  0.00    +0.000 A 
ATOM     25  C   UNL     1       1.390  11.081  18.330  0.00  0.00    +0.000 A 
ATOM     26  C   UNL     1       1.700   9.729  17.992  0.00  0.00    +0.000 A 
ATOM     27  C   UNL     1       1.681   8.640  18.924  0.00  0.00    +0.000 A 
BRANCH  22  29
ATOM     28  C   UNL     1      -0.291   8.663  22.138  0.00  0.00    +0.000 C 
ATOM     29  O   UNL     1       0.742   8.272  21.269  0.00  0.00    +0.000 OA
ENDBRANCH  22  29
BRANCH  24  30
ATOM     30  N   UNL     1       0.989  12.793  20.026  0.00  0.00    +0.000 N 
ATOM     31  H   UNL     1       0.384  13.376  19.442  0.00  0.00    +0.000 HD
BRANCH  30  32
ATOM     32  S   UNL     1       2.415  13.691  20.296  0.00  0.00    +0.000 S 
ATOM     33  C   UNL     1       1.752  15.332  20.481  0.00  0.00    +0.000 C 
ATOM     34  O   UNL     1       3.028  13.282  21.538  0.00  0.00    +0.000 OA
ATOM     35  O   UNL     1       3.123  13.644  19.057  0.00  0.00    +0.000 OA
ENDBRANCH  30  32
ENDBRANCH  24  30
ENDBRANCH  20  27
ENDBRANCH   1  20
TORSDOF 6
ENDMDL
MODEL 4
REMARK VINA RESULT:      -8.7      1.434      2.071
REMARK  Name = 
REMARK  10 active torsions:
REMARK  status: ('A' for Active; 'I' for Inactive)
REMARK    1  A    between atoms: C_1  and  O_2
REMARK    2  A    between atoms: O_2  and  C_3
REMARK    3  A    between atoms: C_5  and  N_6
REMARK    4  A    between atoms: N_6  and  S_7
REMARK    5  A    between atoms: S_7  and  C_8
REMARK    6  A    between atoms: C_13  and  N_14
REMARK    7  A    between atoms: N_14  and  C_15
REMARK    8  A    between atoms: C_24  and  C_25
REMARK    9  A    between atoms: C_26  and  C_27
REMARK   10  A    between atoms: C_28  and  N_29
REMARK                            x       y       z     vdW  Elec       q    Type
REMARK                         _______ _______ _______ _____ _____    ______ ____
ROOT
ATOM      1  C   UNL     1       3.391   6.378  18.646  0.00  0.00    +0.000 A 
ATOM      2  C   UNL     1       4.609   6.203  17.746  0.00  0.00    +0.000 A 
ATOM      3  C   UNL     1       4.833   6.297  16.325  0.00  0.00    +0.000 A 
ATOM      4  C   UNL     1       6.031   5.814  15.707  0.00  0.00    +0.000 A 
ATOM      5  C   UNL     1       7.113   5.384  16.465  0.00  0.00    +0.000 A 
ATOM      6  C   UNL     1       6.938   5.294  17.829  0.00  0.00    +0.000 A 
ATOM      7  C   UNL     1       5.684   5.522  18.371  0.00  0.00    +0.000 A 
ATOM      8  N   UNL     1       5.442   4.744  19.398  0.00  0.00    +0.000 NA
ATOM      9  C   UNL     1       4.160   4.438  19.510  0.00  0.00    +0.000 A 
ATOM     10  C   UNL     1       3.513   3.465  18.692  0.00  0.00    +0.000 A 
ATOM     11  C   UNL     1       4.277   2.769  17.580  0.00  0.00    +0.000 C 
ATOM     12  C   UNL     1       2.105   3.487  18.659  0.00  0.00    +0.000 A 
ATOM     13  C   UNL     1       1.459   3.656  17.285  0.00  0.00    +0.000 C 
ATOM     14  C   UNL     1       1.470   4.103  19.753  0.00  0.00    +0.000 A 
ATOM     15  C   UNL     1       2.181   5.115  20.378  0.00  0.00    +0.000 A 
ATOM     16  C   UNL     1       3.347   5.499  19.758  0.00  0.00    +0.000 A 
ENDROOT
BRANCH  14  17
ATOM     17  N   UNL     1       0.446   3.482  20.451  0.00  0.00    +0.000 N 
ATOM     18  H   UNL     1      -0.040   2.761  19.933  0.00  0.00    +0.000 HD
ATOM     19  H   UNL     1      -0.181   4.128  20.921  0.00  0.00    +0.000 HD
ENDBRANCH  14  17
BRANCH   1  20
ATOM     20  N   UNL     1       2.250   7.240  18.314  0.00  0.00    +0.000 N 
ATOM     21  H   UNL     1       1.455   6.621  18.163  0.00  0.00    +0.000 HD
BRANCH  20  27
ATOM     22  C   UNL     1       1.151   8.873  20.050  0.00  0.00    +0.000 A 
ATOM     23  C   UNL     1       0.892  10.247  20.393  0.00  0.00    +0.000 A 
ATOM     24  C   UNL     1       1.110  11.304  19.519  0.00  0.00    +0.000 A 
ATOM     25  C   UNL     1       1.517  10.984  18.240  0.00  0.00    +0.000 A 
ATOM     26  C   UNL     1       1.826   9.634  17.895  0.00  0.00    +0.000 A 
ATOM     27  C   UNL     1       1.735   8.527  18.801  0.00  0.00    +0.000 A 
BRANCH  22  29
ATOM     28  C   UNL     1      -0.414   8.529  21.903  0.00  0.00    +0.000 C 
ATOM     29  O   UNL     1       0.649   8.130  21.077  0.00  0.00    +0.000 OA
ENDBRANCH  22  29
BRANCH  24  30
ATOM     30  N   UNL     1       1.038  12.669  19.943  0.00  0.00    +0.000 N 
ATOM     31  H   UNL     1       1.473  12.854  20.851  0.00  0.00    +0.000 HD
BRANCH  30  32
ATOM     32  S   UNL     1      -0.450  13.504  19.939  0.00  0.00    +0.000 S 
ATOM     33  C   UNL     1      -0.039  14.925  18.950  0.00  0.00    +0.000 C 
ATOM     34  O   UNL     1      -1.453  12.722  19.255  0.00  0.00    +0.000 OA
ATOM     35  O   UNL     1      -0.632  13.947  21.284  0.00  0.00    +0.000 OA
ENDBRANCH  30  32
ENDBRANCH  24  30
ENDBRANCH  20  27
ENDBRANCH   1  20
TORSDOF 6
ENDMDL
MODEL 5
REMARK VINA RESULT:      -8.6      1.798      2.469
REMARK  Name = 
REMARK  10 active torsions:
REMARK  status: ('A' for Active; 'I' for Inactive)
REMARK    1  A    between atoms: C_1  and  O_2
REMARK    2  A    between atoms: O_2  and  C_3
REMARK    3  A    between atoms: C_5  and  N_6
REMARK    4  A    between atoms: N_6  and  S_7
REMARK    5  A    between atoms: S_7  and  C_8
REMARK    6  A    between atoms: C_13  and  N_14
REMARK    7  A    between atoms: N_14  and  C_15
REMARK    8  A    between atoms: C_24  and  C_25
REMARK    9  A    between atoms: C_26  and  C_27
REMARK   10  A    between atoms: C_28  and  N_29
REMARK                            x       y       z     vdW  Elec       q    Type
REMARK                         _______ _______ _______ _____ _____    ______ ____
ROOT
ATOM      1  C   UNL     1       3.706   5.402  19.862  0.00  0.00    +0.000 A 
ATOM      2  C   UNL     1       4.830   5.806  18.914  0.00  0.00    +0.000 A 
ATOM      3  C   UNL     1       4.996   6.852  17.936  0.00  0.00    +0.000 A 
ATOM      4  C   UNL     1       6.062   6.843  16.980  0.00  0.00    +0.000 A 
ATOM      5  C   UNL     1       7.091   5.912  17.055  0.00  0.00    +0.000 A 
ATOM      6  C   UNL     1       6.971   4.904  17.986  0.00  0.00    +0.000 A 
ATOM      7  C   UNL     1       5.803   4.793  18.722  0.00  0.00    +0.000 A 
ATOM      8  N   UNL     1       5.484   3.542  18.952  0.00  0.00    +0.000 NA
ATOM      9  C   UNL     1       4.174   3.359  19.020  0.00  0.00    +0.000 A 
ATOM     10  C   UNL     1       3.331   3.304  17.872  0.00  0.00    +0.000 A 
ATOM     11  C   UNL     1       3.909   3.529  16.485  0.00  0.00    +0.000 C 
ATOM     12  C   UNL     1       1.948   3.465  18.082  0.00  0.00    +0.000 A 
ATOM     13  C   UNL     1       1.273   4.607  17.324  0.00  0.00    +0.000 C 
ATOM     14  C   UNL     1       1.482   3.186  19.379  0.00  0.00    +0.000 A 
ATOM     15  C   UNL     1       2.386   3.398  20.408  0.00  0.00    +0.000 A 
ATOM     16  C   UNL     1       3.568   4.003  20.052  0.00  0.00    +0.000 A 
ENDROOT
BRANCH  14  17
ATOM     17  N   UNL     1       0.404   2.345  19.605  0.00  0.00    +0.000 N 
ATOM     18  H   UNL     1      -0.501   2.763  19.428  0.00  0.00    +0.000 HD
ATOM     19  H   UNL     1       0.448   1.850  20.491  0.00  0.00    +0.000 HD
ENDBRANCH  14  17
BRANCH   1  20
ATOM     20  N   UNL     1       2.714   6.343  20.396  0.00  0.00    +0.000 N 
ATOM     21  H   UNL     1       2.963   6.501  21.372  0.00  0.00    +0.000 HD
BRANCH  20  27
ATOM     22  C   UNL     1       1.175   8.463  20.558  0.00  0.00    +0.000 A 
ATOM     23  C   UNL     1       0.785   9.701  19.935  0.00  0.00    +0.000 A 
ATOM     24  C   UNL     1       1.154  10.052  18.643  0.00  0.00    +0.000 A 
ATOM     25  C   UNL     1       1.858   9.114  17.917  0.00  0.00    +0.000 A 
ATOM     26  C   UNL     1       2.296   7.902  18.531  0.00  0.00    +0.000 A 
ATOM     27  C   UNL     1       2.046   7.553  19.898  0.00  0.00    +0.000 A 
BRANCH  22  29
ATOM     28  C   UNL     1       0.406   9.443  22.668  0.00  0.00    +0.000 C 
ATOM     29  O   UNL     1       0.483   8.399  21.731  0.00  0.00    +0.000 OA
ENDBRANCH  22  29
BRANCH  24  30
ATOM     30  N   UNL     1       0.928  11.365  18.118  0.00  0.00    +0.000 N 
ATOM     31  H   UNL     1       1.092  11.453  17.113  0.00  0.00    +0.000 HD
BRANCH  30  32
ATOM     32  S   UNL     1       1.649  12.729  18.848  0.00  0.00    +0.000 S 
ATOM     33  C   UNL     1       0.396  13.962  18.574  0.00  0.00    +0.000 C 
ATOM     34  O   UNL     1       1.797  12.509  20.268  0.00  0.00    +0.000 OA
ATOM     35  O   UNL     1       2.766  13.048  18.017  0.00  0.00    +0.000 OA
ENDBRANCH  30  32
ENDBRANCH  24  30
ENDBRANCH  20  27
ENDBRANCH   1  20
TORSDOF 6
ENDMDL
MODEL 6
REMARK VINA RESULT:      -8.6      1.872      4.168
REMARK  Name = 
REMARK  10 active torsions:
REMARK  status: ('A' for Active; 'I' for Inactive)
REMARK    1  A    between atoms: C_1  and  O_2
REMARK    2  A    between atoms: O_2  and  C_3
REMARK    3  A    between atoms: C_5  and  N_6
REMARK    4  A    between atoms: N_6  and  S_7
REMARK    5  A    between atoms: S_7  and  C_8
REMARK    6  A    between atoms: C_13  and  N_14
REMARK    7  A    between atoms: N_14  and  C_15
REMARK    8  A    between atoms: C_24  and  C_25
REMARK    9  A    between atoms: C_26  and  C_27
REMARK   10  A    between atoms: C_28  and  N_29
REMARK                            x       y       z     vdW  Elec       q    Type
REMARK                         _______ _______ _______ _____ _____    ______ ____
ROOT
ATOM      1  C   UNL     1       2.794   5.970  18.248  0.00  0.00    +0.000 A 
ATOM      2  C   UNL     1       2.066   4.933  19.096  0.00  0.00    +0.000 A 
ATOM      3  C   UNL     1       1.855   4.758  20.511  0.00  0.00    +0.000 A 
ATOM      4  C   UNL     1       1.357   3.535  21.064  0.00  0.00    +0.000 A 
ATOM      5  C   UNL     1       0.890   2.511  20.249  0.00  0.00    +0.000 A 
ATOM      6  C   UNL     1       1.065   2.650  18.890  0.00  0.00    +0.000 A 
ATOM      7  C   UNL     1       1.783   3.729  18.402  0.00  0.00    +0.000 A 
ATOM      8  N   UNL     1       2.496   3.411  17.348  0.00  0.00    +0.000 NA
ATOM      9  C   UNL     1       3.617   4.110  17.267  0.00  0.00    +0.000 A 
ATOM     10  C   UNL     1       4.770   3.834  18.059  0.00  0.00    +0.000 A 
ATOM     11  C   UNL     1       4.734   2.738  19.110  0.00  0.00    +0.000 C 
ATOM     12  C   UNL     1       5.749   4.844  18.142  0.00  0.00    +0.000 A 
ATOM     13  C   UNL     1       6.098   5.340  19.544  0.00  0.00    +0.000 C 
ATOM     14  C   UNL     1       5.751   5.791  17.102  0.00  0.00    +0.000 A 
ATOM     15  C   UNL     1       4.526   6.037  16.501  0.00  0.00    +0.000 A 
ATOM     16  C   UNL     1       3.437   5.446  17.097  0.00  0.00    +0.000 A 
ENDROOT
BRANCH  14  17
ATOM     17  N   UNL     1       6.907   6.118  16.411  0.00  0.00    +0.000 N 
ATOM     18  H   UNL     1       7.715   5.559  16.653  0.00  0.00    +0.000 HD
ATOM     19  H   UNL     1       7.103   7.114  16.387  0.00  0.00    +0.000 HD
ENDBRANCH  14  17
BRANCH   1  20
ATOM     20  N   UNL     1       2.992   7.365  18.660  0.00  0.00    +0.000 N 
ATOM     21  H   UNL     1       3.812   7.701  18.157  0.00  0.00    +0.000 HD
BRANCH  20  27
ATOM     22  C   UNL     1       1.278   8.811  20.024  0.00  0.00    +0.000 A 
ATOM     23  C   UNL     1       0.647  10.099  20.155  0.00  0.00    +0.000 A 
ATOM     24  C   UNL     1       0.738  11.093  19.190  0.00  0.00    +0.000 A 
ATOM     25  C   UNL     1       1.402  10.774  18.024  0.00  0.00    +0.000 A 
ATOM     26  C   UNL     1       2.075   9.523  17.893  0.00  0.00    +0.000 A 
ATOM     27  C   UNL     1       2.114   8.516  18.912  0.00  0.00    +0.000 A 
BRANCH  22  29
ATOM     28  C   UNL     1      -0.245   8.431  21.904  0.00  0.00    +0.000 C 
ATOM     29  O   UNL     1       0.818   8.060  21.064  0.00  0.00    +0.000 OA
ENDBRANCH  22  29
BRANCH  24  30
ATOM     30  N   UNL     1       0.276  12.427  19.427  0.00  0.00    +0.000 N 
ATOM     31  H   UNL     1       0.050  12.954  18.580  0.00  0.00    +0.000 HD
BRANCH  30  32
ATOM     32  S   UNL     1       1.156  13.486  20.436  0.00  0.00    +0.000 S 
ATOM     33  C   UNL     1       0.540  15.064  19.893  0.00  0.00    +0.000 C 
ATOM     34  O   UNL     1       0.783  13.278  21.815  0.00  0.00    +0.000 OA
ATOM     35  O   UNL     1       2.512  13.373  20.000  0.00  0.00    +0.000 OA
ENDBRANCH  30  32
ENDBRANCH  24  30
ENDBRANCH  20  27
ENDBRANCH   1  20
TORSDOF 6
ENDMDL
MODEL 7
REMARK VINA RESULT:      -8.6      1.527      3.747
REMARK  Name = 
REMARK  10 active torsions:
REMARK  status: ('A' for Active; 'I' for Inactive)
REMARK    1  A    between atoms: C_1  and  O_2
REMARK    2  A    between atoms: O_2  and  C_3
REMARK    3  A    between atoms: C_5  and  N_6
REMARK    4  A    between atoms: N_6  and  S_7
REMARK    5  A    between atoms: S_7  and  C_8
REMARK    6  A    between atoms: C_13  and  N_14
REMARK    7  A    between atoms: N_14  and  C_15
REMARK    8  A    between atoms: C_24  and  C_25
REMARK    9  A    between atoms: C_26  and  C_27
REMARK   10  A    between atoms: C_28  and  N_29
REMARK                            x       y       z     vdW  Elec       q    Type
REMARK                         _______ _______ _______ _____ _____    ______ ____
ROOT
ATOM      1  C   UNL     1       2.268   6.048  19.163  0.00  0.00    +0.000 A 
ATOM      2  C   UNL     1       1.768   4.717  19.714  0.00  0.00    +0.000 A 
ATOM      3  C   UNL     1       1.872   4.052  20.989  0.00  0.00    +0.000 A 
ATOM      4  C   UNL     1       1.537   2.671  21.160  0.00  0.00    +0.000 A 
ATOM      5  C   UNL     1       0.934   1.942  20.142  0.00  0.00    +0.000 A 
ATOM      6  C   UNL     1       0.808   2.550  18.913  0.00  0.00    +0.000 A 
ATOM      7  C   UNL     1       1.374   3.797  18.709  0.00  0.00    +0.000 A 
ATOM      8  N   UNL     1       1.851   3.929  17.494  0.00  0.00    +0.000 NA
ATOM      9  C   UNL     1       2.909   4.723  17.450  0.00  0.00    +0.000 A 
ATOM     10  C   UNL     1       4.213   4.313  17.856  0.00  0.00    +0.000 A 
ATOM     11  C   UNL     1       4.434   2.928  18.439  0.00  0.00    +0.000 C 
ATOM     12  C   UNL     1       5.159   5.327  18.100  0.00  0.00    +0.000 A 
ATOM     13  C   UNL     1       5.789   5.351  19.491  0.00  0.00    +0.000 C 
ATOM     14  C   UNL     1       4.911   6.566  17.480  0.00  0.00    +0.000 A 
ATOM     15  C   UNL     1       3.580   6.876  17.252  0.00  0.00    +0.000 A 
ATOM     16  C   UNL     1       2.661   6.012  17.801  0.00  0.00    +0.000 A 
ENDROOT
BRANCH  14  17
ATOM     17  N   UNL     1       5.882   7.222  16.740  0.00  0.00    +0.000 N 
ATOM     18  H   UNL     1       5.815   7.084  15.740  0.00  0.00    +0.000 HD
ATOM     19  H   UNL     1       6.825   7.099  17.098  0.00  0.00    +0.000 HD
ENDBRANCH  14  17
BRANCH   1  20
ATOM     20  N   UNL     1       2.512   7.232  19.994  0.00  0.00    +0.000 N 
ATOM     21  H   UNL     1       3.468   7.528  19.801  0.00  0.00    +0.000 HD
BRANCH  20  27
ATOM     22  C   UNL     1       1.255   9.498  19.575  0.00  0.00    +0.000 A 
ATOM     23  C   UNL     1       0.344  10.472  20.120  0.00  0.00    +0.000 A 
ATOM     24  C   UNL     1      -0.055  10.482  21.450  0.00  0.00    +0.000 A 
ATOM     25  C   UNL     1       0.531   9.552  22.285  0.00  0.00    +0.000 A 
ATOM     26  C   UNL     1       1.397   8.549  21.757  0.00  0.00    +0.000 A 
ATOM     27  C   UNL     1       1.739   8.424  20.371  0.00  0.00    +0.000 A 
BRANCH  22  29
ATOM     28  C   UNL     1       2.114  11.162  17.996  0.00  0.00    +0.000 C 
ATOM     29  O   UNL     1       1.541   9.918  18.311  0.00  0.00    +0.000 OA
ENDBRANCH  22  29
BRANCH  24  30
ATOM     30  N   UNL     1      -1.109  11.327  21.921  0.00  0.00    +0.000 N 
ATOM     31  H   UNL     1      -1.970  11.277  21.371  0.00  0.00    +0.000 HD
BRANCH  30  32
ATOM     32  S   UNL     1      -0.825  12.982  22.228  0.00  0.00    +0.000 S 
ATOM     33  C   UNL     1      -1.767  13.736  20.921  0.00  0.00    +0.000 C 
ATOM     34  O   UNL     1      -1.396  13.353  23.501  0.00  0.00    +0.000 OA
ATOM     35  O   UNL     1       0.560  13.181  21.939  0.00  0.00    +0.000 OA
ENDBRANCH  30  32
ENDBRANCH  24  30
ENDBRANCH  20  27
ENDBRANCH   1  20
TORSDOF 6
ENDMDL
MODEL 8
REMARK VINA RESULT:      -8.5      1.782      2.424
REMARK  Name = 
REMARK  10 active torsions:
REMARK  status: ('A' for Active; 'I' for Inactive)
REMARK    1  A    between atoms: C_1  and  O_2
REMARK    2  A    between atoms: O_2  and  C_3
REMARK    3  A    between atoms: C_5  and  N_6
REMARK    4  A    between atoms: N_6  and  S_7
REMARK    5  A    between atoms: S_7  and  C_8
REMARK    6  A    between atoms: C_13  and  N_14
REMARK    7  A    between atoms: N_14  and  C_15
REMARK    8  A    between atoms: C_24  and  C_25
REMARK    9  A    between atoms: C_26  and  C_27
REMARK   10  A    between atoms: C_28  and  N_29
REMARK                            x       y       z     vdW  Elec       q    Type
REMARK                         _______ _______ _______ _____ _____    ______ ____
ROOT
ATOM      1  C   UNL     1       3.690   5.388  19.855  0.00  0.00    +0.000 A 
ATOM      2  C   UNL     1       4.793   5.915  18.943  0.00  0.00    +0.000 A 
ATOM      3  C   UNL     1       4.877   6.982  17.977  0.00  0.00    +0.000 A 
ATOM      4  C   UNL     1       5.965   7.092  17.053  0.00  0.00    +0.000 A 
ATOM      5  C   UNL     1       7.082   6.272  17.151  0.00  0.00    +0.000 A 
ATOM      6  C   UNL     1       7.041   5.248  18.072  0.00  0.00    +0.000 A 
ATOM      7  C   UNL     1       5.871   5.010  18.773  0.00  0.00    +0.000 A 
ATOM      8  N   UNL     1       5.676   3.730  18.986  0.00  0.00    +0.000 NA
ATOM      9  C   UNL     1       4.392   3.413  19.014  0.00  0.00    +0.000 A 
ATOM     10  C   UNL     1       3.592   3.281  17.842  0.00  0.00    +0.000 A 
ATOM     11  C   UNL     1       4.183   3.577  16.474  0.00  0.00    +0.000 C 
ATOM     12  C   UNL     1       2.194   3.296  18.012  0.00  0.00    +0.000 A 
ATOM     13  C   UNL     1       1.426   4.369  17.242  0.00  0.00    +0.000 C 
ATOM     14  C   UNL     1       1.723   2.958  19.294  0.00  0.00    +0.000 A 
ATOM     15  C   UNL     1       2.570   3.253  20.350  0.00  0.00    +0.000 A 
ATOM     16  C   UNL     1       3.693   3.981  20.033  0.00  0.00    +0.000 A 
ENDROOT
BRANCH  14  17
ATOM     17  N   UNL     1       0.732   2.009  19.484  0.00  0.00    +0.000 N 
ATOM     18  H   UNL     1       0.327   1.645  18.630  0.00  0.00    +0.000 HD
ATOM     19  H   UNL     1       0.035   2.274  20.174  0.00  0.00    +0.000 HD
ENDBRANCH  14  17
BRANCH   1  20
ATOM     20  N   UNL     1       2.592   6.216  20.366  0.00  0.00    +0.000 N 
ATOM     21  H   UNL     1       2.670   6.204  21.382  0.00  0.00    +0.000 HD
BRANCH  20  27
ATOM     22  C   UNL     1       1.372   8.505  20.770  0.00  0.00    +0.000 A 
ATOM     23  C   UNL     1       1.000   9.772  20.197  0.00  0.00    +0.000 A 
ATOM     24  C   UNL     1       1.121  10.061  18.845  0.00  0.00    +0.000 A 
ATOM     25  C   UNL     1       1.543   9.038  18.022  0.00  0.00    +0.000 A 
ATOM     26  C   UNL     1       1.963   7.791  18.574  0.00  0.00    +0.000 A 
ATOM     27  C   UNL     1       1.973   7.491  19.976  0.00  0.00    +0.000 A 
BRANCH  22  29
ATOM     28  C   UNL     1      -0.167   9.270  22.516  0.00  0.00    +0.000 C 
ATOM     29  O   UNL     1       0.943   8.537  22.063  0.00  0.00    +0.000 OA
ENDBRANCH  22  29
BRANCH  24  30
ATOM     30  N   UNL     1       0.937  11.385  18.331  0.00  0.00    +0.000 N 
ATOM     31  H   UNL     1       1.731  12.012  18.482  0.00  0.00    +0.000 HD
BRANCH  30  32
ATOM     32  S   UNL     1      -0.466  12.279  18.711  0.00  0.00    +0.000 S 
ATOM     33  C   UNL     1      -1.736  11.192  18.102  0.00  0.00    +0.000 C 
ATOM     34  O   UNL     1      -0.597  12.407  20.143  0.00  0.00    +0.000 OA
ATOM     35  O   UNL     1      -0.422  13.421  17.855  0.00  0.00    +0.000 OA
ENDBRANCH  30  32
ENDBRANCH  24  30
ENDBRANCH  20  27
ENDBRANCH   1  20
TORSDOF 6
ENDMDL
MODEL 9
REMARK VINA RESULT:      -8.5      1.983      4.172
REMARK  Name = 
REMARK  10 active torsions:
REMARK  status: ('A' for Active; 'I' for Inactive)
REMARK    1  A    between atoms: C_1  and  O_2
REMARK    2  A    between atoms: O_2  and  C_3
REMARK    3  A    between atoms: C_5  and  N_6
REMARK    4  A    between atoms: N_6  and  S_7
REMARK    5  A    between atoms: S_7  and  C_8
REMARK    6  A    between atoms: C_13  and  N_14
REMARK    7  A    between atoms: N_14  and  C_15
REMARK    8  A    between atoms: C_24  and  C_25
REMARK    9  A    between atoms: C_26  and  C_27
REMARK   10  A    between atoms: C_28  and  N_29
REMARK                            x       y       z     vdW  Elec       q    Type
REMARK                         _______ _______ _______ _____ _____    ______ ____
ROOT
ATOM      1  C   UNL     1       2.892   6.005  18.091  0.00  0.00    +0.000 A 
ATOM      2  C   UNL     1       2.102   4.979  18.897  0.00  0.00    +0.000 A 
ATOM      3  C   UNL     1       1.803   4.812  20.297  0.00  0.00    +0.000 A 
ATOM      4  C   UNL     1       1.257   3.597  20.822  0.00  0.00    +0.000 A 
ATOM      5  C   UNL     1       0.829   2.576  19.983  0.00  0.00    +0.000 A 
ATOM      6  C   UNL     1       1.087   2.708  18.637  0.00  0.00    +0.000 A 
ATOM      7  C   UNL     1       1.847   3.776  18.191  0.00  0.00    +0.000 A 
ATOM      8  N   UNL     1       2.618   3.446  17.182  0.00  0.00    +0.000 NA
ATOM      9  C   UNL     1       3.750   4.131  17.167  0.00  0.00    +0.000 A 
ATOM     10  C   UNL     1       4.850   3.845  18.029  0.00  0.00    +0.000 A 
ATOM     11  C   UNL     1       4.737   2.753  19.078  0.00  0.00    +0.000 C 
ATOM     12  C   UNL     1       5.834   4.843  18.168  0.00  0.00    +0.000 A 
ATOM     13  C   UNL     1       6.104   5.340  19.587  0.00  0.00    +0.000 C 
ATOM     14  C   UNL     1       5.911   5.786  17.127  0.00  0.00    +0.000 A 
ATOM     15  C   UNL     1       4.728   6.044  16.452  0.00  0.00    +0.000 A 
ATOM     16  C   UNL     1       3.597   5.469  16.983  0.00  0.00    +0.000 A 
ENDROOT
BRANCH  14  17
ATOM     17  N   UNL     1       7.110   6.097  16.506  0.00  0.00    +0.000 N 
ATOM     18  H   UNL     1       7.264   7.086  16.357  0.00  0.00    +0.000 HD
ATOM     19  H   UNL     1       7.305   5.534  15.683  0.00  0.00    +0.000 HD
ENDBRANCH  14  17
BRANCH   1  20
ATOM     20  N   UNL     1       3.082   7.398  18.511  0.00  0.00    +0.000 N 
ATOM     21  H   UNL     1       3.853   7.765  17.954  0.00  0.00    +0.000 HD
BRANCH  20  27
ATOM     22  C   UNL     1       1.401   8.755  20.002  0.00  0.00    +0.000 A 
ATOM     23  C   UNL     1       0.752  10.023  20.211  0.00  0.00    +0.000 A 
ATOM     24  C   UNL     1       0.781  11.056  19.284  0.00  0.00    +0.000 A 
ATOM     25  C   UNL     1       1.400  10.796  18.078  0.00  0.00    +0.000 A 
ATOM     26  C   UNL     1       2.091   9.565  17.869  0.00  0.00    +0.000 A 
ATOM     27  C   UNL     1       2.193   8.520  18.846  0.00  0.00    +0.000 A 
BRANCH  22  29
ATOM     28  C   UNL     1      -0.110   8.210  21.852  0.00  0.00    +0.000 C 
ATOM     29  O   UNL     1       1.001   7.955  21.030  0.00  0.00    +0.000 OA
ENDBRANCH  22  29
BRANCH  24  30
ATOM     30  N   UNL     1       0.305  12.370  19.593  0.00  0.00    +0.000 N 
ATOM     31  H   UNL     1       0.859  12.867  20.294  0.00  0.00    +0.000 HD
BRANCH  30  32
ATOM     32  S   UNL     1      -1.333  12.628  19.996  0.00  0.00    +0.000 S 
ATOM     33  C   UNL     1      -2.149  11.846  18.622  0.00  0.00    +0.000 C 
ATOM     34  O   UNL     1      -1.660  11.918  21.211  0.00  0.00    +0.000 OA
ATOM     35  O   UNL     1      -1.528  14.038  19.875  0.00  0.00    +0.000 OA
ENDBRANCH  30  32
ENDBRANCH  24  30
ENDBRANCH  20  27
ENDBRANCH   1  20
TORSDOF 6
ENDMDL
