MODEL 1
REMARK VINA RESULT:      -7.6      0.000      0.000
REMARK  Name = 
REMARK  5 active torsions:
REMARK  status: ('A' for Active; 'I' for Inactive)
REMARK    1  A    between atoms: C_1  and  O_2
REMARK    2  A    between atoms: O_2  and  C_3
REMARK    3  A    between atoms: C_7  and  C_8
REMARK    4  A    between atoms: C_9  and  C_10
REMARK    5  A    between atoms: C_13  and  O_14
REMARK                            x       y       z     vdW  Elec       q    Type
REMARK                         _______ _______ _______ _____ _____    ______ ____
ROOT
ATOM      1  C   UNL     1       4.050   4.714  19.006  0.00  0.00    +0.000 A 
ATOM      2  C   UNL     1       3.253   5.310  19.990  0.00  0.00    +0.000 A 
ATOM      3  C   UNL     1       2.594   6.516  19.740  0.00  0.00    +0.000 A 
ATOM      4  N   UNL     1       1.782   7.094  20.718  0.00  0.00    +0.000 N 
ATOM      5  C   UNL     1       1.167   8.317  20.542  0.00  0.00    +0.000 A 
ATOM      6  C   UNL     1       0.358   8.809  21.721  0.00  0.00    +0.000 C 
ATOM      7  C   UNL     1       1.287   9.030  19.396  0.00  0.00    +0.000 A 
ATOM      8  C   UNL     1       2.088   8.442  18.269  0.00  0.00    +0.000 A 
ATOM      9  O   UNL     1       2.201   9.008  17.185  0.00  0.00    +0.000 OA
ATOM     10  C   UNL     1       2.765   7.145  18.501  0.00  0.00    +0.000 A 
ATOM     11  C   UNL     1       3.569   6.571  17.512  0.00  0.00    +0.000 A 
ATOM     12  C   UNL     1       4.210   5.360  17.769  0.00  0.00    +0.000 A 
ATOM     13 CL   UNL     1       5.192   4.676  16.521  0.00  0.00    +0.000 Cl
ATOM     14  H   UNL     1       1.665   6.616  21.604  0.00  0.00    +0.000 HD
ENDROOT
BRANCH   7  15
ATOM     15  C   UNL     1       0.699  10.369  19.251  0.00  0.00    +0.000 A 
ATOM     16  C   UNL     1      -0.595  10.504  18.724  0.00  0.00    +0.000 A 
ATOM     17  C   UNL     1      -1.141  11.771  18.511  0.00  0.00    +0.000 A 
ATOM     18  C   UNL     1      -0.391  12.898  18.828  0.00  0.00    +0.000 A 
ATOM     19  C   UNL     1       0.882  12.780  19.377  0.00  0.00    +0.000 A 
ATOM     20  C   UNL     1       1.429  11.514  19.589  0.00  0.00    +0.000 A 
BRANCH  18  21
ATOM     21  O   UNL     1      -0.872  14.155  18.604  0.00  0.00    +0.000 OA
ATOM     22  H   UNL     1      -0.858  14.644  19.444  0.00  0.00    +0.000 HD
ENDBRANCH  18  21
ENDBRANCH   7  15
BRANCH   1  24
ATOM     23  C   UNL     1       4.014   2.536  19.937  0.00  0.00    +0.000 C 
ATOM     24  O   UNL     1       4.720   3.533  19.204  0.00  0.00    +0.000 OA
ENDBRANCH   1  24
TORSDOF 3
ENDMDL
MODEL 2
REMARK VINA RESULT:      -7.5      0.165      1.046
REMARK  Name = 
REMARK  5 active torsions:
REMARK  status: ('A' for Active; 'I' for Inactive)
REMARK    1  A    between atoms: C_1  and  O_2
REMARK    2  A    between atoms: O_2  and  C_3
REMARK    3  A    between atoms: C_7  and  C_8
REMARK    4  A    between atoms: C_9  and  C_10
REMARK    5  A    between atoms: C_13  and  O_14
REMARK                            x       y       z     vdW  Elec       q    Type
REMARK                         _______ _______ _______ _____ _____    ______ ____
ROOT
ATOM      1  C   UNL     1       4.162   4.707  19.000  0.00  0.00    +0.000 A 
ATOM      2  C   UNL     1       3.344   5.293  19.972  0.00  0.00    +0.000 A 
ATOM      3  C   UNL     1       2.658   6.480  19.706  0.00  0.00    +0.000 A 
ATOM      4  N   UNL     1       1.826   7.047  20.673  0.00  0.00    +0.000 N 
ATOM      5  C   UNL     1       1.182   8.252  20.480  0.00  0.00    +0.000 A 
ATOM      6  C   UNL     1       0.353   8.737  21.648  0.00  0.00    +0.000 C 
ATOM      7  C   UNL     1       1.292   8.957  19.327  0.00  0.00    +0.000 A 
ATOM      8  C   UNL     1       2.115   8.378  18.212  0.00  0.00    +0.000 A 
ATOM      9  O   UNL     1       2.221   8.935  17.123  0.00  0.00    +0.000 OA
ATOM     10  C   UNL     1       2.822   7.099  18.462  0.00  0.00    +0.000 A 
ATOM     11  C   UNL     1       3.646   6.536  17.484  0.00  0.00    +0.000 A 
ATOM     12  C   UNL     1       4.316   5.343  17.757  0.00  0.00    +0.000 A 
ATOM     13 CL   UNL     1       5.322   4.671  16.522  0.00  0.00    +0.000 Cl
ATOM     14  H   UNL     1       1.714   6.576  21.563  0.00  0.00    +0.000 HD
ENDROOT
BRANCH   7  15
ATOM     15  C   UNL     1       0.672  10.280  19.164  0.00  0.00    +0.000 A 
ATOM     16  C   UNL     1       1.386  11.430  19.534  0.00  0.00    +0.000 A 
ATOM     17  C   UNL     1       0.788  12.687  19.454  0.00  0.00    +0.000 A 
ATOM     18  C   UNL     1      -0.524  12.790  19.003  0.00  0.00    +0.000 A 
ATOM     19  C   UNL     1      -1.235  11.663  18.605  0.00  0.00    +0.000 A 
ATOM     20  C   UNL     1      -0.638  10.404  18.686  0.00  0.00    +0.000 A 
BRANCH  18  21
ATOM     21  O   UNL     1      -1.159  13.996  18.941  0.00  0.00    +0.000 OA
ATOM     22  H   UNL     1      -0.489  14.693  18.855  0.00  0.00    +0.000 HD
ENDBRANCH  18  21
ENDBRANCH   7  15
BRANCH   1  24
ATOM     23  C   UNL     1       4.095   2.442  19.690  0.00  0.00    +0.000 C 
ATOM     24  O   UNL     1       4.861   3.545  19.215  0.00  0.00    +0.000 OA
ENDBRANCH   1  24
TORSDOF 3
ENDMDL
MODEL 3
REMARK VINA RESULT:      -7.2      2.692      7.033
REMARK  Name = 
REMARK  5 active torsions:
REMARK  status: ('A' for Active; 'I' for Inactive)
REMARK    1  A    between atoms: C_1  and  O_2
REMARK    2  A    between atoms: O_2  and  C_3
REMARK    3  A    between atoms: C_7  and  C_8
REMARK    4  A    between atoms: C_9  and  C_10
REMARK    5  A    between atoms: C_13  and  O_14
REMARK                            x       y       z     vdW  Elec       q    Type
REMARK                         _______ _______ _______ _____ _____    ______ ____
ROOT
ATOM      1  C   UNL     1      -0.294  10.547  20.827  0.00  0.00    +0.000 A 
ATOM      2  C   UNL     1       0.143   9.296  21.277  0.00  0.00    +0.000 A 
ATOM      3  C   UNL     1       1.006   8.520  20.500  0.00  0.00    +0.000 A 
ATOM      4  N   UNL     1       1.456   7.283  20.965  0.00  0.00    +0.000 N 
ATOM      5  C   UNL     1       2.252   6.451  20.205  0.00  0.00    +0.000 A 
ATOM      6  C   UNL     1       2.613   5.132  20.852  0.00  0.00    +0.000 C 
ATOM      7  C   UNL     1       2.676   6.790  18.963  0.00  0.00    +0.000 A 
ATOM      8  C   UNL     1       2.290   8.136  18.419  0.00  0.00    +0.000 A 
ATOM      9  O   UNL     1       2.676   8.530  17.322  0.00  0.00    +0.000 OA
ATOM     10  C   UNL     1       1.406   8.991  19.245  0.00  0.00    +0.000 A 
ATOM     11  C   UNL     1       0.967  10.232  18.772  0.00  0.00    +0.000 A 
ATOM     12  C   UNL     1       0.117  11.004  19.563  0.00  0.00    +0.000 A 
ATOM     13 CL   UNL     1      -0.400  12.535  18.951  0.00  0.00    +0.000 Cl
ATOM     14  H   UNL     1       1.162   6.966  21.882  0.00  0.00    +0.000 HD
ENDROOT
BRANCH   7  15
ATOM     15  C   UNL     1       3.452   5.862  18.128  0.00  0.00    +0.000 A 
ATOM     16  C   UNL     1       2.848   4.690  17.649  0.00  0.00    +0.000 A 
ATOM     17  C   UNL     1       3.589   3.763  16.916  0.00  0.00    +0.000 A 
ATOM     18  C   UNL     1       4.934   4.012  16.664  0.00  0.00    +0.000 A 
ATOM     19  C   UNL     1       5.540   5.182  17.108  0.00  0.00    +0.000 A 
ATOM     20  C   UNL     1       4.800   6.110  17.842  0.00  0.00    +0.000 A 
BRANCH  18  21
ATOM     21  O   UNL     1       5.705   3.117  15.982  0.00  0.00    +0.000 OA
ATOM     22  H   UNL     1       6.053   3.553  15.187  0.00  0.00    +0.000 HD
ENDBRANCH  18  21
ENDBRANCH   7  15
BRANCH   1  24
ATOM     23  C   UNL     1      -1.201  11.080  22.949  0.00  0.00    +0.000 C 
ATOM     24  O   UNL     1      -1.144  11.345  21.551  0.00  0.00    +0.000 OA
ENDBRANCH   1  24
TORSDOF 3
ENDMDL
MODEL 4
REMARK VINA RESULT:      -7.1      2.653      7.130
REMARK  Name = 
REMARK  5 active torsions:
REMARK  status: ('A' for Active; 'I' for Inactive)
REMARK    1  A    between atoms: C_1  and  O_2
REMARK    2  A    between atoms: O_2  and  C_3
REMARK    3  A    between atoms: C_7  and  C_8
REMARK    4  A    between atoms: C_9  and  C_10
REMARK    5  A    between atoms: C_13  and  O_14
REMARK                            x       y       z     vdW  Elec       q    Type
REMARK                         _______ _______ _______ _____ _____    ______ ____
ROOT
ATOM      1  C   UNL     1      -0.287  10.606  20.571  0.00  0.00    +0.000 A 
ATOM      2  C   UNL     1       0.085   9.360  21.090  0.00  0.00    +0.000 A 
ATOM      3  C   UNL     1       0.976   8.537  20.399  0.00  0.00    +0.000 A 
ATOM      4  N   UNL     1       1.360   7.305  20.933  0.00  0.00    +0.000 N 
ATOM      5  C   UNL     1       2.183   6.429  20.256  0.00  0.00    +0.000 A 
ATOM      6  C   UNL     1       2.463   5.124  20.967  0.00  0.00    +0.000 C 
ATOM      7  C   UNL     1       2.698   6.715  19.035  0.00  0.00    +0.000 A 
ATOM      8  C   UNL     1       2.387   8.050  18.423  0.00  0.00    +0.000 A 
ATOM      9  O   UNL     1       2.856   8.398  17.343  0.00  0.00    +0.000 OA
ATOM     10  C   UNL     1       1.472   8.955  19.159  0.00  0.00    +0.000 A 
ATOM     11  C   UNL     1       1.100  10.190  18.619  0.00  0.00    +0.000 A 
ATOM     12  C   UNL     1       0.221  11.009  19.325  0.00  0.00    +0.000 A 
ATOM     13 CL   UNL     1      -0.212  12.531  18.630  0.00  0.00    +0.000 Cl
ATOM     14  H   UNL     1       0.997   7.027  21.837  0.00  0.00    +0.000 HD
ENDROOT
BRANCH   7  15
ATOM     15  C   UNL     1       3.503   5.740  18.285  0.00  0.00    +0.000 A 
ATOM     16  C   UNL     1       4.895   5.906  18.205  0.00  0.00    +0.000 A 
ATOM     17  C   UNL     1       5.666   5.032  17.438  0.00  0.00    +0.000 A 
ATOM     18  C   UNL     1       5.042   3.993  16.755  0.00  0.00    +0.000 A 
ATOM     19  C   UNL     1       3.668   3.799  16.847  0.00  0.00    +0.000 A 
ATOM     20  C   UNL     1       2.896   4.673  17.613  0.00  0.00    +0.000 A 
BRANCH  18  21
ATOM     21  O   UNL     1       5.753   3.137  15.966  0.00  0.00    +0.000 OA
ATOM     22  H   UNL     1       6.685   3.411  15.976  0.00  0.00    +0.000 HD
ENDBRANCH  18  21
ENDBRANCH   7  15
BRANCH   1  24
ATOM     23  C   UNL     1      -0.884  11.703  22.584  0.00  0.00    +0.000 C 
ATOM     24  O   UNL     1      -1.162  11.449  21.210  0.00  0.00    +0.000 OA
ENDBRANCH   1  24
TORSDOF 3
ENDMDL
MODEL 5
REMARK VINA RESULT:      -7.1      1.067      1.083
REMARK  Name = 
REMARK  5 active torsions:
REMARK  status: ('A' for Active; 'I' for Inactive)
REMARK    1  A    between atoms: C_1  and  O_2
REMARK    2  A    between atoms: O_2  and  C_3
REMARK    3  A    between atoms: C_7  and  C_8
REMARK    4  A    between atoms: C_9  and  C_10
REMARK    5  A    between atoms: C_13  and  O_14
REMARK                            x       y       z     vdW  Elec       q    Type
REMARK                         _______ _______ _______ _____ _____    ______ ____
ROOT
ATOM      1  C   UNL     1       4.093   5.451  18.555  0.00  0.00    +0.000 A 
ATOM      2  C   UNL     1       3.319   5.829  19.658  0.00  0.00    +0.000 A 
ATOM      3  C   UNL     1       2.539   6.986  19.619  0.00  0.00    +0.000 A 
ATOM      4  N   UNL     1       1.752   7.345  20.715  0.00  0.00    +0.000 N 
ATOM      5  C   UNL     1       1.018   8.513  20.749  0.00  0.00    +0.000 A 
ATOM      6  C   UNL     1       0.255   8.761  22.031  0.00  0.00    +0.000 C 
ATOM      7  C   UNL     1       0.989   9.381  19.708  0.00  0.00    +0.000 A 
ATOM      8  C   UNL     1       1.756   9.032  18.465  0.00  0.00    +0.000 A 
ATOM      9  O   UNL     1       1.738   9.746  17.466  0.00  0.00    +0.000 OA
ATOM     10  C   UNL     1       2.562   7.788  18.472  0.00  0.00    +0.000 A 
ATOM     11  C   UNL     1       3.340   7.434  17.367  0.00  0.00    +0.000 A 
ATOM     12  C   UNL     1       4.105   6.269  17.412  0.00  0.00    +0.000 A 
ATOM     13 CL   UNL     1       5.050   5.859  16.025  0.00  0.00    +0.000 Cl
ATOM     14  H   UNL     1       1.742   6.744  21.531  0.00  0.00    +0.000 HD
ENDROOT
BRANCH   7  15
ATOM     15  C   UNL     1       0.274  10.663  19.787  0.00  0.00    +0.000 A 
ATOM     16  C   UNL     1      -1.053  10.746  19.336  0.00  0.00    +0.000 A 
ATOM     17  C   UNL     1      -1.723  11.969  19.336  0.00  0.00    +0.000 A 
ATOM     18  C   UNL     1      -1.063  13.107  19.788  0.00  0.00    +0.000 A 
ATOM     19  C   UNL     1       0.242  13.037  20.264  0.00  0.00    +0.000 A 
ATOM     20  C   UNL     1       0.913  11.813  20.264  0.00  0.00    +0.000 A 
BRANCH  18  21
ATOM     21  O   UNL     1      -1.668  14.330  19.773  0.00  0.00    +0.000 OA
ATOM     22  H   UNL     1      -2.471  14.269  19.229  0.00  0.00    +0.000 HD
ENDBRANCH  18  21
ENDBRANCH   7  15
BRANCH   1  24
ATOM     23  C   UNL     1       6.227   4.511  18.968  0.00  0.00    +0.000 C 
ATOM     24  O   UNL     1       4.880   4.327  18.546  0.00  0.00    +0.000 OA
ENDBRANCH   1  24
TORSDOF 3
ENDMDL
MODEL 6
REMARK VINA RESULT:      -6.9      1.095      1.519
REMARK  Name = 
REMARK  5 active torsions:
REMARK  status: ('A' for Active; 'I' for Inactive)
REMARK    1  A    between atoms: C_1  and  O_2
REMARK    2  A    between atoms: O_2  and  C_3
REMARK    3  A    between atoms: C_7  and  C_8
REMARK    4  A    between atoms: C_9  and  C_10
REMARK    5  A    between atoms: C_13  and  O_14
REMARK                            x       y       z     vdW  Elec       q    Type
REMARK                         _______ _______ _______ _____ _____    ______ ____
ROOT
ATOM      1  C   UNL     1       4.163   5.498  18.502  0.00  0.00    +0.000 A 
ATOM      2  C   UNL     1       3.332   5.863  19.567  0.00  0.00    +0.000 A 
ATOM      3  C   UNL     1       2.552   7.020  19.499  0.00  0.00    +0.000 A 
ATOM      4  N   UNL     1       1.708   7.366  20.556  0.00  0.00    +0.000 N 
ATOM      5  C   UNL     1       0.971   8.532  20.564  0.00  0.00    +0.000 A 
ATOM      6  C   UNL     1       0.142   8.766  21.807  0.00  0.00    +0.000 C 
ATOM      7  C   UNL     1       0.995   9.411  19.532  0.00  0.00    +0.000 A 
ATOM      8  C   UNL     1       1.827   9.076  18.327  0.00  0.00    +0.000 A 
ATOM      9  O   UNL     1       1.860   9.800  17.336  0.00  0.00    +0.000 OA
ATOM     10  C   UNL     1       2.633   7.833  18.364  0.00  0.00    +0.000 A 
ATOM     11  C   UNL     1       3.469   7.492  17.297  0.00  0.00    +0.000 A 
ATOM     12  C   UNL     1       4.233   6.328  17.370  0.00  0.00    +0.000 A 
ATOM     13 CL   UNL     1       5.250   5.933  16.030  0.00  0.00    +0.000 Cl
ATOM     14  H   UNL     1       1.657   6.756  21.364  0.00  0.00    +0.000 HD
ENDROOT
BRANCH   7  15
ATOM     15  C   UNL     1       0.274  10.691  19.587  0.00  0.00    +0.000 A 
ATOM     16  C   UNL     1       0.926  11.833  20.078  0.00  0.00    +0.000 A 
ATOM     17  C   UNL     1       0.237  13.039  20.204  0.00  0.00    +0.000 A 
ATOM     18  C   UNL     1      -1.104  13.099  19.838  0.00  0.00    +0.000 A 
ATOM     19  C   UNL     1      -1.756  11.984  19.323  0.00  0.00    +0.000 A 
ATOM     20  C   UNL     1      -1.067  10.776  19.197  0.00  0.00    +0.000 A 
BRANCH  18  21
ATOM     21  O   UNL     1      -1.825  14.248  19.978  0.00  0.00    +0.000 OA
ATOM     22  H   UNL     1      -1.235  14.943  20.313  0.00  0.00    +0.000 HD
ENDBRANCH  18  21
ENDBRANCH   7  15
BRANCH   1  24
ATOM     23  C   UNL     1       6.287   4.565  18.978  0.00  0.00    +0.000 C 
ATOM     24  O   UNL     1       4.951   4.375  18.522  0.00  0.00    +0.000 OA
ENDBRANCH   1  24
TORSDOF 3
ENDMDL
MODEL 7
REMARK VINA RESULT:      -6.9      2.926      7.079
REMARK  Name = 
REMARK  5 active torsions:
REMARK  status: ('A' for Active; 'I' for Inactive)
REMARK    1  A    between atoms: C_1  and  O_2
REMARK    2  A    between atoms: O_2  and  C_3
REMARK    3  A    between atoms: C_7  and  C_8
REMARK    4  A    between atoms: C_9  and  C_10
REMARK    5  A    between atoms: C_13  and  O_14
REMARK                            x       y       z     vdW  Elec       q    Type
REMARK                         _______ _______ _______ _____ _____    ______ ____
ROOT
ATOM      1  C   UNL     1       0.363   9.168  20.887  0.00  0.00    +0.000 A 
ATOM      2  C   UNL     1       1.057   7.978  21.138  0.00  0.00    +0.000 A 
ATOM      3  C   UNL     1       1.938   7.454  20.190  0.00  0.00    +0.000 A 
ATOM      4  N   UNL     1       2.644   6.278  20.457  0.00  0.00    +0.000 N 
ATOM      5  C   UNL     1       3.473   5.686  19.526  0.00  0.00    +0.000 A 
ATOM      6  C   UNL     1       4.126   4.396  19.971  0.00  0.00    +0.000 C 
ATOM      7  C   UNL     1       3.682   6.219  18.298  0.00  0.00    +0.000 A 
ATOM      8  C   UNL     1       3.011   7.520  17.960  0.00  0.00    +0.000 A 
ATOM      9  O   UNL     1       3.190   8.086  16.885  0.00  0.00    +0.000 OA
ATOM     10  C   UNL     1       2.100   8.113  18.967  0.00  0.00    +0.000 A 
ATOM     11  C   UNL     1       1.404   9.294  18.693  0.00  0.00    +0.000 A 
ATOM     12  C   UNL     1       0.537   9.816  19.652  0.00  0.00    +0.000 A 
ATOM     13 CL   UNL     1      -0.302  11.282  19.283  0.00  0.00    +0.000 Cl
ATOM     14  H   UNL     1       2.520   5.823  21.353  0.00  0.00    +0.000 HD
ENDROOT
BRANCH   7  15
ATOM     15  C   UNL     1       4.498   5.536  17.284  0.00  0.00    +0.000 A 
ATOM     16  C   UNL     1       5.737   6.079  16.912  0.00  0.00    +0.000 A 
ATOM     17  C   UNL     1       6.493   5.484  15.901  0.00  0.00    +0.000 A 
ATOM     18  C   UNL     1       6.005   4.347  15.265  0.00  0.00    +0.000 A 
ATOM     19  C   UNL     1       4.792   3.781  15.642  0.00  0.00    +0.000 A 
ATOM     20  C   UNL     1       4.035   4.375  16.653  0.00  0.00    +0.000 A 
BRANCH  18  21
ATOM     21  O   UNL     1       6.694   3.754  14.248  0.00  0.00    +0.000 OA
ATOM     22  H   UNL     1       7.434   3.253  14.629  0.00  0.00    +0.000 HD
ENDBRANCH  18  21
ENDBRANCH   7  15
BRANCH   1  24
ATOM     23  C   UNL     1      -0.150   9.617  23.155  0.00  0.00    +0.000 C 
ATOM     24  O   UNL     1      -0.517   9.721  21.783  0.00  0.00    +0.000 OA
ENDBRANCH   1  24
TORSDOF 3
ENDMDL
MODEL 8
REMARK VINA RESULT:      -6.7      2.941      7.651
REMARK  Name = 
REMARK  5 active torsions:
REMARK  status: ('A' for Active; 'I' for Inactive)
REMARK    1  A    between atoms: C_1  and  O_2
REMARK    2  A    between atoms: O_2  and  C_3
REMARK    3  A    between atoms: C_7  and  C_8
REMARK    4  A    between atoms: C_9  and  C_10
REMARK    5  A    between atoms: C_13  and  O_14
REMARK                            x       y       z     vdW  Elec       q    Type
REMARK                         _______ _______ _______ _____ _____    ______ ____
ROOT
ATOM      1  C   UNL     1       0.725  10.477  20.817  0.00  0.00    +0.000 A 
ATOM      2  C   UNL     1       1.502  10.080  19.723  0.00  0.00    +0.000 A 
ATOM      3  C   UNL     1       1.779   8.731  19.496  0.00  0.00    +0.000 A 
ATOM      4  N   UNL     1       2.536   8.341  18.389  0.00  0.00    +0.000 N 
ATOM      5  C   UNL     1       2.892   7.028  18.162  0.00  0.00    +0.000 A 
ATOM      6  C   UNL     1       3.747   6.792  16.936  0.00  0.00    +0.000 C 
ATOM      7  C   UNL     1       2.510   6.020  18.983  0.00  0.00    +0.000 A 
ATOM      8  C   UNL     1       1.636   6.350  20.159  0.00  0.00    +0.000 A 
ATOM      9  O   UNL     1       1.211   5.484  20.920  0.00  0.00    +0.000 OA
ATOM     10  C   UNL     1       1.299   7.774  20.396  0.00  0.00    +0.000 A 
ATOM     11  C   UNL     1       0.534   8.152  21.504  0.00  0.00    +0.000 A 
ATOM     12  C   UNL     1       0.252   9.502  21.712  0.00  0.00    +0.000 A 
ATOM     13 CL   UNL     1      -0.702   9.933  23.087  0.00  0.00    +0.000 Cl
ATOM     14  H   UNL     1       2.864   9.050  17.744  0.00  0.00    +0.000 HD
ENDROOT
BRANCH   7  15
ATOM     15  C   UNL     1       2.966   4.637  18.780  0.00  0.00    +0.000 A 
ATOM     16  C   UNL     1       2.244   3.787  17.929  0.00  0.00    +0.000 A 
ATOM     17  C   UNL     1       2.620   2.452  17.780  0.00  0.00    +0.000 A 
ATOM     18  C   UNL     1       3.720   1.972  18.484  0.00  0.00    +0.000 A 
ATOM     19  C   UNL     1       4.463   2.809  19.310  0.00  0.00    +0.000 A 
ATOM     20  C   UNL     1       4.087   4.145  19.460  0.00  0.00    +0.000 A 
BRANCH  18  21
ATOM     21  O   UNL     1       4.102   0.665  18.396  0.00  0.00    +0.000 OA
ATOM     22  H   UNL     1       4.996   0.631  18.017  0.00  0.00    +0.000 HD
ENDBRANCH  18  21
ENDBRANCH   7  15
BRANCH   1  24
ATOM     23  C   UNL     1      -0.602  12.366  20.289  0.00  0.00    +0.000 C 
ATOM     24  O   UNL     1       0.429  11.790  21.086  0.00  0.00    +0.000 OA
ENDBRANCH   1  24
TORSDOF 3
ENDMDL
MODEL 9
REMARK VINA RESULT:      -6.7      3.110      6.965
REMARK  Name = 
REMARK  5 active torsions:
REMARK  status: ('A' for Active; 'I' for Inactive)
REMARK    1  A    between atoms: C_1  and  O_2
REMARK    2  A    between atoms: O_2  and  C_3
REMARK    3  A    between atoms: C_7  and  C_8
REMARK    4  A    between atoms: C_9  and  C_10
REMARK    5  A    between atoms: C_13  and  O_14
REMARK                            x       y       z     vdW  Elec       q    Type
REMARK                         _______ _______ _______ _____ _____    ______ ____
ROOT
ATOM      1  C   UNL     1       0.319   8.608  21.199  0.00  0.00    +0.000 A 
ATOM      2  C   UNL     1       1.098   7.449  21.298  0.00  0.00    +0.000 A 
ATOM      3  C   UNL     1       2.023   7.124  20.304  0.00  0.00    +0.000 A 
ATOM      4  N   UNL     1       2.812   5.978  20.420  0.00  0.00    +0.000 N 
ATOM      5  C   UNL     1       3.690   5.581  19.433  0.00  0.00    +0.000 A 
ATOM      6  C   UNL     1       4.434   4.294  19.709  0.00  0.00    +0.000 C 
ATOM      7  C   UNL     1       3.866   6.290  18.291  0.00  0.00    +0.000 A 
ATOM      8  C   UNL     1       3.103   7.573  18.122  0.00  0.00    +0.000 A 
ATOM      9  O   UNL     1       3.247   8.292  17.137  0.00  0.00    +0.000 OA
ATOM     10  C   UNL     1       2.143   7.955  19.184  0.00  0.00    +0.000 A 
ATOM     11  C   UNL     1       1.363   9.109  19.062  0.00  0.00    +0.000 A 
ATOM     12  C   UNL     1       0.452   9.430  20.068  0.00  0.00    +0.000 A 
ATOM     13 CL   UNL     1      -0.491  10.867  19.886  0.00  0.00    +0.000 Cl
ATOM     14  H   UNL     1       2.716   5.397  21.245  0.00  0.00    +0.000 HD
ENDROOT
BRANCH   7  15
ATOM     15  C   UNL     1       4.739   5.814  17.208  0.00  0.00    +0.000 A 
ATOM     16  C   UNL     1       4.301   4.774  16.373  0.00  0.00    +0.000 A 
ATOM     17  C   UNL     1       5.143   4.260  15.386  0.00  0.00    +0.000 A 
ATOM     18  C   UNL     1       6.421   4.789  15.239  0.00  0.00    +0.000 A 
ATOM     19  C   UNL     1       6.859   5.838  16.040  0.00  0.00    +0.000 A 
ATOM     20  C   UNL     1       6.018   6.352  17.028  0.00  0.00    +0.000 A 
BRANCH  18  21
ATOM     21  O   UNL     1       7.289   4.293  14.311  0.00  0.00    +0.000 OA
ATOM     22  H   UNL     1       7.877   3.656  14.749  0.00  0.00    +0.000 HD
ENDBRANCH  18  21
ENDBRANCH   7  15
BRANCH   1  24
ATOM     23  C   UNL     1      -0.090   9.639  23.293  0.00  0.00    +0.000 C 
ATOM     24  O   UNL     1      -0.606   8.968  22.147  0.00  0.00    +0.000 OA
ENDBRANCH   1  24
TORSDOF 3
ENDMDL
