MODEL 1
REMARK VINA RESULT:      -7.3      0.000      0.000
REMARK  Name = 
REMARK  6 active torsions:
REMARK  status: ('A' for Active; 'I' for Inactive)
REMARK    1  A    between atoms: C_1  and  C_2
REMARK    2  A    between atoms: C_2  and  O_3
REMARK    3  A    between atoms: O_3  and  C_4
REMARK    4  A    between atoms: C_7  and  N_8
REMARK    5  A    between atoms: N_15  and  C_16
REMARK    6  A    between atoms: N_24  and  C_25
REMARK                            x       y       z     vdW  Elec       q    Type
REMARK                         _______ _______ _______ _____ _____    ______ ____
ROOT
ATOM      1  N   UNL     1      -5.046  11.415  18.175  0.00  0.00    +0.000 N 
ATOM      2  C   UNL     1      -3.731  11.072  17.947  0.00  0.00    +0.000 A 
ATOM      3  N   UNL     1      -3.511  10.480  16.760  0.00  0.00    +0.000 NA
ATOM      4  C   UNL     1      -2.279   9.970  16.507  0.00  0.00    +0.000 A 
ATOM      5  C   UNL     1      -1.309   9.996  17.490  0.00  0.00    +0.000 A 
ATOM      6  N   UNL     1      -0.062   9.468  17.575  0.00  0.00    +0.000 NA
ATOM      7  C   UNL     1       0.377   9.755  18.789  0.00  0.00    +0.000 A 
ATOM      8  N   UNL     1       1.535   9.331  19.350  0.00  0.00    +0.000 N 
ATOM      9  N   UNL     1      -0.550  10.524  19.474  0.00  0.00    +0.000 N 
ATOM     10  C   UNL     1      -1.646  10.654  18.654  0.00  0.00    +0.000 A 
ATOM     11  N   UNL     1      -2.824  11.248  18.930  0.00  0.00    +0.000 NA
ATOM     12  H   UNL     1      -5.618  11.203  17.371  0.00  0.00    +0.000 HD
ATOM     13  H   UNL     1       2.119   9.980  19.876  0.00  0.00    +0.000 HD
ENDROOT
BRANCH   8  14
ATOM     14  C   UNL     1       2.237   8.192  18.896  0.00  0.00    +0.000 A 
ATOM     15  C   UNL     1       2.994   8.230  17.709  0.00  0.00    +0.000 A 
ATOM     16  C   UNL     1       3.700   7.110  17.274  0.00  0.00    +0.000 A 
ATOM     17  C   UNL     1       3.669   5.946  18.029  0.00  0.00    +0.000 A 
ATOM     18  F   UNL     1       4.351   4.873  17.610  0.00  0.00    +0.000 F 
ATOM     19  C   UNL     1       2.945   5.879  19.213  0.00  0.00    +0.000 A 
ATOM     20  C   UNL     1       2.231   6.999  19.631  0.00  0.00    +0.000 A 
ATOM     21  F   UNL     1       1.536   6.935  20.778  0.00  0.00    +0.000 F 
ENDBRANCH   8  14
BRANCH   1  25
ATOM     22  C   UNL     1      -7.528  14.125  20.357  0.00  0.00    +0.000 C 
ATOM     23  C   UNL     1      -6.810  14.632  19.102  0.00  0.00    +0.000 C 
ATOM     24  C   UNL     1      -6.303  13.489  18.233  0.00  0.00    +0.000 C 
ATOM     25  C   UNL     1      -5.377  12.548  19.014  0.00  0.00    +0.000 C 
ATOM     26  C   UNL     1      -6.087  12.033  20.271  0.00  0.00    +0.000 C 
ATOM     27  C   UNL     1      -6.616  13.171  21.140  0.00  0.00    +0.000 C 
BRANCH  22  28
ATOM     28  O   UNL     1      -7.883  15.209  21.226  0.00  0.00    +0.000 OA
BRANCH  28  30
ATOM     29  C   UNL     1      -6.321  16.767  22.175  0.00  0.00    +0.000 C 
ATOM     30  C   UNL     1      -7.160  16.411  20.965  0.00  0.00    +0.000 C 
ENDBRANCH  28  30
ENDBRANCH  22  28
ENDBRANCH   1  25
BRANCH   9  31
ATOM     31  C   UNL     1      -0.455  11.004  20.850  0.00  0.00    +0.000 C 
ATOM     32  C   UNL     1      -0.876   9.944  21.880  0.00  0.00    +0.000 C 
ATOM     33  C   UNL     1      -0.944  10.534  23.281  0.00  0.00    +0.000 C 
ATOM     34  O   UNL     1      -1.766  11.696  23.300  0.00  0.00    +0.000 OA
ATOM     35  C   UNL     1      -1.237  12.744  22.494  0.00  0.00    +0.000 C 
ATOM     36  C   UNL     1      -1.200  12.331  21.033  0.00  0.00    +0.000 C 
ENDBRANCH   9  31
TORSDOF 5
ENDMDL
MODEL 2
REMARK VINA RESULT:      -7.2      1.119      1.253
REMARK  Name = 
REMARK  6 active torsions:
REMARK  status: ('A' for Active; 'I' for Inactive)
REMARK    1  A    between atoms: C_1  and  C_2
REMARK    2  A    between atoms: C_2  and  O_3
REMARK    3  A    between atoms: O_3  and  C_4
REMARK    4  A    between atoms: C_7  and  N_8
REMARK    5  A    between atoms: N_15  and  C_16
REMARK    6  A    between atoms: N_24  and  C_25
REMARK                            x       y       z     vdW  Elec       q    Type
REMARK                         _______ _______ _______ _____ _____    ______ ____
ROOT
ATOM      1  N   UNL     1      -5.525  11.998  18.776  0.00  0.00    +0.000 N 
ATOM      2  C   UNL     1      -4.261  11.572  18.430  0.00  0.00    +0.000 A 
ATOM      3  N   UNL     1      -4.229  10.715  17.394  0.00  0.00    +0.000 NA
ATOM      4  C   UNL     1      -3.049  10.125  17.076  0.00  0.00    +0.000 A 
ATOM      5  C   UNL     1      -1.934  10.350  17.860  0.00  0.00    +0.000 A 
ATOM      6  N   UNL     1      -0.685   9.820  17.867  0.00  0.00    +0.000 NA
ATOM      7  C   UNL     1      -0.059  10.368  18.895  0.00  0.00    +0.000 A 
ATOM      8  N   UNL     1       1.178  10.053  19.349  0.00  0.00    +0.000 N 
ATOM      9  N   UNL     1      -0.871  11.302  19.519  0.00  0.00    +0.000 N 
ATOM     10  C   UNL     1      -2.085  11.270  18.876  0.00  0.00    +0.000 A 
ATOM     11  N   UNL     1      -3.209  11.946  19.187  0.00  0.00    +0.000 NA
ATOM     12  H   UNL     1      -6.216  11.621  18.145  0.00  0.00    +0.000 HD
ATOM     13  H   UNL     1       1.833  10.789  19.610  0.00  0.00    +0.000 HD
ENDROOT
BRANCH   8  14
ATOM     14  C   UNL     1       1.808   8.820  19.069  0.00  0.00    +0.000 A 
ATOM     15  C   UNL     1       2.520   8.623  17.870  0.00  0.00    +0.000 A 
ATOM     16  C   UNL     1       3.156   7.411  17.605  0.00  0.00    +0.000 A 
ATOM     17  C   UNL     1       3.099   6.390  18.543  0.00  0.00    +0.000 A 
ATOM     18  F   UNL     1       3.714   5.229  18.286  0.00  0.00    +0.000 F 
ATOM     19  C   UNL     1       2.417   6.556  19.742  0.00  0.00    +0.000 A 
ATOM     20  C   UNL     1       1.773   7.765  19.991  0.00  0.00    +0.000 A 
ATOM     21  F   UNL     1       1.120   7.925  21.153  0.00  0.00    +0.000 F 
ENDBRANCH   8  14
BRANCH   1  25
ATOM     22  C   UNL     1      -7.656  15.225  20.595  0.00  0.00    +0.000 C 
ATOM     23  C   UNL     1      -7.122  15.405  19.170  0.00  0.00    +0.000 C 
ATOM     24  C   UNL     1      -6.751  14.075  18.527  0.00  0.00    +0.000 C 
ATOM     25  C   UNL     1      -5.727  13.303  19.369  0.00  0.00    +0.000 C 
ATOM     26  C   UNL     1      -6.252  13.115  20.796  0.00  0.00    +0.000 C 
ATOM     27  C   UNL     1      -6.646  14.440  21.443  0.00  0.00    +0.000 C 
BRANCH  22  28
ATOM     28  O   UNL     1      -7.877  16.490  21.231  0.00  0.00    +0.000 OA
BRANCH  28  30
ATOM     29  C   UNL     1      -7.596  17.804  23.222  0.00  0.00    +0.000 C 
ATOM     30  C   UNL     1      -7.862  16.424  22.657  0.00  0.00    +0.000 C 
ENDBRANCH  28  30
ENDBRANCH  22  28
ENDBRANCH   1  25
BRANCH   9  31
ATOM     31  C   UNL     1      -0.560  12.085  20.712  0.00  0.00    +0.000 C 
ATOM     32  C   UNL     1      -1.507  11.785  21.884  0.00  0.00    +0.000 C 
ATOM     33  C   UNL     1      -1.276  12.746  23.040  0.00  0.00    +0.000 C 
ATOM     34  O   UNL     1      -1.341  14.097  22.594  0.00  0.00    +0.000 OA
ATOM     35  C   UNL     1      -0.314  14.406  21.658  0.00  0.00    +0.000 C 
ATOM     36  C   UNL     1      -0.475  13.582  20.392  0.00  0.00    +0.000 C 
ENDBRANCH   9  31
TORSDOF 5
ENDMDL
MODEL 3
REMARK VINA RESULT:      -7.1      4.841      9.907
REMARK  Name = 
REMARK  6 active torsions:
REMARK  status: ('A' for Active; 'I' for Inactive)
REMARK    1  A    between atoms: C_1  and  C_2
REMARK    2  A    between atoms: C_2  and  O_3
REMARK    3  A    between atoms: O_3  and  C_4
REMARK    4  A    between atoms: C_7  and  N_8
REMARK    5  A    between atoms: N_15  and  C_16
REMARK    6  A    between atoms: N_24  and  C_25
REMARK                            x       y       z     vdW  Elec       q    Type
REMARK                         _______ _______ _______ _____ _____    ______ ____
ROOT
ATOM      1  N   UNL     1       0.830   7.839  20.617  0.00  0.00    +0.000 N 
ATOM      2  C   UNL     1       0.469   8.918  21.394  0.00  0.00    +0.000 A 
ATOM      3  N   UNL     1      -0.320   8.610  22.438  0.00  0.00    +0.000 NA
ATOM      4  C   UNL     1      -0.849   9.621  23.173  0.00  0.00    +0.000 A 
ATOM      5  C   UNL     1      -0.638  10.932  22.791  0.00  0.00    +0.000 A 
ATOM      6  N   UNL     1      -1.126  12.117  23.238  0.00  0.00    +0.000 NA
ATOM      7  C   UNL     1      -0.624  13.045  22.442  0.00  0.00    +0.000 A 
ATOM      8  N   UNL     1      -0.926  14.365  22.449  0.00  0.00    +0.000 N 
ATOM      9  N   UNL     1       0.242  12.480  21.519  0.00  0.00    +0.000 N 
ATOM     10  C   UNL     1       0.210  11.120  21.721  0.00  0.00    +0.000 A 
ATOM     11  N   UNL     1       0.828  10.160  21.006  0.00  0.00    +0.000 NA
ATOM     12  H   UNL     1       0.471   6.980  21.007  0.00  0.00    +0.000 HD
ATOM     13  H   UNL     1      -0.187  15.063  22.370  0.00  0.00    +0.000 HD
ENDROOT
BRANCH   8  14
ATOM     14  C   UNL     1      -2.118  14.877  23.010  0.00  0.00    +0.000 A 
ATOM     15  C   UNL     1      -3.270  15.064  22.222  0.00  0.00    +0.000 A 
ATOM     16  C   UNL     1      -4.450  15.551  22.783  0.00  0.00    +0.000 A 
ATOM     17  C   UNL     1      -4.493  15.841  24.139  0.00  0.00    +0.000 A 
ATOM     18  F   UNL     1      -5.629  16.306  24.674  0.00  0.00    +0.000 F 
ATOM     19  C   UNL     1      -3.379  15.654  24.948  0.00  0.00    +0.000 A 
ATOM     20  C   UNL     1      -2.201  15.181  24.375  0.00  0.00    +0.000 A 
ATOM     21  F   UNL     1      -1.128  14.995  25.160  0.00  0.00    +0.000 F 
ENDBRANCH   8  14
BRANCH   1  25
ATOM     22  C   UNL     1       3.606   6.879  17.512  0.00  0.00    +0.000 C 
ATOM     23  C   UNL     1       3.829   6.288  18.909  0.00  0.00    +0.000 C 
ATOM     24  C   UNL     1       2.581   6.387  19.777  0.00  0.00    +0.000 C 
ATOM     25  C   UNL     1       2.088   7.834  19.900  0.00  0.00    +0.000 C 
ATOM     26  C   UNL     1       1.859   8.434  18.509  0.00  0.00    +0.000 C 
ATOM     27  C   UNL     1       3.098   8.323  17.624  0.00  0.00    +0.000 C 
BRANCH  22  28
ATOM     28  O   UNL     1       4.823   6.897  16.755  0.00  0.00    +0.000 OA
BRANCH  28  30
ATOM     29  C   UNL     1       7.109   7.226  17.411  0.00  0.00    +0.000 C 
ATOM     30  C   UNL     1       5.923   6.285  17.427  0.00  0.00    +0.000 C 
ENDBRANCH  28  30
ENDBRANCH  22  28
ENDBRANCH   1  25
BRANCH   9  31
ATOM     31  C   UNL     1       0.958  13.164  20.446  0.00  0.00    +0.000 C 
ATOM     32  C   UNL     1       0.858  12.428  19.100  0.00  0.00    +0.000 C 
ATOM     33  C   UNL     1       1.764  13.063  18.056  0.00  0.00    +0.000 C 
ATOM     34  O   UNL     1       3.098  13.170  18.543  0.00  0.00    +0.000 OA
ATOM     35  C   UNL     1       3.192  14.031  19.673  0.00  0.00    +0.000 C 
ATOM     36  C   UNL     1       2.407  13.468  20.844  0.00  0.00    +0.000 C 
ENDBRANCH   9  31
TORSDOF 5
ENDMDL
MODEL 4
REMARK VINA RESULT:      -7.1      5.297      9.224
REMARK  Name = 
REMARK  6 active torsions:
REMARK  status: ('A' for Active; 'I' for Inactive)
REMARK    1  A    between atoms: C_1  and  C_2
REMARK    2  A    between atoms: C_2  and  O_3
REMARK    3  A    between atoms: O_3  and  C_4
REMARK    4  A    between atoms: C_7  and  N_8
REMARK    5  A    between atoms: N_15  and  C_16
REMARK    6  A    between atoms: N_24  and  C_25
REMARK                            x       y       z     vdW  Elec       q    Type
REMARK                         _______ _______ _______ _____ _____    ______ ____
ROOT
ATOM      1  N   UNL     1       3.392  15.425  21.446  0.00  0.00    +0.000 N 
ATOM      2  C   UNL     1       2.494  14.834  20.584  0.00  0.00    +0.000 A 
ATOM      3  N   UNL     1       1.988  15.666  19.656  0.00  0.00    +0.000 NA
ATOM      4  C   UNL     1       0.986  15.216  18.858  0.00  0.00    +0.000 A 
ATOM      5  C   UNL     1       0.455  13.958  19.065  0.00  0.00    +0.000 A 
ATOM      6  N   UNL     1      -0.604  13.300  18.528  0.00  0.00    +0.000 NA
ATOM      7  C   UNL     1      -0.679  12.144  19.164  0.00  0.00    +0.000 A 
ATOM      8  N   UNL     1      -1.651  11.210  19.030  0.00  0.00    +0.000 N 
ATOM      9  N   UNL     1       0.365  12.014  20.067  0.00  0.00    +0.000 N 
ATOM     10  C   UNL     1       1.075  13.191  20.027  0.00  0.00    +0.000 A 
ATOM     11  N   UNL     1       2.124  13.553  20.792  0.00  0.00    +0.000 NA
ATOM     12  H   UNL     1       3.554  16.388  21.192  0.00  0.00    +0.000 HD
ATOM     13  H   UNL     1      -1.409  10.222  18.962  0.00  0.00    +0.000 HD
ENDROOT
BRANCH   8  14
ATOM     14  C   UNL     1      -2.935  11.506  18.520  0.00  0.00    +0.000 A 
ATOM     15  C   UNL     1      -3.278  11.199  17.190  0.00  0.00    +0.000 A 
ATOM     16  C   UNL     1      -4.552  11.476  16.696  0.00  0.00    +0.000 A 
ATOM     17  C   UNL     1      -5.500  12.046  17.533  0.00  0.00    +0.000 A 
ATOM     18  F   UNL     1      -6.724  12.307  17.056  0.00  0.00    +0.000 F 
ATOM     19  C   UNL     1      -5.200  12.348  18.856  0.00  0.00    +0.000 A 
ATOM     20  C   UNL     1      -3.920  12.081  19.335  0.00  0.00    +0.000 A 
ATOM     21  F   UNL     1      -3.634  12.367  20.615  0.00  0.00    +0.000 F 
ENDBRANCH   8  14
BRANCH   1  25
ATOM     22  C   UNL     1       7.191  14.660  23.249  0.00  0.00    +0.000 C 
ATOM     23  C   UNL     1       6.925  14.129  21.836  0.00  0.00    +0.000 C 
ATOM     24  C   UNL     1       5.722  14.802  21.190  0.00  0.00    +0.000 C 
ATOM     25  C   UNL     1       4.458  14.649  22.046  0.00  0.00    +0.000 C 
ATOM     26  C   UNL     1       4.711  15.180  23.461  0.00  0.00    +0.000 C 
ATOM     27  C   UNL     1       5.928  14.526  24.110  0.00  0.00    +0.000 C 
BRANCH  22  28
ATOM     28  O   UNL     1       8.243  13.928  23.891  0.00  0.00    +0.000 OA
BRANCH  28  30
ATOM     29  C   UNL     1       8.137  11.539  24.114  0.00  0.00    +0.000 C 
ATOM     30  C   UNL     1       8.563  12.699  23.239  0.00  0.00    +0.000 C 
ENDBRANCH  28  30
ENDBRANCH  22  28
ENDBRANCH   1  25
BRANCH   9  31
ATOM     31  C   UNL     1       0.605  10.906  20.986  0.00  0.00    +0.000 C 
ATOM     32  C   UNL     1       0.723   9.552  20.268  0.00  0.00    +0.000 C 
ATOM     33  C   UNL     1       0.784   8.403  21.264  0.00  0.00    +0.000 C 
ATOM     34  O   UNL     1      -0.309   8.466  22.174  0.00  0.00    +0.000 OA
ATOM     35  C   UNL     1      -0.275   9.641  22.978  0.00  0.00    +0.000 C 
ATOM     36  C   UNL     1      -0.429  10.883  22.118  0.00  0.00    +0.000 C 
ENDBRANCH   9  31
TORSDOF 5
ENDMDL
MODEL 5
REMARK VINA RESULT:      -7.1      4.711      9.916
REMARK  Name = 
REMARK  6 active torsions:
REMARK  status: ('A' for Active; 'I' for Inactive)
REMARK    1  A    between atoms: C_1  and  C_2
REMARK    2  A    between atoms: C_2  and  O_3
REMARK    3  A    between atoms: O_3  and  C_4
REMARK    4  A    between atoms: C_7  and  N_8
REMARK    5  A    between atoms: N_15  and  C_16
REMARK    6  A    between atoms: N_24  and  C_25
REMARK                            x       y       z     vdW  Elec       q    Type
REMARK                         _______ _______ _______ _____ _____    ______ ____
ROOT
ATOM      1  N   UNL     1       0.984   7.495  20.437  0.00  0.00    +0.000 N 
ATOM      2  C   UNL     1       0.603   8.561  21.224  0.00  0.00    +0.000 A 
ATOM      3  N   UNL     1      -0.236   8.238  22.225  0.00  0.00    +0.000 NA
ATOM      4  C   UNL     1      -0.785   9.239  22.960  0.00  0.00    +0.000 A 
ATOM      5  C   UNL     1      -0.539  10.555  22.621  0.00  0.00    +0.000 A 
ATOM      6  N   UNL     1      -1.031  11.736  23.075  0.00  0.00    +0.000 NA
ATOM      7  C   UNL     1      -0.481  12.676  22.326  0.00  0.00    +0.000 A 
ATOM      8  N   UNL     1      -0.767  14.000  22.352  0.00  0.00    +0.000 N 
ATOM      9  N   UNL     1       0.417  12.121  21.428  0.00  0.00    +0.000 N 
ATOM     10  C   UNL     1       0.359  10.757  21.594  0.00  0.00    +0.000 A 
ATOM     11  N   UNL     1       0.995   9.806  20.884  0.00  0.00    +0.000 NA
ATOM     12  H   UNL     1       0.597   6.632  20.789  0.00  0.00    +0.000 HD
ATOM     13  H   UNL     1      -0.016  14.688  22.324  0.00  0.00    +0.000 HD
ENDROOT
BRANCH   8  14
ATOM     14  C   UNL     1      -1.975  14.515  22.872  0.00  0.00    +0.000 A 
ATOM     15  C   UNL     1      -3.137  14.582  22.079  0.00  0.00    +0.000 A 
ATOM     16  C   UNL     1      -4.333  15.073  22.601  0.00  0.00    +0.000 A 
ATOM     17  C   UNL     1      -4.382  15.486  23.925  0.00  0.00    +0.000 A 
ATOM     18  F   UNL     1      -5.533  15.955  24.423  0.00  0.00    +0.000 F 
ATOM     19  C   UNL     1      -3.259  15.420  24.739  0.00  0.00    +0.000 A 
ATOM     20  C   UNL     1      -2.065  14.941  24.204  0.00  0.00    +0.000 A 
ATOM     21  F   UNL     1      -0.982  14.871  24.994  0.00  0.00    +0.000 F 
ENDBRANCH   8  14
BRANCH   1  25
ATOM     22  C   UNL     1       3.946   6.392  17.561  0.00  0.00    +0.000 C 
ATOM     23  C   UNL     1       4.134   5.953  19.018  0.00  0.00    +0.000 C 
ATOM     24  C   UNL     1       2.844   6.067  19.820  0.00  0.00    +0.000 C 
ATOM     25  C   UNL     1       2.273   7.490  19.777  0.00  0.00    +0.000 C 
ATOM     26  C   UNL     1       2.079   7.938  18.324  0.00  0.00    +0.000 C 
ATOM     27  C   UNL     1       3.361   7.809  17.507  0.00  0.00    +0.000 C 
BRANCH  22  28
ATOM     28  O   UNL     1       5.195   6.402  16.857  0.00  0.00    +0.000 OA
BRANCH  28  30
ATOM     29  C   UNL     1       7.370   7.191  17.502  0.00  0.00    +0.000 C 
ATOM     30  C   UNL     1       6.321   6.114  17.686  0.00  0.00    +0.000 C 
ENDBRANCH  28  30
ENDBRANCH  22  28
ENDBRANCH   1  25
BRANCH   9  31
ATOM     31  C   UNL     1       1.189  12.821  20.405  0.00  0.00    +0.000 C 
ATOM     32  C   UNL     1       2.358  13.629  20.990  0.00  0.00    +0.000 C 
ATOM     33  C   UNL     1       3.022  14.490  19.925  0.00  0.00    +0.000 C 
ATOM     34  O   UNL     1       2.058  15.295  19.255  0.00  0.00    +0.000 OA
ATOM     35  C   UNL     1       1.103  14.514  18.543  0.00  0.00    +0.000 C 
ATOM     36  C   UNL     1       0.285  13.665  19.500  0.00  0.00    +0.000 C 
ENDBRANCH   9  31
TORSDOF 5
ENDMDL
MODEL 6
REMARK VINA RESULT:      -7.0      3.866     10.028
REMARK  Name = 
REMARK  6 active torsions:
REMARK  status: ('A' for Active; 'I' for Inactive)
REMARK    1  A    between atoms: C_1  and  C_2
REMARK    2  A    between atoms: C_2  and  O_3
REMARK    3  A    between atoms: O_3  and  C_4
REMARK    4  A    between atoms: C_7  and  N_8
REMARK    5  A    between atoms: N_15  and  C_16
REMARK    6  A    between atoms: N_24  and  C_25
REMARK                            x       y       z     vdW  Elec       q    Type
REMARK                         _______ _______ _______ _____ _____    ______ ____
ROOT
ATOM      1  N   UNL     1       1.816   6.917  20.587  0.00  0.00    +0.000 N 
ATOM      2  C   UNL     1       1.343   8.191  20.817  0.00  0.00    +0.000 A 
ATOM      3  N   UNL     1       1.605   8.666  22.047  0.00  0.00    +0.000 NA
ATOM      4  C   UNL     1       1.051   9.848  22.418  0.00  0.00    +0.000 A 
ATOM      5  C   UNL     1       0.175  10.494  21.568  0.00  0.00    +0.000 A 
ATOM      6  N   UNL     1      -0.610  11.592  21.707  0.00  0.00    +0.000 NA
ATOM      7  C   UNL     1      -1.294  11.700  20.580  0.00  0.00    +0.000 A 
ATOM      8  N   UNL     1      -2.280  12.591  20.316  0.00  0.00    +0.000 N 
ATOM      9  N   UNL     1      -0.912  10.717  19.681  0.00  0.00    +0.000 N 
ATOM     10  C   UNL     1       0.008   9.923  20.324  0.00  0.00    +0.000 A 
ATOM     11  N   UNL     1       0.593   8.796  19.872  0.00  0.00    +0.000 NA
ATOM     12  H   UNL     1       2.331   6.576  21.384  0.00  0.00    +0.000 HD
ATOM     13  H   UNL     1      -2.309  13.075  19.420  0.00  0.00    +0.000 HD
ENDROOT
BRANCH   8  14
ATOM     14  C   UNL     1      -3.012  13.249  21.330  0.00  0.00    +0.000 A 
ATOM     15  C   UNL     1      -2.423  14.264  22.108  0.00  0.00    +0.000 A 
ATOM     16  C   UNL     1      -3.154  14.925  23.095  0.00  0.00    +0.000 A 
ATOM     17  C   UNL     1      -4.484  14.588  23.301  0.00  0.00    +0.000 A 
ATOM     18  F   UNL     1      -5.184  15.227  24.247  0.00  0.00    +0.000 F 
ATOM     19  C   UNL     1      -5.100  13.602  22.540  0.00  0.00    +0.000 A 
ATOM     20  C   UNL     1      -4.357  12.938  21.567  0.00  0.00    +0.000 A 
ATOM     21  F   UNL     1      -4.956  11.990  20.829  0.00  0.00    +0.000 F 
ENDBRANCH   8  14
BRANCH   1  25
ATOM     22  C   UNL     1       3.923   4.733  17.578  0.00  0.00    +0.000 C 
ATOM     23  C   UNL     1       4.194   6.235  17.725  0.00  0.00    +0.000 C 
ATOM     24  C   UNL     1       3.690   6.779  19.055  0.00  0.00    +0.000 C 
ATOM     25  C   UNL     1       2.195   6.501  19.253  0.00  0.00    +0.000 C 
ATOM     26  C   UNL     1       1.913   5.001  19.111  0.00  0.00    +0.000 C 
ATOM     27  C   UNL     1       2.432   4.441  17.789  0.00  0.00    +0.000 C 
BRANCH  22  28
ATOM     28  O   UNL     1       4.284   4.265  16.272  0.00  0.00    +0.000 OA
BRANCH  28  30
ATOM     29  C   UNL     1       5.950   4.156  14.545  0.00  0.00    +0.000 C 
ATOM     30  C   UNL     1       5.394   4.959  15.703  0.00  0.00    +0.000 C 
ENDBRANCH  28  30
ENDBRANCH  22  28
ENDBRANCH   1  25
BRANCH   9  31
ATOM     31  C   UNL     1      -1.463  10.474  18.351  0.00  0.00    +0.000 C 
ATOM     32  C   UNL     1      -1.665  11.768  17.545  0.00  0.00    +0.000 C 
ATOM     33  C   UNL     1      -2.410  11.498  16.247  0.00  0.00    +0.000 C 
ATOM     34  O   UNL     1      -3.622  10.793  16.497  0.00  0.00    +0.000 OA
ATOM     35  C   UNL     1      -3.391   9.504  17.054  0.00  0.00    +0.000 C 
ATOM     36  C   UNL     1      -2.732   9.618  18.418  0.00  0.00    +0.000 C 
ENDBRANCH   9  31
TORSDOF 5
ENDMDL
MODEL 7
REMARK VINA RESULT:      -6.9      4.601      9.917
REMARK  Name = 
REMARK  6 active torsions:
REMARK  status: ('A' for Active; 'I' for Inactive)
REMARK    1  A    between atoms: C_1  and  C_2
REMARK    2  A    between atoms: C_2  and  O_3
REMARK    3  A    between atoms: O_3  and  C_4
REMARK    4  A    between atoms: C_7  and  N_8
REMARK    5  A    between atoms: N_15  and  C_16
REMARK    6  A    between atoms: N_24  and  C_25
REMARK                            x       y       z     vdW  Elec       q    Type
REMARK                         _______ _______ _______ _____ _____    ______ ____
ROOT
ATOM      1  N   UNL     1       0.969   7.486  20.407  0.00  0.00    +0.000 N 
ATOM      2  C   UNL     1       0.610   8.554  21.200  0.00  0.00    +0.000 A 
ATOM      3  N   UNL     1      -0.219   8.240  22.212  0.00  0.00    +0.000 NA
ATOM      4  C   UNL     1      -0.747   9.246  22.955  0.00  0.00    +0.000 A 
ATOM      5  C   UNL     1      -0.492  10.560  22.613  0.00  0.00    +0.000 A 
ATOM      6  N   UNL     1      -0.966  11.745  23.075  0.00  0.00    +0.000 NA
ATOM      7  C   UNL     1      -0.416  12.680  22.318  0.00  0.00    +0.000 A 
ATOM      8  N   UNL     1      -0.687  14.007  22.350  0.00  0.00    +0.000 N 
ATOM      9  N   UNL     1       0.464  12.116  21.408  0.00  0.00    +0.000 N 
ATOM     10  C   UNL     1       0.394  10.753  21.575  0.00  0.00    +0.000 A 
ATOM     11  N   UNL     1       1.011   9.796  20.855  0.00  0.00    +0.000 NA
ATOM     12  H   UNL     1       0.578   6.627  20.764  0.00  0.00    +0.000 HD
ATOM     13  H   UNL     1       0.071  14.687  22.312  0.00  0.00    +0.000 HD
ENDROOT
BRANCH   8  14
ATOM     14  C   UNL     1      -1.883  14.534  22.886  0.00  0.00    +0.000 A 
ATOM     15  C   UNL     1      -1.937  15.015  24.208  0.00  0.00    +0.000 A 
ATOM     16  C   UNL     1      -3.115  15.551  24.728  0.00  0.00    +0.000 A 
ATOM     17  C   UNL     1      -4.244  15.627  23.925  0.00  0.00    +0.000 A 
ATOM     18  F   UNL     1      -5.371  16.146  24.427  0.00  0.00    +0.000 F 
ATOM     19  C   UNL     1      -4.221  15.175  22.611  0.00  0.00    +0.000 A 
ATOM     20  C   UNL     1      -3.044  14.628  22.107  0.00  0.00    +0.000 A 
ATOM     21  F   UNL     1      -3.022  14.198  20.835  0.00  0.00    +0.000 F 
ENDBRANCH   8  14
BRANCH   1  25
ATOM     22  C   UNL     1       3.875   6.368  17.480  0.00  0.00    +0.000 C 
ATOM     23  C   UNL     1       4.074   5.910  18.929  0.00  0.00    +0.000 C 
ATOM     24  C   UNL     1       2.798   6.035  19.749  0.00  0.00    +0.000 C 
ATOM     25  C   UNL     1       2.249   7.468  19.730  0.00  0.00    +0.000 C 
ATOM     26  C   UNL     1       2.043   7.936  18.285  0.00  0.00    +0.000 C 
ATOM     27  C   UNL     1       3.312   7.796  17.450  0.00  0.00    +0.000 C 
BRANCH  22  28
ATOM     28  O   UNL     1       5.114   6.367  16.759  0.00  0.00    +0.000 OA
BRANCH  28  30
ATOM     29  C   UNL     1       7.320   7.020  17.450  0.00  0.00    +0.000 C 
ATOM     30  C   UNL     1       6.234   5.969  17.549  0.00  0.00    +0.000 C 
ENDBRANCH  28  30
ENDBRANCH  22  28
ENDBRANCH   1  25
BRANCH   9  31
ATOM     31  C   UNL     1       1.230  12.809  20.376  0.00  0.00    +0.000 C 
ATOM     32  C   UNL     1       2.465  13.532  20.935  0.00  0.00    +0.000 C 
ATOM     33  C   UNL     1       3.130  14.392  19.870  0.00  0.00    +0.000 C 
ATOM     34  O   UNL     1       2.185  15.271  19.269  0.00  0.00    +0.000 OA
ATOM     35  C   UNL     1       1.159  14.568  18.576  0.00  0.00    +0.000 C 
ATOM     36  C   UNL     1       0.336  13.731  19.539  0.00  0.00    +0.000 C 
ENDBRANCH   9  31
TORSDOF 5
ENDMDL
MODEL 8
REMARK VINA RESULT:      -6.9      3.947     10.083
REMARK  Name = 
REMARK  6 active torsions:
REMARK  status: ('A' for Active; 'I' for Inactive)
REMARK    1  A    between atoms: C_1  and  C_2
REMARK    2  A    between atoms: C_2  and  O_3
REMARK    3  A    between atoms: O_3  and  C_4
REMARK    4  A    between atoms: C_7  and  N_8
REMARK    5  A    between atoms: N_15  and  C_16
REMARK    6  A    between atoms: N_24  and  C_25
REMARK                            x       y       z     vdW  Elec       q    Type
REMARK                         _______ _______ _______ _____ _____    ______ ____
ROOT
ATOM      1  N   UNL     1       1.802   7.202  20.409  0.00  0.00    +0.000 N 
ATOM      2  C   UNL     1       1.272   8.466  20.553  0.00  0.00    +0.000 A 
ATOM      3  N   UNL     1       1.544   9.050  21.733  0.00  0.00    +0.000 NA
ATOM      4  C   UNL     1       0.941  10.231  22.028  0.00  0.00    +0.000 A 
ATOM      5  C   UNL     1       0.010  10.762  21.158  0.00  0.00    +0.000 A 
ATOM      6  N   UNL     1      -0.826  11.829  21.236  0.00  0.00    +0.000 NA
ATOM      7  C   UNL     1      -1.546  11.813  20.127  0.00  0.00    +0.000 A 
ATOM      8  N   UNL     1      -2.583  12.630  19.826  0.00  0.00    +0.000 N 
ATOM      9  N   UNL     1      -1.140  10.780  19.296  0.00  0.00    +0.000 N 
ATOM     10  C   UNL     1      -0.163  10.086  19.970  0.00  0.00    +0.000 A 
ATOM     11  N   UNL     1       0.466   8.957  19.589  0.00  0.00    +0.000 NA
ATOM     12  H   UNL     1       2.357   6.952  21.214  0.00  0.00    +0.000 HD
ATOM     13  H   UNL     1      -2.662  13.039  18.896  0.00  0.00    +0.000 HD
ENDROOT
BRANCH   8  14
ATOM     14  C   UNL     1      -3.319  13.332  20.807  0.00  0.00    +0.000 A 
ATOM     15  C   UNL     1      -4.367  12.710  21.512  0.00  0.00    +0.000 A 
ATOM     16  C   UNL     1      -5.079  13.400  22.493  0.00  0.00    +0.000 A 
ATOM     17  C   UNL     1      -4.737  14.711  22.790  0.00  0.00    +0.000 A 
ATOM     18  F   UNL     1      -5.421  15.369  23.735  0.00  0.00    +0.000 F 
ATOM     19  C   UNL     1      -3.698  15.350  22.124  0.00  0.00    +0.000 A 
ATOM     20  C   UNL     1      -3.004  14.657  21.136  0.00  0.00    +0.000 A 
ATOM     21  F   UNL     1      -1.996  15.274  20.498  0.00  0.00    +0.000 F 
ENDBRANCH   8  14
BRANCH   1  25
ATOM     22  C   UNL     1       4.066   5.056  17.488  0.00  0.00    +0.000 C 
ATOM     23  C   UNL     1       4.080   6.588  17.452  0.00  0.00    +0.000 C 
ATOM     24  C   UNL     1       3.573   7.196  18.753  0.00  0.00    +0.000 C 
ATOM     25  C   UNL     1       2.164   6.699  19.101  0.00  0.00    +0.000 C 
ATOM     26  C   UNL     1       2.139   5.168  19.142  0.00  0.00    +0.000 C 
ATOM     27  C   UNL     1       2.663   4.549  17.850  0.00  0.00    +0.000 C 
BRANCH  22  28
ATOM     28  O   UNL     1       4.421   4.503  16.214  0.00  0.00    +0.000 OA
BRANCH  28  30
ATOM     29  C   UNL     1       6.114   4.006  14.586  0.00  0.00    +0.000 C 
ATOM     30  C   UNL     1       5.740   4.844  15.790  0.00  0.00    +0.000 C 
ENDBRANCH  28  30
ENDBRANCH  22  28
ENDBRANCH   1  25
BRANCH   9  31
ATOM     31  C   UNL     1      -1.716  10.406  18.008  0.00  0.00    +0.000 C 
ATOM     32  C   UNL     1      -1.861  11.600  17.051  0.00  0.00    +0.000 C 
ATOM     33  C   UNL     1      -2.631  11.211  15.798  0.00  0.00    +0.000 C 
ATOM     34  O   UNL     1      -3.874  10.605  16.137  0.00  0.00    +0.000 OA
ATOM     35  C   UNL     1      -3.702   9.383  16.847  0.00  0.00    +0.000 C 
ATOM     36  C   UNL     1      -3.026   9.630  18.184  0.00  0.00    +0.000 C 
ENDBRANCH   9  31
TORSDOF 5
ENDMDL
MODEL 9
REMARK VINA RESULT:      -6.9      5.462      9.234
REMARK  Name = 
REMARK  6 active torsions:
REMARK  status: ('A' for Active; 'I' for Inactive)
REMARK    1  A    between atoms: C_1  and  C_2
REMARK    2  A    between atoms: C_2  and  O_3
REMARK    3  A    between atoms: O_3  and  C_4
REMARK    4  A    between atoms: C_7  and  N_8
REMARK    5  A    between atoms: N_15  and  C_16
REMARK    6  A    between atoms: N_24  and  C_25
REMARK                            x       y       z     vdW  Elec       q    Type
REMARK                         _______ _______ _______ _____ _____    ______ ____
ROOT
ATOM      1  N   UNL     1       3.483  15.428  21.155  0.00  0.00    +0.000 N 
ATOM      2  C   UNL     1       2.567  14.805  20.335  0.00  0.00    +0.000 A 
ATOM      3  N   UNL     1       2.081  15.585  19.354  0.00  0.00    +0.000 NA
ATOM      4  C   UNL     1       1.065  15.110  18.589  0.00  0.00    +0.000 A 
ATOM      5  C   UNL     1       0.503  13.882  18.880  0.00  0.00    +0.000 A 
ATOM      6  N   UNL     1      -0.575  13.218  18.389  0.00  0.00    +0.000 NA
ATOM      7  C   UNL     1      -0.678  12.108  19.101  0.00  0.00    +0.000 A 
ATOM      8  N   UNL     1      -1.673  11.193  19.030  0.00  0.00    +0.000 N 
ATOM      9  N   UNL     1       0.365  12.012  20.009  0.00  0.00    +0.000 N 
ATOM     10  C   UNL     1       1.106  13.165  19.891  0.00  0.00    +0.000 A 
ATOM     11  N   UNL     1       2.166  13.550  20.628  0.00  0.00    +0.000 NA
ATOM     12  H   UNL     1       3.669  16.367  20.837  0.00  0.00    +0.000 HD
ATOM     13  H   UNL     1      -1.457  10.197  19.028  0.00  0.00    +0.000 HD
ENDROOT
BRANCH   8  14
ATOM     14  C   UNL     1      -2.951  11.487  18.504  0.00  0.00    +0.000 A 
ATOM     15  C   UNL     1      -3.946  12.083  19.302  0.00  0.00    +0.000 A 
ATOM     16  C   UNL     1      -5.200  12.390  18.774  0.00  0.00    +0.000 A 
ATOM     17  C   UNL     1      -5.464  12.118  17.440  0.00  0.00    +0.000 A 
ATOM     18  F   UNL     1      -6.668  12.416  16.936  0.00  0.00    +0.000 F 
ATOM     19  C   UNL     1      -4.500  11.544  16.620  0.00  0.00    +0.000 A 
ATOM     20  C   UNL     1      -3.256  11.229  17.161  0.00  0.00    +0.000 A 
ATOM     21  F   UNL     1      -2.324  10.680  16.366  0.00  0.00    +0.000 F 
ENDBRANCH   8  14
BRANCH   1  25
ATOM     22  C   UNL     1       7.153  14.727  23.229  0.00  0.00    +0.000 C 
ATOM     23  C   UNL     1       7.027  14.258  21.775  0.00  0.00    +0.000 C 
ATOM     24  C   UNL     1       5.851  14.914  21.064  0.00  0.00    +0.000 C 
ATOM     25  C   UNL     1       4.531  14.666  21.804  0.00  0.00    +0.000 C 
ATOM     26  C   UNL     1       4.645  15.134  23.259  0.00  0.00    +0.000 C 
ATOM     27  C   UNL     1       5.832  14.497  23.975  0.00  0.00    +0.000 C 
BRANCH  22  28
ATOM     28  O   UNL     1       8.182  14.005  23.920  0.00  0.00    +0.000 OA
BRANCH  28  30
ATOM     29  C   UNL     1       8.639  13.659  26.253  0.00  0.00    +0.000 C 
ATOM     30  C   UNL     1       8.633  14.653  25.109  0.00  0.00    +0.000 C 
ENDBRANCH  28  30
ENDBRANCH  22  28
ENDBRANCH   1  25
BRANCH   9  31
ATOM     31  C   UNL     1       0.579  10.961  21.000  0.00  0.00    +0.000 C 
ATOM     32  C   UNL     1       0.724   9.568  20.368  0.00  0.00    +0.000 C 
ATOM     33  C   UNL     1       0.758   8.481  21.431  0.00  0.00    +0.000 C 
ATOM     34  O   UNL     1      -0.364   8.592  22.302  0.00  0.00    +0.000 OA
ATOM     35  C   UNL     1      -0.359   9.812  23.035  0.00  0.00    +0.000 C 
ATOM     36  C   UNL     1      -0.489  11.001  22.098  0.00  0.00    +0.000 C 
ENDBRANCH   9  31
TORSDOF 5
ENDMDL
