MODEL 1
REMARK VINA RESULT:      -9.1      0.000      0.000
REMARK  Name = 
REMARK  6 active torsions:
REMARK  status: ('A' for Active; 'I' for Inactive)
REMARK    1  A    between atoms: C_1  and  C_2
REMARK    2  A    between atoms: C_4  and  C_5
REMARK    3  A    between atoms: P_11  and  O_13
REMARK    4  A    between atoms: O_13  and  C_14
REMARK    5  A    between atoms: C_14  and  C_15
REMARK    6  A    between atoms: C_18  and  N_19
REMARK                            x       y       z     vdW  Elec       q    Type
REMARK                         _______ _______ _______ _____ _____    ______ ____
ROOT
ATOM      1  C   UNL     1       1.887   8.816  19.367  0.00  0.00    +0.000 C 
ATOM      2  C   UNL     1       2.257   8.928  17.898  0.00  0.00    +0.000 C 
ATOM      3  C   UNL     1       3.036   7.652  17.663  0.00  0.00    +0.000 C 
ATOM      4  C   UNL     1       2.317   6.623  18.553  0.00  0.00    +0.000 C 
ATOM      5  O   UNL     1       1.721   7.398  19.635  0.00  0.00    +0.000 OA
ENDROOT
BRANCH   4   6
ATOM      6  N   UNL     1       3.211   5.609  19.097  0.00  0.00    +0.000 N 
ATOM      7  C   UNL     1       4.538   5.513  18.761  0.00  0.00    +0.000 A 
ATOM      8  N   UNL     1       4.994   4.291  18.888  0.00  0.00    +0.000 NA
ATOM      9  C   UNL     1       4.064   3.698  19.708  0.00  0.00    +0.000 A 
ATOM     10  C   UNL     1       4.133   2.484  20.408  0.00  0.00    +0.000 A 
ATOM     11  N   UNL     1       5.154   1.564  20.174  0.00  0.00    +0.000 N 
ATOM     12  N   UNL     1       3.261   2.289  21.419  0.00  0.00    +0.000 NA
ATOM     13  C   UNL     1       2.301   3.225  21.610  0.00  0.00    +0.000 A 
ATOM     14  N   UNL     1       2.023   4.340  20.870  0.00  0.00    +0.000 NA
ATOM     15  C   UNL     1       2.980   4.540  19.947  0.00  0.00    +0.000 A 
ATOM     16  H   UNL     1       5.866   1.951  19.557  0.00  0.00    +0.000 HD
ATOM     17  H   UNL     1       5.496   1.161  21.037  0.00  0.00    +0.000 HD
ENDBRANCH   4   6
BRANCH   1  18
ATOM     18  C   UNL     1       0.639   9.635  19.770  0.00  0.00    +0.000 C 
BRANCH  18  19
ATOM     19  O   UNL     1       0.827  11.018  19.501  0.00  0.00    +0.000 OA
BRANCH  19  30
ATOM     20  C   UNL     1      -6.952  12.017  17.860  0.00  0.00    +0.000 C 
ATOM     21  C   UNL     1      -5.456  11.851  17.909  0.00  0.00    +0.000 A 
ATOM     22  C   UNL     1      -4.768  11.299  16.836  0.00  0.00    +0.000 A 
ATOM     23  C   UNL     1      -3.363  11.116  16.883  0.00  0.00    +0.000 A 
ATOM     24  C   UNL     1      -2.652  10.541  15.695  0.00  0.00    +0.000 C 
ATOM     25  C   UNL     1      -2.666  11.501  18.035  0.00  0.00    +0.000 A 
ATOM     26  C   UNL     1      -3.346  12.071  19.127  0.00  0.00    +0.000 A 
ATOM     27  C   UNL     1      -4.744  12.259  19.043  0.00  0.00    +0.000 A 
ATOM     28  C   UNL     1      -2.603  12.546  20.352  0.00  0.00    +0.000 C 
ATOM     29  O   UNL     1      -1.370  11.868  20.519  0.00  0.00    +0.000 OA
ATOM     30  P   UNL     1      -0.424  12.002  19.207  0.00  0.00    +0.000 P 
ATOM     31  O   UNL     1      -0.025  13.414  18.901  0.00  0.00    +0.000 OA
ATOM     32  O   UNL     1      -1.310  11.279  18.079  0.00  0.00    +0.000 OA
ENDBRANCH  19  30
ENDBRANCH  18  19
ENDBRANCH   1  18
TORSDOF 4
ENDMDL
MODEL 2
REMARK VINA RESULT:      -9.0      1.425      1.737
REMARK  Name = 
REMARK  6 active torsions:
REMARK  status: ('A' for Active; 'I' for Inactive)
REMARK    1  A    between atoms: C_1  and  C_2
REMARK    2  A    between atoms: C_4  and  C_5
REMARK    3  A    between atoms: P_11  and  O_13
REMARK    4  A    between atoms: O_13  and  C_14
REMARK    5  A    between atoms: C_14  and  C_15
REMARK    6  A    between atoms: C_18  and  N_19
REMARK                            x       y       z     vdW  Elec       q    Type
REMARK                         _______ _______ _______ _____ _____    ______ ____
ROOT
ATOM      1  C   UNL     1       1.050   9.291  19.005  0.00  0.00    +0.000 C 
ATOM      2  C   UNL     1       0.918   9.253  20.518  0.00  0.00    +0.000 C 
ATOM      3  C   UNL     1       1.248   7.810  20.834  0.00  0.00    +0.000 C 
ATOM      4  C   UNL     1       2.334   7.456  19.803  0.00  0.00    +0.000 C 
ATOM      5  O   UNL     1       2.086   8.332  18.664  0.00  0.00    +0.000 OA
ENDROOT
BRANCH   4   6
ATOM      6  N   UNL     1       2.290   6.061  19.379  0.00  0.00    +0.000 N 
ATOM      7  C   UNL     1       2.412   5.665  18.071  0.00  0.00    +0.000 A 
ATOM      8  N   UNL     1       1.814   4.522  17.841  0.00  0.00    +0.000 NA
ATOM      9  C   UNL     1       1.673   3.990  19.101  0.00  0.00    +0.000 A 
ATOM     10  C   UNL     1       1.343   2.681  19.487  0.00  0.00    +0.000 A 
ATOM     11  N   UNL     1       0.881   1.743  18.565  0.00  0.00    +0.000 N 
ATOM     12  N   UNL     1       1.617   2.311  20.755  0.00  0.00    +0.000 NA
ATOM     13  C   UNL     1       2.080   3.262  21.602  0.00  0.00    +0.000 A 
ATOM     14  N   UNL     1       2.251   4.600  21.386  0.00  0.00    +0.000 NA
ATOM     15  C   UNL     1       2.065   4.893  20.087  0.00  0.00    +0.000 A 
ATOM     16  H   UNL     1       0.951   2.096  17.612  0.00  0.00    +0.000 HD
ATOM     17  H   UNL     1       1.293   0.832  18.725  0.00  0.00    +0.000 HD
ENDBRANCH   4   6
BRANCH   1  18
ATOM     18  C   UNL     1       1.343  10.696  18.429  0.00  0.00    +0.000 C 
BRANCH  18  19
ATOM     19  O   UNL     1       0.922  11.714  19.328  0.00  0.00    +0.000 OA
BRANCH  19  30
ATOM     20  C   UNL     1      -7.003  11.588  18.156  0.00  0.00    +0.000 C 
ATOM     21  C   UNL     1      -5.499  11.638  18.116  0.00  0.00    +0.000 A 
ATOM     22  C   UNL     1      -4.805  11.189  17.000  0.00  0.00    +0.000 A 
ATOM     23  C   UNL     1      -3.387  11.209  16.963  0.00  0.00    +0.000 A 
ATOM     24  C   UNL     1      -2.673  10.740  15.730  0.00  0.00    +0.000 C 
ATOM     25  C   UNL     1      -2.685  11.691  18.075  0.00  0.00    +0.000 A 
ATOM     26  C   UNL     1      -3.373  12.159  19.208  0.00  0.00    +0.000 A 
ATOM     27  C   UNL     1      -4.786  12.145  19.209  0.00  0.00    +0.000 A 
ATOM     28  C   UNL     1      -2.634  12.736  20.391  0.00  0.00    +0.000 C 
ATOM     29  O   UNL     1      -1.309  12.241  20.480  0.00  0.00    +0.000 OA
ATOM     30  P   UNL     1      -0.472  12.509  19.116  0.00  0.00    +0.000 P 
ATOM     31  O   UNL     1      -0.297  13.963  18.798  0.00  0.00    +0.000 OA
ATOM     32  O   UNL     1      -1.311  11.665  18.037  0.00  0.00    +0.000 OA
ENDBRANCH  19  30
ENDBRANCH  18  19
ENDBRANCH   1  18
TORSDOF 4
ENDMDL
MODEL 3
REMARK VINA RESULT:      -8.6      2.118      3.326
REMARK  Name = 
REMARK  6 active torsions:
REMARK  status: ('A' for Active; 'I' for Inactive)
REMARK    1  A    between atoms: C_1  and  C_2
REMARK    2  A    between atoms: C_4  and  C_5
REMARK    3  A    between atoms: P_11  and  O_13
REMARK    4  A    between atoms: O_13  and  C_14
REMARK    5  A    between atoms: C_14  and  C_15
REMARK    6  A    between atoms: C_18  and  N_19
REMARK                            x       y       z     vdW  Elec       q    Type
REMARK                         _______ _______ _______ _____ _____    ______ ____
ROOT
ATOM      1  C   UNL     1       2.186   8.141  19.728  0.00  0.00    +0.000 C 
ATOM      2  C   UNL     1       2.097   8.739  18.334  0.00  0.00    +0.000 C 
ATOM      3  C   UNL     1       3.018   7.839  17.538  0.00  0.00    +0.000 C 
ATOM      4  C   UNL     1       2.797   6.453  18.169  0.00  0.00    +0.000 C 
ATOM      5  O   UNL     1       2.389   6.715  19.544  0.00  0.00    +0.000 OA
ENDROOT
BRANCH   4   6
ATOM      6  N   UNL     1       3.992   5.618  18.153  0.00  0.00    +0.000 N 
ATOM      7  C   UNL     1       4.382   4.837  19.212  0.00  0.00    +0.000 A 
ATOM      8  N   UNL     1       5.676   4.633  19.227  0.00  0.00    +0.000 NA
ATOM      9  C   UNL     1       6.052   4.937  17.940  0.00  0.00    +0.000 A 
ATOM     10  C   UNL     1       7.256   4.668  17.273  0.00  0.00    +0.000 A 
ATOM     11  N   UNL     1       8.381   4.206  17.955  0.00  0.00    +0.000 N 
ATOM     12  N   UNL     1       7.259   4.735  15.925  0.00  0.00    +0.000 NA
ATOM     13  C   UNL     1       6.132   5.176  15.315  0.00  0.00    +0.000 A 
ATOM     14  N   UNL     1       4.976   5.645  15.874  0.00  0.00    +0.000 NA
ATOM     15  C   UNL     1       4.989   5.458  17.205  0.00  0.00    +0.000 A 
ATOM     16  H   UNL     1       8.159   3.979  18.922  0.00  0.00    +0.000 HD
ATOM     17  H   UNL     1       8.859   3.481  17.434  0.00  0.00    +0.000 HD
ENDBRANCH   4   6
BRANCH   1  18
ATOM     18  C   UNL     1       0.965   8.446  20.626  0.00  0.00    +0.000 C 
BRANCH  18  19
ATOM     19  O   UNL     1       1.251   9.500  21.536  0.00  0.00    +0.000 OA
BRANCH  19  30
ATOM     20  C   UNL     1      -5.323  13.974  20.550  0.00  0.00    +0.000 C 
ATOM     21  C   UNL     1      -4.060  13.157  20.475  0.00  0.00    +0.000 A 
ATOM     22  C   UNL     1      -3.744  12.444  19.327  0.00  0.00    +0.000 A 
ATOM     23  C   UNL     1      -2.570  11.653  19.257  0.00  0.00    +0.000 A 
ATOM     24  C   UNL     1      -2.248  10.916  17.990  0.00  0.00    +0.000 C 
ATOM     25  C   UNL     1      -1.721  11.597  20.369  0.00  0.00    +0.000 A 
ATOM     26  C   UNL     1      -2.020  12.322  21.536  0.00  0.00    +0.000 A 
ATOM     27  C   UNL     1      -3.188  13.118  21.570  0.00  0.00    +0.000 A 
ATOM     28  C   UNL     1      -1.087  12.320  22.723  0.00  0.00    +0.000 C 
ATOM     29  O   UNL     1      -0.283  11.154  22.761  0.00  0.00    +0.000 OA
ATOM     30  P   UNL     1       0.561  10.957  21.388  0.00  0.00    +0.000 P 
ATOM     31  O   UNL     1       1.536  12.064  21.122  0.00  0.00    +0.000 OA
ATOM     32  O   UNL     1      -0.607  10.793  20.298  0.00  0.00    +0.000 OA
ENDBRANCH  19  30
ENDBRANCH  18  19
ENDBRANCH   1  18
TORSDOF 4
ENDMDL
MODEL 4
REMARK VINA RESULT:      -8.5      1.660      2.735
REMARK  Name = 
REMARK  6 active torsions:
REMARK  status: ('A' for Active; 'I' for Inactive)
REMARK    1  A    between atoms: C_1  and  C_2
REMARK    2  A    between atoms: C_4  and  C_5
REMARK    3  A    between atoms: P_11  and  O_13
REMARK    4  A    between atoms: O_13  and  C_14
REMARK    5  A    between atoms: C_14  and  C_15
REMARK    6  A    between atoms: C_18  and  N_19
REMARK                            x       y       z     vdW  Elec       q    Type
REMARK                         _______ _______ _______ _____ _____    ______ ____
ROOT
ATOM      1  C   UNL     1       2.032   8.408  19.619  0.00  0.00    +0.000 C 
ATOM      2  C   UNL     1       1.923   8.881  18.179  0.00  0.00    +0.000 C 
ATOM      3  C   UNL     1       2.826   7.908  17.451  0.00  0.00    +0.000 C 
ATOM      4  C   UNL     1       2.610   6.584  18.206  0.00  0.00    +0.000 C 
ATOM      5  O   UNL     1       2.226   6.970  19.558  0.00  0.00    +0.000 OA
ENDROOT
BRANCH   4   6
ATOM      6  N   UNL     1       3.801   5.744  18.244  0.00  0.00    +0.000 N 
ATOM      7  C   UNL     1       4.135   4.956  19.317  0.00  0.00    +0.000 A 
ATOM      8  N   UNL     1       5.427   4.747  19.395  0.00  0.00    +0.000 NA
ATOM      9  C   UNL     1       5.866   5.056  18.129  0.00  0.00    +0.000 A 
ATOM     10  C   UNL     1       7.101   4.785  17.520  0.00  0.00    +0.000 A 
ATOM     11  N   UNL     1       8.189   4.315  18.255  0.00  0.00    +0.000 N 
ATOM     12  N   UNL     1       7.170   4.859  16.175  0.00  0.00    +0.000 NA
ATOM     13  C   UNL     1       6.076   5.307  15.513  0.00  0.00    +0.000 A 
ATOM     14  N   UNL     1       4.896   5.779  16.016  0.00  0.00    +0.000 NA
ATOM     15  C   UNL     1       4.843   5.586  17.346  0.00  0.00    +0.000 A 
ATOM     16  H   UNL     1       7.919   4.084  19.209  0.00  0.00    +0.000 HD
ATOM     17  H   UNL     1       8.689   3.590  17.754  0.00  0.00    +0.000 HD
ENDBRANCH   4   6
BRANCH   1  18
ATOM     18  C   UNL     1       0.828   8.798  20.507  0.00  0.00    +0.000 C 
BRANCH  18  19
ATOM     19  O   UNL     1       0.929  10.147  20.941  0.00  0.00    +0.000 OA
BRANCH  19  30
ATOM     20  C   UNL     1      -6.130  12.448  17.929  0.00  0.00    +0.000 C 
ATOM     21  C   UNL     1      -4.731  11.989  18.244  0.00  0.00    +0.000 A 
ATOM     22  C   UNL     1      -4.048  11.149  17.376  0.00  0.00    +0.000 A 
ATOM     23  C   UNL     1      -2.740  10.691  17.676  0.00  0.00    +0.000 A 
ATOM     24  C   UNL     1      -2.024   9.804  16.701  0.00  0.00    +0.000 C 
ATOM     25  C   UNL     1      -2.136  11.101  18.871  0.00  0.00    +0.000 A 
ATOM     26  C   UNL     1      -2.809  11.960  19.757  0.00  0.00    +0.000 A 
ATOM     27  C   UNL     1      -4.104  12.415  19.421  0.00  0.00    +0.000 A 
ATOM     28  C   UNL     1      -2.150  12.458  21.020  0.00  0.00    +0.000 C 
ATOM     29  O   UNL     1      -1.136  11.576  21.471  0.00  0.00    +0.000 OA
ATOM     30  P   UNL     1      -0.016  11.309  20.327  0.00  0.00    +0.000 P 
ATOM     31  O   UNL     1       0.729  12.543  19.919  0.00  0.00    +0.000 OA
ATOM     32  O   UNL     1      -0.883  10.615  19.165  0.00  0.00    +0.000 OA
ENDBRANCH  19  30
ENDBRANCH  18  19
ENDBRANCH   1  18
TORSDOF 4
ENDMDL
MODEL 5
REMARK VINA RESULT:      -8.5      1.317      2.169
REMARK  Name = 
REMARK  6 active torsions:
REMARK  status: ('A' for Active; 'I' for Inactive)
REMARK    1  A    between atoms: C_1  and  C_2
REMARK    2  A    between atoms: C_4  and  C_5
REMARK    3  A    between atoms: P_11  and  O_13
REMARK    4  A    between atoms: O_13  and  C_14
REMARK    5  A    between atoms: C_14  and  C_15
REMARK    6  A    between atoms: C_18  and  N_19
REMARK                            x       y       z     vdW  Elec       q    Type
REMARK                         _______ _______ _______ _____ _____    ______ ____
ROOT
ATOM      1  C   UNL     1       1.146   9.080  19.078  0.00  0.00    +0.000 C 
ATOM      2  C   UNL     1       1.020   8.941  20.586  0.00  0.00    +0.000 C 
ATOM      3  C   UNL     1       1.426   7.500  20.811  0.00  0.00    +0.000 C 
ATOM      4  C   UNL     1       2.527   7.269  19.761  0.00  0.00    +0.000 C 
ATOM      5  O   UNL     1       2.230   8.200  18.680  0.00  0.00    +0.000 OA
ENDROOT
BRANCH   4   6
ATOM      6  N   UNL     1       2.557   5.903  19.251  0.00  0.00    +0.000 N 
ATOM      7  C   UNL     1       1.701   4.919  19.679  0.00  0.00    +0.000 A 
ATOM      8  N   UNL     1       2.219   3.722  19.547  0.00  0.00    +0.000 NA
ATOM      9  C   UNL     1       3.236   3.923  18.645  0.00  0.00    +0.000 A 
ATOM     10  C   UNL     1       3.982   2.986  17.914  0.00  0.00    +0.000 A 
ATOM     11  N   UNL     1       3.913   1.621  18.193  0.00  0.00    +0.000 N 
ATOM     12  N   UNL     1       4.666   3.426  16.838  0.00  0.00    +0.000 NA
ATOM     13  C   UNL     1       4.685   4.761  16.608  0.00  0.00    +0.000 A 
ATOM     14  N   UNL     1       4.159   5.774  17.360  0.00  0.00    +0.000 NA
ATOM     15  C   UNL     1       3.405   5.275  18.355  0.00  0.00    +0.000 A 
ATOM     16  H   UNL     1       3.181   1.420  18.871  0.00  0.00    +0.000 HD
ATOM     17  H   UNL     1       3.888   1.070  17.344  0.00  0.00    +0.000 HD
ENDBRANCH   4   6
BRANCH   1  18
ATOM     18  C   UNL     1       1.363  10.531  18.592  0.00  0.00    +0.000 C 
BRANCH  18  19
ATOM     19  O   UNL     1       0.885  11.468  19.549  0.00  0.00    +0.000 OA
BRANCH  19  30
ATOM     20  C   UNL     1      -6.992  11.765  18.108  0.00  0.00    +0.000 C 
ATOM     21  C   UNL     1      -5.486  11.733  18.119  0.00  0.00    +0.000 A 
ATOM     22  C   UNL     1      -4.780  11.245  17.028  0.00  0.00    +0.000 A 
ATOM     23  C   UNL     1      -3.363  11.188  17.039  0.00  0.00    +0.000 A 
ATOM     24  C   UNL     1      -2.633  10.678  15.832  0.00  0.00    +0.000 C 
ATOM     25  C   UNL     1      -2.674  11.635  18.174  0.00  0.00    +0.000 A 
ATOM     26  C   UNL     1      -3.374  12.142  19.283  0.00  0.00    +0.000 A 
ATOM     27  C   UNL     1      -4.785  12.205  19.235  0.00  0.00    +0.000 A 
ATOM     28  C   UNL     1      -2.645  12.682  20.490  0.00  0.00    +0.000 C 
ATOM     29  O   UNL     1      -1.353  12.117  20.624  0.00  0.00    +0.000 OA
ATOM     30  P   UNL     1      -0.456  12.336  19.289  0.00  0.00    +0.000 P 
ATOM     31  O   UNL     1      -0.193  13.777  18.975  0.00  0.00    +0.000 OA
ATOM     32  O   UNL     1      -1.303  11.535  18.182  0.00  0.00    +0.000 OA
ENDBRANCH  19  30
ENDBRANCH  18  19
ENDBRANCH   1  18
TORSDOF 4
ENDMDL
MODEL 6
REMARK VINA RESULT:      -8.4      7.880     11.344
REMARK  Name = 
REMARK  6 active torsions:
REMARK  status: ('A' for Active; 'I' for Inactive)
REMARK    1  A    between atoms: C_1  and  C_2
REMARK    2  A    between atoms: C_4  and  C_5
REMARK    3  A    between atoms: P_11  and  O_13
REMARK    4  A    between atoms: O_13  and  C_14
REMARK    5  A    between atoms: C_14  and  C_15
REMARK    6  A    between atoms: C_18  and  N_19
REMARK                            x       y       z     vdW  Elec       q    Type
REMARK                         _______ _______ _______ _____ _____    ______ ____
ROOT
ATOM      1  C   UNL     1       8.653  10.404  18.011  0.00  0.00    +0.000 C 
ATOM      2  C   UNL     1       9.394   9.907  19.241  0.00  0.00    +0.000 C 
ATOM      3  C   UNL     1      10.028  11.176  19.770  0.00  0.00    +0.000 C 
ATOM      4  C   UNL     1       8.975  12.257  19.467  0.00  0.00    +0.000 C 
ATOM      5  O   UNL     1       8.237  11.762  18.311  0.00  0.00    +0.000 OA
ENDROOT
BRANCH   4   6
ATOM      6  N   UNL     1       9.558  13.559  19.168  0.00  0.00    +0.000 N 
ATOM      7  C   UNL     1       9.154  14.723  19.771  0.00  0.00    +0.000 A 
ATOM      8  N   UNL     1       9.369  15.773  19.016  0.00  0.00    +0.000 NA
ATOM      9  C   UNL     1      10.294  15.315  18.108  0.00  0.00    +0.000 A 
ATOM     10  C   UNL     1      11.099  16.036  17.213  0.00  0.00    +0.000 A 
ATOM     11  N   UNL     1      10.892  17.393  16.974  0.00  0.00    +0.000 N 
ATOM     12  N   UNL     1      12.174  15.410  16.689  0.00  0.00    +0.000 NA
ATOM     13  C   UNL     1      12.333  14.093  16.968  0.00  0.00    +0.000 A 
ATOM     14  N   UNL     1      11.510  13.254  17.664  0.00  0.00    +0.000 NA
ATOM     15  C   UNL     1      10.516  13.947  18.247  0.00  0.00    +0.000 A 
ATOM     16  H   UNL     1      10.201  17.779  17.615  0.00  0.00    +0.000 HD
ATOM     17  H   UNL     1      11.768  17.899  16.920  0.00  0.00    +0.000 HD
ENDBRANCH   4   6
BRANCH   1  18
ATOM     18  C   UNL     1       7.467   9.511  17.582  0.00  0.00    +0.000 C 
BRANCH  18  19
ATOM     19  O   UNL     1       7.921   8.243  17.125  0.00  0.00    +0.000 OA
BRANCH  19  30
ATOM     20  C   UNL     1       2.412   2.426  17.260  0.00  0.00    +0.000 C 
ATOM     21  C   UNL     1       3.306   3.626  17.428  0.00  0.00    +0.000 A 
ATOM     22  C   UNL     1       2.795   4.833  17.886  0.00  0.00    +0.000 A 
ATOM     23  C   UNL     1       3.624   5.975  18.024  0.00  0.00    +0.000 A 
ATOM     24  C   UNL     1       3.041   7.254  18.547  0.00  0.00    +0.000 C 
ATOM     25  C   UNL     1       4.980   5.873  17.691  0.00  0.00    +0.000 A 
ATOM     26  C   UNL     1       5.517   4.656  17.235  0.00  0.00    +0.000 A 
ATOM     27  C   UNL     1       4.670   3.529  17.126  0.00  0.00    +0.000 A 
ATOM     28  C   UNL     1       6.988   4.513  16.927  0.00  0.00    +0.000 C 
ATOM     29  O   UNL     1       7.581   5.756  16.593  0.00  0.00    +0.000 OA
ATOM     30  P   UNL     1       7.361   6.863  17.759  0.00  0.00    +0.000 P 
ATOM     31  O   UNL     1       8.000   6.493  19.063  0.00  0.00    +0.000 OA
ATOM     32  O   UNL     1       5.761   7.001  17.793  0.00  0.00    +0.000 OA
ENDBRANCH  19  30
ENDBRANCH  18  19
ENDBRANCH   1  18
TORSDOF 4
ENDMDL
MODEL 7
REMARK VINA RESULT:      -8.4      3.674      4.836
REMARK  Name = 
REMARK  6 active torsions:
REMARK  status: ('A' for Active; 'I' for Inactive)
REMARK    1  A    between atoms: C_1  and  C_2
REMARK    2  A    between atoms: C_4  and  C_5
REMARK    3  A    between atoms: P_11  and  O_13
REMARK    4  A    between atoms: O_13  and  C_14
REMARK    5  A    between atoms: C_14  and  C_15
REMARK    6  A    between atoms: C_18  and  N_19
REMARK                            x       y       z     vdW  Elec       q    Type
REMARK                         _______ _______ _______ _____ _____    ______ ____
ROOT
ATOM      1  C   UNL     1       2.076   7.746  20.028  0.00  0.00    +0.000 C 
ATOM      2  C   UNL     1       1.987   8.482  18.702  0.00  0.00    +0.000 C 
ATOM      3  C   UNL     1       2.939   7.691  17.830  0.00  0.00    +0.000 C 
ATOM      4  C   UNL     1       2.749   6.242  18.313  0.00  0.00    +0.000 C 
ATOM      5  O   UNL     1       2.319   6.352  19.702  0.00  0.00    +0.000 OA
ENDROOT
BRANCH   4   6
ATOM      6  N   UNL     1       3.965   5.443  18.227  0.00  0.00    +0.000 N 
ATOM      7  C   UNL     1       4.378   4.588  19.218  0.00  0.00    +0.000 A 
ATOM      8  N   UNL     1       5.678   4.418  19.215  0.00  0.00    +0.000 NA
ATOM      9  C   UNL     1       6.041   4.838  17.957  0.00  0.00    +0.000 A 
ATOM     10  C   UNL     1       7.251   4.657  17.270  0.00  0.00    +0.000 A 
ATOM     11  N   UNL     1       8.389   4.171  17.911  0.00  0.00    +0.000 N 
ATOM     12  N   UNL     1       7.248   4.836  15.933  0.00  0.00    +0.000 NA
ATOM     13  C   UNL     1       6.108   5.296  15.362  0.00  0.00    +0.000 A 
ATOM     14  N   UNL     1       4.942   5.686  15.958  0.00  0.00    +0.000 NA
ATOM     15  C   UNL     1       4.963   5.390  17.269  0.00  0.00    +0.000 A 
ATOM     16  H   UNL     1       8.176   3.858  18.856  0.00  0.00    +0.000 HD
ATOM     17  H   UNL     1       8.885   3.504  17.331  0.00  0.00    +0.000 HD
ENDBRANCH   4   6
BRANCH   1  18
ATOM     18  C   UNL     1       0.839   7.926  20.937  0.00  0.00    +0.000 C 
BRANCH  18  19
ATOM     19  O   UNL     1       0.240   9.200  20.738  0.00  0.00    +0.000 OA
BRANCH  19  30
ATOM     20  C   UNL     1      -0.877  16.799  23.020  0.00  0.00    +0.000 C 
ATOM     21  C   UNL     1      -0.413  15.435  22.581  0.00  0.00    +0.000 A 
ATOM     22  C   UNL     1       0.733  15.290  21.811  0.00  0.00    +0.000 A 
ATOM     23  C   UNL     1       1.164  14.013  21.372  0.00  0.00    +0.000 A 
ATOM     24  C   UNL     1       2.421  13.893  20.564  0.00  0.00    +0.000 C 
ATOM     25  C   UNL     1       0.414  12.884  21.727  0.00  0.00    +0.000 A 
ATOM     26  C   UNL     1      -0.744  13.012  22.516  0.00  0.00    +0.000 A 
ATOM     27  C   UNL     1      -1.137  14.297  22.954  0.00  0.00    +0.000 A 
ATOM     28  C   UNL     1      -1.530  11.802  22.956  0.00  0.00    +0.000 C 
ATOM     29  O   UNL     1      -1.350  10.705  22.077  0.00  0.00    +0.000 OA
ATOM     30  P   UNL     1       0.217  10.318  21.907  0.00  0.00    +0.000 P 
ATOM     31  O   UNL     1       0.865   9.874  23.183  0.00  0.00    +0.000 OA
ATOM     32  O   UNL     1       0.824  11.658  21.259  0.00  0.00    +0.000 OA
ENDBRANCH  19  30
ENDBRANCH  18  19
ENDBRANCH   1  18
TORSDOF 4
ENDMDL
MODEL 8
REMARK VINA RESULT:      -8.3      2.945      4.372
REMARK  Name = 
REMARK  6 active torsions:
REMARK  status: ('A' for Active; 'I' for Inactive)
REMARK    1  A    between atoms: C_1  and  C_2
REMARK    2  A    between atoms: C_4  and  C_5
REMARK    3  A    between atoms: P_11  and  O_13
REMARK    4  A    between atoms: O_13  and  C_14
REMARK    5  A    between atoms: C_14  and  C_15
REMARK    6  A    between atoms: C_18  and  N_19
REMARK                            x       y       z     vdW  Elec       q    Type
REMARK                         _______ _______ _______ _____ _____    ______ ____
ROOT
ATOM      1  C   UNL     1       2.129   8.217  19.726  0.00  0.00    +0.000 C 
ATOM      2  C   UNL     1       2.033   8.816  18.333  0.00  0.00    +0.000 C 
ATOM      3  C   UNL     1       2.944   7.913  17.530  0.00  0.00    +0.000 C 
ATOM      4  C   UNL     1       2.724   6.527  18.162  0.00  0.00    +0.000 C 
ATOM      5  O   UNL     1       2.326   6.790  19.540  0.00  0.00    +0.000 OA
ENDROOT
BRANCH   4   6
ATOM      6  N   UNL     1       3.916   5.688  18.137  0.00  0.00    +0.000 N 
ATOM      7  C   UNL     1       4.288   4.873  19.177  0.00  0.00    +0.000 A 
ATOM      8  N   UNL     1       5.581   4.663  19.203  0.00  0.00    +0.000 NA
ATOM      9  C   UNL     1       5.976   5.006  17.932  0.00  0.00    +0.000 A 
ATOM     10  C   UNL     1       7.189   4.753  17.274  0.00  0.00    +0.000 A 
ATOM     11  N   UNL     1       8.302   4.266  17.957  0.00  0.00    +0.000 N 
ATOM     12  N   UNL     1       7.211   4.862  15.929  0.00  0.00    +0.000 NA
ATOM     13  C   UNL     1       6.094   5.326  15.318  0.00  0.00    +0.000 A 
ATOM     14  N   UNL     1       4.932   5.783  15.874  0.00  0.00    +0.000 NA
ATOM     15  C   UNL     1       4.926   5.555  17.199  0.00  0.00    +0.000 A 
ATOM     16  H   UNL     1       8.065   4.010  18.914  0.00  0.00    +0.000 HD
ATOM     17  H   UNL     1       8.785   3.555  17.421  0.00  0.00    +0.000 HD
ENDBRANCH   4   6
BRANCH   1  18
ATOM     18  C   UNL     1       0.916   8.525  20.634  0.00  0.00    +0.000 C 
BRANCH  18  19
ATOM     19  O   UNL     1       0.101   9.544  20.069  0.00  0.00    +0.000 OA
BRANCH  19  30
ATOM     20  C   UNL     1      -0.177  17.455  18.827  0.00  0.00    +0.000 C 
ATOM     21  C   UNL     1       0.135  16.002  19.068  0.00  0.00    +0.000 A 
ATOM     22  C   UNL     1       1.332  15.452  18.629  0.00  0.00    +0.000 A 
ATOM     23  C   UNL     1       1.624  14.079  18.829  0.00  0.00    +0.000 A 
ATOM     24  C   UNL     1       2.938  13.526  18.364  0.00  0.00    +0.000 C 
ATOM     25  C   UNL     1       0.683  13.273  19.482  0.00  0.00    +0.000 A 
ATOM     26  C   UNL     1      -0.529  13.816  19.943  0.00  0.00    +0.000 A 
ATOM     27  C   UNL     1      -0.784  15.192  19.746  0.00  0.00    +0.000 A 
ATOM     28  C   UNL     1      -1.528  12.975  20.700  0.00  0.00    +0.000 C 
ATOM     29  O   UNL     1      -1.404  11.598  20.390  0.00  0.00    +0.000 OA
ATOM     30  P   UNL     1       0.101  11.052  20.658  0.00  0.00    +0.000 P 
ATOM     31  O   UNL     1       0.522  11.142  22.093  0.00  0.00    +0.000 OA
ATOM     32  O   UNL     1       0.966  11.935  19.632  0.00  0.00    +0.000 OA
ENDBRANCH  19  30
ENDBRANCH  18  19
ENDBRANCH   1  18
TORSDOF 4
ENDMDL
MODEL 9
REMARK VINA RESULT:      -8.2      3.516      4.722
REMARK  Name = 
REMARK  6 active torsions:
REMARK  status: ('A' for Active; 'I' for Inactive)
REMARK    1  A    between atoms: C_1  and  C_2
REMARK    2  A    between atoms: C_4  and  C_5
REMARK    3  A    between atoms: P_11  and  O_13
REMARK    4  A    between atoms: O_13  and  C_14
REMARK    5  A    between atoms: C_14  and  C_15
REMARK    6  A    between atoms: C_18  and  N_19
REMARK                            x       y       z     vdW  Elec       q    Type
REMARK                         _______ _______ _______ _____ _____    ______ ____
ROOT
ATOM      1  C   UNL     1       2.100   8.027  19.829  0.00  0.00    +0.000 C 
ATOM      2  C   UNL     1       2.032   8.669  18.453  0.00  0.00    +0.000 C 
ATOM      3  C   UNL     1       2.981   7.807  17.649  0.00  0.00    +0.000 C 
ATOM      4  C   UNL     1       2.767   6.398  18.230  0.00  0.00    +0.000 C 
ATOM      5  O   UNL     1       2.327   6.610  19.603  0.00  0.00    +0.000 OA
ENDROOT
BRANCH   4   6
ATOM      6  N   UNL     1       3.974   5.580  18.212  0.00  0.00    +0.000 N 
ATOM      7  C   UNL     1       4.387   4.821  19.278  0.00  0.00    +0.000 A 
ATOM      8  N   UNL     1       5.685   4.636  19.280  0.00  0.00    +0.000 NA
ATOM      9  C   UNL     1       6.039   4.925  17.983  0.00  0.00    +0.000 A 
ATOM     10  C   UNL     1       7.240   4.662  17.306  0.00  0.00    +0.000 A 
ATOM     11  N   UNL     1       8.379   4.227  17.981  0.00  0.00    +0.000 N 
ATOM     12  N   UNL     1       7.224   4.708  15.957  0.00  0.00    +0.000 NA
ATOM     13  C   UNL     1       6.084   5.123  15.355  0.00  0.00    +0.000 A 
ATOM     14  N   UNL     1       4.929   5.585  15.920  0.00  0.00    +0.000 NA
ATOM     15  C   UNL     1       4.961   5.420  17.254  0.00  0.00    +0.000 A 
ATOM     16  H   UNL     1       8.172   4.013  18.954  0.00  0.00    +0.000 HD
ATOM     17  H   UNL     1       8.861   3.501  17.466  0.00  0.00    +0.000 HD
ENDBRANCH   4   6
BRANCH   1  18
ATOM     18  C   UNL     1       0.857   8.286  20.711  0.00  0.00    +0.000 C 
BRANCH  18  19
ATOM     19  O   UNL     1       1.019   9.466  21.488  0.00  0.00    +0.000 OA
BRANCH  19  30
ATOM     20  C   UNL     1      -1.512  16.862  23.247  0.00  0.00    +0.000 C 
ATOM     21  C   UNL     1      -1.290  15.407  22.928  0.00  0.00    +0.000 A 
ATOM     22  C   UNL     1      -2.159  14.436  23.407  0.00  0.00    +0.000 A 
ATOM     23  C   UNL     1      -1.945  13.062  23.133  0.00  0.00    +0.000 A 
ATOM     24  C   UNL     1      -2.920  12.044  23.645  0.00  0.00    +0.000 C 
ATOM     25  C   UNL     1      -0.835  12.687  22.365  0.00  0.00    +0.000 A 
ATOM     26  C   UNL     1       0.050  13.659  21.864  0.00  0.00    +0.000 A 
ATOM     27  C   UNL     1      -0.201  15.023  22.137  0.00  0.00    +0.000 A 
ATOM     28  C   UNL     1       1.218  13.278  20.987  0.00  0.00    +0.000 C 
ATOM     29  O   UNL     1       1.634  11.942  21.210  0.00  0.00    +0.000 OA
ATOM     30  P   UNL     1       0.416  10.888  21.005  0.00  0.00    +0.000 P 
ATOM     31  O   UNL     1      -0.131  10.871  19.610  0.00  0.00    +0.000 OA
ATOM     32  O   UNL     1      -0.620  11.347  22.144  0.00  0.00    +0.000 OA
ENDBRANCH  19  30
ENDBRANCH  18  19
ENDBRANCH   1  18
TORSDOF 4
ENDMDL
