MODEL 1
REMARK VINA RESULT:      -8.0      0.000      0.000
REMARK  Name = 
REMARK  3 active torsions:
REMARK  status: ('A' for Active; 'I' for Inactive)
REMARK    1  A    between atoms: N_8  and  S_9
REMARK    2  A    between atoms: S_9  and  C_12
REMARK    3  A    between atoms: C_12  and  C_13
REMARK                            x       y       z     vdW  Elec       q    Type
REMARK                         _______ _______ _______ _____ _____    ______ ____
ROOT
ATOM      1  O   UNL     1       1.037   4.452  20.843  0.00  0.00    +0.000 OA
ATOM      2  C   UNL     1       1.554   3.392  20.514  0.00  0.00    +0.000 C 
ATOM      3  C   UNL     1       2.739   2.777  21.221  0.00  0.00    +0.000 C 
ATOM      4  C   UNL     1       3.906   2.344  20.326  0.00  0.00    +0.000 C 
ATOM      5  C   UNL     1       3.566   1.550  19.063  0.00  0.00    +0.000 C 
ATOM      6  C   UNL     1       2.900   2.322  17.903  0.00  0.00    +0.000 C 
ATOM      7  C   UNL     1       3.715   3.510  17.378  0.00  0.00    +0.000 C 
ATOM      8  N   UNL     1       2.902   4.726  17.561  0.00  0.00    +0.000 NA
ATOM      9  C   UNL     1       1.477   4.318  17.696  0.00  0.00    +0.000 C 
ATOM     10  C   UNL     1       1.479   2.848  18.158  0.00  0.00    +0.000 C 
ATOM     11  N   UNL     1       1.019   2.610  19.515  0.00  0.00    +0.000 N 
ATOM     12  H   UNL     1       1.002   1.627  19.749  0.00  0.00    +0.000 HD
ENDROOT
BRANCH   8  13
ATOM     13  S   UNL     1       3.460   5.968  18.584  0.00  0.00    +0.000 S 
ATOM     14  O   UNL     1       2.290   6.717  19.001  0.00  0.00    +0.000 OA
ATOM     15  O   UNL     1       4.366   5.377  19.540  0.00  0.00    +0.000 OA
BRANCH  13  16
ATOM     16  C   UNL     1       4.410   6.995  17.450  0.00  0.00    +0.000 C 
BRANCH  16  17
ATOM     17  C   UNL     1       5.397   6.131  16.701  0.00  0.00    +0.000 A 
ATOM     18  C   UNL     1       5.234   5.876  15.331  0.00  0.00    +0.000 A 
ATOM     19  C   UNL     1       6.151   5.076  14.644  0.00  0.00    +0.000 A 
ATOM     20  C   UNL     1       7.232   4.517  15.320  0.00  0.00    +0.000 A 
ATOM     21  C   UNL     1       7.396   4.752  16.683  0.00  0.00    +0.000 A 
ATOM     22  C   UNL     1       6.484   5.554  17.371  0.00  0.00    +0.000 A 
ENDBRANCH  16  17
ENDBRANCH  13  16
ENDBRANCH   8  13
TORSDOF 3
ENDMDL
MODEL 2
REMARK VINA RESULT:      -8.0      0.290      1.092
REMARK  Name = 
REMARK  3 active torsions:
REMARK  status: ('A' for Active; 'I' for Inactive)
REMARK    1  A    between atoms: N_8  and  S_9
REMARK    2  A    between atoms: S_9  and  C_12
REMARK    3  A    between atoms: C_12  and  C_13
REMARK                            x       y       z     vdW  Elec       q    Type
REMARK                         _______ _______ _______ _____ _____    ______ ____
ROOT
ATOM      1  O   UNL     1       0.806   4.856  20.799  0.00  0.00    +0.000 OA
ATOM      2  C   UNL     1       1.247   3.740  20.557  0.00  0.00    +0.000 C 
ATOM      3  C   UNL     1       2.336   3.070  21.362  0.00  0.00    +0.000 C 
ATOM      4  C   UNL     1       3.508   2.493  20.560  0.00  0.00    +0.000 C 
ATOM      5  C   UNL     1       3.169   1.658  19.323  0.00  0.00    +0.000 C 
ATOM      6  C   UNL     1       2.634   2.414  18.087  0.00  0.00    +0.000 C 
ATOM      7  C   UNL     1       3.575   3.499  17.549  0.00  0.00    +0.000 C 
ATOM      8  N   UNL     1       2.860   4.786  17.620  0.00  0.00    +0.000 NA
ATOM      9  C   UNL     1       1.401   4.506  17.694  0.00  0.00    +0.000 C 
ATOM     10  C   UNL     1       1.252   3.069  18.232  0.00  0.00    +0.000 C 
ATOM     11  N   UNL     1       0.702   2.948  19.571  0.00  0.00    +0.000 N 
ATOM     12  H   UNL     1       0.589   1.985  19.855  0.00  0.00    +0.000 HD
ENDROOT
BRANCH   8  13
ATOM     13  S   UNL     1       3.467   6.035  18.607  0.00  0.00    +0.000 S 
ATOM     14  O   UNL     1       2.325   6.827  19.021  0.00  0.00    +0.000 OA
ATOM     15  O   UNL     1       4.368   5.440  19.564  0.00  0.00    +0.000 OA
BRANCH  13  16
ATOM     16  C   UNL     1       4.430   7.008  17.438  0.00  0.00    +0.000 C 
BRANCH  16  17
ATOM     17  C   UNL     1       5.402   6.104  16.716  0.00  0.00    +0.000 A 
ATOM     18  C   UNL     1       6.507   5.557  17.385  0.00  0.00    +0.000 A 
ATOM     19  C   UNL     1       7.403   4.723  16.712  0.00  0.00    +0.000 A 
ATOM     20  C   UNL     1       7.208   4.434  15.364  0.00  0.00    +0.000 A 
ATOM     21  C   UNL     1       6.123   4.982  14.686  0.00  0.00    +0.000 A 
ATOM     22  C   UNL     1       5.224   5.814  15.357  0.00  0.00    +0.000 A 
ENDBRANCH  16  17
ENDBRANCH  13  16
ENDBRANCH   8  13
TORSDOF 3
ENDMDL
MODEL 3
REMARK VINA RESULT:      -7.9      1.133      1.713
REMARK  Name = 
REMARK  3 active torsions:
REMARK  status: ('A' for Active; 'I' for Inactive)
REMARK    1  A    between atoms: N_8  and  S_9
REMARK    2  A    between atoms: S_9  and  C_12
REMARK    3  A    between atoms: C_12  and  C_13
REMARK                            x       y       z     vdW  Elec       q    Type
REMARK                         _______ _______ _______ _____ _____    ______ ____
ROOT
ATOM      1  O   UNL     1       0.526   3.263  18.130  0.00  0.00    +0.000 OA
ATOM      2  C   UNL     1       1.080   2.692  19.060  0.00  0.00    +0.000 C 
ATOM      3  C   UNL     1       0.820   3.002  20.516  0.00  0.00    +0.000 C 
ATOM      4  C   UNL     1       2.059   3.246  21.384  0.00  0.00    +0.000 C 
ATOM      5  C   UNL     1       3.219   2.257  21.248  0.00  0.00    +0.000 C 
ATOM      6  C   UNL     1       4.055   2.326  19.952  0.00  0.00    +0.000 C 
ATOM      7  C   UNL     1       4.705   3.689  19.685  0.00  0.00    +0.000 C 
ATOM      8  N   UNL     1       4.186   4.188  18.399  0.00  0.00    +0.000 NA
ATOM      9  C   UNL     1       3.657   3.029  17.629  0.00  0.00    +0.000 C 
ATOM     10  C   UNL     1       3.338   1.924  18.654  0.00  0.00    +0.000 C 
ATOM     11  N   UNL     1       1.929   1.629  18.849  0.00  0.00    +0.000 N 
ATOM     12  H   UNL     1       1.781   0.870  19.500  0.00  0.00    +0.000 HD
ENDROOT
BRANCH   8  13
ATOM     13  S   UNL     1       3.284   5.632  18.356  0.00  0.00    +0.000 S 
ATOM     14  O   UNL     1       2.191   5.410  17.430  0.00  0.00    +0.000 OA
ATOM     15  O   UNL     1       3.055   6.047  19.719  0.00  0.00    +0.000 OA
BRANCH  13  16
ATOM     16  C   UNL     1       4.442   6.779  17.592  0.00  0.00    +0.000 C 
BRANCH  16  17
ATOM     17  C   UNL     1       5.390   6.013  16.700  0.00  0.00    +0.000 A 
ATOM     18  C   UNL     1       5.031   5.683  15.384  0.00  0.00    +0.000 A 
ATOM     19  C   UNL     1       5.912   4.973  14.564  0.00  0.00    +0.000 A 
ATOM     20  C   UNL     1       7.155   4.579  15.052  0.00  0.00    +0.000 A 
ATOM     21  C   UNL     1       7.517   4.889  16.361  0.00  0.00    +0.000 A 
ATOM     22  C   UNL     1       6.640   5.601  17.182  0.00  0.00    +0.000 A 
ENDBRANCH  16  17
ENDBRANCH  13  16
ENDBRANCH   8  13
TORSDOF 3
ENDMDL
MODEL 4
REMARK VINA RESULT:      -7.9      1.128      1.949
REMARK  Name = 
REMARK  3 active torsions:
REMARK  status: ('A' for Active; 'I' for Inactive)
REMARK    1  A    between atoms: N_8  and  S_9
REMARK    2  A    between atoms: S_9  and  C_12
REMARK    3  A    between atoms: C_12  and  C_13
REMARK                            x       y       z     vdW  Elec       q    Type
REMARK                         _______ _______ _______ _____ _____    ______ ____
ROOT
ATOM      1  O   UNL     1       0.436   3.152  18.336  0.00  0.00    +0.000 OA
ATOM      2  C   UNL     1       1.091   2.589  19.204  0.00  0.00    +0.000 C 
ATOM      3  C   UNL     1       0.953   2.871  20.681  0.00  0.00    +0.000 C 
ATOM      4  C   UNL     1       2.257   3.147  21.439  0.00  0.00    +0.000 C 
ATOM      5  C   UNL     1       3.432   2.200  21.183  0.00  0.00    +0.000 C 
ATOM      6  C   UNL     1       4.145   2.313  19.818  0.00  0.00    +0.000 C 
ATOM      7  C   UNL     1       4.723   3.701  19.516  0.00  0.00    +0.000 C 
ATOM      8  N   UNL     1       4.073   4.198  18.289  0.00  0.00    +0.000 NA
ATOM      9  C   UNL     1       3.515   3.032  17.551  0.00  0.00    +0.000 C 
ATOM     10  C   UNL     1       3.327   1.903  18.584  0.00  0.00    +0.000 C 
ATOM     11  N   UNL     1       1.952   1.558  18.900  0.00  0.00    +0.000 N 
ATOM     12  H   UNL     1       1.888   0.786  19.550  0.00  0.00    +0.000 HD
ENDROOT
BRANCH   8  13
ATOM     13  S   UNL     1       3.124   5.611  18.349  0.00  0.00    +0.000 S 
ATOM     14  O   UNL     1       1.974   5.373  17.499  0.00  0.00    +0.000 OA
ATOM     15  O   UNL     1       2.982   5.985  19.736  0.00  0.00    +0.000 OA
BRANCH  13  16
ATOM     16  C   UNL     1       4.185   6.815  17.534  0.00  0.00    +0.000 C 
BRANCH  16  17
ATOM     17  C   UNL     1       5.260   6.091  16.758  0.00  0.00    +0.000 A 
ATOM     18  C   UNL     1       6.496   5.791  17.350  0.00  0.00    +0.000 A 
ATOM     19  C   UNL     1       7.486   5.121  16.627  0.00  0.00    +0.000 A 
ATOM     20  C   UNL     1       7.255   4.752  15.304  0.00  0.00    +0.000 A 
ATOM     21  C   UNL     1       6.036   5.057  14.701  0.00  0.00    +0.000 A 
ATOM     22  C   UNL     1       5.044   5.723  15.423  0.00  0.00    +0.000 A 
ENDBRANCH  16  17
ENDBRANCH  13  16
ENDBRANCH   8  13
TORSDOF 3
ENDMDL
MODEL 5
REMARK VINA RESULT:      -7.9      1.889      3.035
REMARK  Name = 
REMARK  3 active torsions:
REMARK  status: ('A' for Active; 'I' for Inactive)
REMARK    1  A    between atoms: N_8  and  S_9
REMARK    2  A    between atoms: S_9  and  C_12
REMARK    3  A    between atoms: C_12  and  C_13
REMARK                            x       y       z     vdW  Elec       q    Type
REMARK                         _______ _______ _______ _____ _____    ______ ____
ROOT
ATOM      1  O   UNL     1       1.087   4.178  17.629  0.00  0.00    +0.000 OA
ATOM      2  C   UNL     1       1.106   3.772  18.783  0.00  0.00    +0.000 C 
ATOM      3  C   UNL     1       1.054   4.672  19.995  0.00  0.00    +0.000 C 
ATOM      4  C   UNL     1       2.123   4.424  21.065  0.00  0.00    +0.000 C 
ATOM      5  C   UNL     1       2.372   2.974  21.487  0.00  0.00    +0.000 C 
ATOM      6  C   UNL     1       3.101   2.061  20.477  0.00  0.00    +0.000 C 
ATOM      7  C   UNL     1       4.488   2.560  20.055  0.00  0.00    +0.000 C 
ATOM      8  N   UNL     1       4.463   2.765  18.595  0.00  0.00    +0.000 NA
ATOM      9  C   UNL     1       3.340   1.969  18.031  0.00  0.00    +0.000 C 
ATOM     10  C   UNL     1       2.343   1.732  19.182  0.00  0.00    +0.000 C 
ATOM     11  N   UNL     1       1.072   2.426  19.073  0.00  0.00    +0.000 N 
ATOM     12  H   UNL     1       0.444   2.201  19.833  0.00  0.00    +0.000 HD
ENDROOT
BRANCH   8  13
ATOM     13  S   UNL     1       4.712   4.325  17.958  0.00  0.00    +0.000 S 
ATOM     14  O   UNL     1       3.939   4.401  16.734  0.00  0.00    +0.000 OA
ATOM     15  O   UNL     1       4.533   5.273  19.032  0.00  0.00    +0.000 OA
BRANCH  13  16
ATOM     16  C   UNL     1       6.457   4.280  17.517  0.00  0.00    +0.000 C 
BRANCH  16  17
ATOM     17  C   UNL     1       7.080   5.627  17.798  0.00  0.00    +0.000 A 
ATOM     18  C   UNL     1       7.879   5.828  18.934  0.00  0.00    +0.000 A 
ATOM     19  C   UNL     1       8.450   7.077  19.189  0.00  0.00    +0.000 A 
ATOM     20  C   UNL     1       8.223   8.138  18.318  0.00  0.00    +0.000 A 
ATOM     21  C   UNL     1       7.420   7.956  17.194  0.00  0.00    +0.000 A 
ATOM     22  C   UNL     1       6.850   6.708  16.935  0.00  0.00    +0.000 A 
ENDBRANCH  16  17
ENDBRANCH  13  16
ENDBRANCH   8  13
TORSDOF 3
ENDMDL
MODEL 6
REMARK VINA RESULT:      -7.8      2.245      3.283
REMARK  Name = 
REMARK  3 active torsions:
REMARK  status: ('A' for Active; 'I' for Inactive)
REMARK    1  A    between atoms: N_8  and  S_9
REMARK    2  A    between atoms: S_9  and  C_12
REMARK    3  A    between atoms: C_12  and  C_13
REMARK                            x       y       z     vdW  Elec       q    Type
REMARK                         _______ _______ _______ _____ _____    ______ ____
ROOT
ATOM      1  O   UNL     1       5.070   2.308  20.006  0.00  0.00    +0.000 OA
ATOM      2  C   UNL     1       3.924   2.568  19.664  0.00  0.00    +0.000 C 
ATOM      3  C   UNL     1       3.159   1.792  18.618  0.00  0.00    +0.000 C 
ATOM      4  C   UNL     1       2.494   2.622  17.515  0.00  0.00    +0.000 C 
ATOM      5  C   UNL     1       1.702   3.858  17.947  0.00  0.00    +0.000 C 
ATOM      6  C   UNL     1       2.512   5.076  18.443  0.00  0.00    +0.000 C 
ATOM      7  C   UNL     1       3.520   5.626  17.426  0.00  0.00    +0.000 C 
ATOM      8  N   UNL     1       4.861   5.530  18.030  0.00  0.00    +0.000 NA
ATOM      9  C   UNL     1       4.702   5.427  19.506  0.00  0.00    +0.000 C 
ATOM     10  C   UNL     1       3.277   4.897  19.762  0.00  0.00    +0.000 C 
ATOM     11  N   UNL     1       3.190   3.548  20.293  0.00  0.00    +0.000 N 
ATOM     12  H   UNL     1       2.236   3.269  20.480  0.00  0.00    +0.000 HD
ENDROOT
BRANCH   8  13
ATOM     13  S   UNL     1       6.046   4.546  17.302  0.00  0.00    +0.000 S 
ATOM     14  O   UNL     1       7.091   4.357  18.290  0.00  0.00    +0.000 OA
ATOM     15  O   UNL     1       5.371   3.430  16.685  0.00  0.00    +0.000 OA
BRANCH  13  16
ATOM     16  C   UNL     1       6.686   5.620  16.007  0.00  0.00    +0.000 C 
BRANCH  16  17
ATOM     17  C   UNL     1       6.514   4.944  14.667  0.00  0.00    +0.000 A 
ATOM     18  C   UNL     1       5.325   4.271  14.348  0.00  0.00    +0.000 A 
ATOM     19  C   UNL     1       5.173   3.648  13.107  0.00  0.00    +0.000 A 
ATOM     20  C   UNL     1       6.208   3.682  12.177  0.00  0.00    +0.000 A 
ATOM     21  C   UNL     1       7.399   4.335  12.488  0.00  0.00    +0.000 A 
ATOM     22  C   UNL     1       7.553   4.962  13.726  0.00  0.00    +0.000 A 
ENDBRANCH  16  17
ENDBRANCH  13  16
ENDBRANCH   8  13
TORSDOF 3
ENDMDL
MODEL 7
REMARK VINA RESULT:      -7.8      1.974      5.499
REMARK  Name = 
REMARK  3 active torsions:
REMARK  status: ('A' for Active; 'I' for Inactive)
REMARK    1  A    between atoms: N_8  and  S_9
REMARK    2  A    between atoms: S_9  and  C_12
REMARK    3  A    between atoms: C_12  and  C_13
REMARK                            x       y       z     vdW  Elec       q    Type
REMARK                         _______ _______ _______ _____ _____    ______ ____
ROOT
ATOM      1  O   UNL     1       6.829   5.119  19.945  0.00  0.00    +0.000 OA
ATOM      2  C   UNL     1       7.393   5.414  18.900  0.00  0.00    +0.000 C 
ATOM      3  C   UNL     1       7.944   6.788  18.597  0.00  0.00    +0.000 C 
ATOM      4  C   UNL     1       7.534   7.396  17.251  0.00  0.00    +0.000 C 
ATOM      5  C   UNL     1       7.631   6.499  16.016  0.00  0.00    +0.000 C 
ATOM      6  C   UNL     1       6.584   5.371  15.879  0.00  0.00    +0.000 C 
ATOM      7  C   UNL     1       5.129   5.854  15.866  0.00  0.00    +0.000 C 
ATOM      8  N   UNL     1       4.441   5.229  17.011  0.00  0.00    +0.000 NA
ATOM      9  C   UNL     1       5.220   4.032  17.427  0.00  0.00    +0.000 C 
ATOM     10  C   UNL     1       6.659   4.240  16.916  0.00  0.00    +0.000 C 
ATOM     11  N   UNL     1       7.666   4.469  17.937  0.00  0.00    +0.000 N 
ATOM     12  H   UNL     1       8.596   4.557  17.548  0.00  0.00    +0.000 HD
ENDROOT
BRANCH   8  13
ATOM     13  S   UNL     1       3.797   6.210  18.246  0.00  0.00    +0.000 S 
ATOM     14  O   UNL     1       4.270   5.658  19.501  0.00  0.00    +0.000 OA
ATOM     15  O   UNL     1       4.033   7.586  17.882  0.00  0.00    +0.000 OA
BRANCH  13  16
ATOM     16  C   UNL     1       2.033   5.874  18.115  0.00  0.00    +0.000 C 
BRANCH  16  17
ATOM     17  C   UNL     1       1.712   4.591  18.845  0.00  0.00    +0.000 A 
ATOM     18  C   UNL     1       1.618   3.374  18.153  0.00  0.00    +0.000 A 
ATOM     19  C   UNL     1       1.321   2.191  18.833  0.00  0.00    +0.000 A 
ATOM     20  C   UNL     1       1.106   2.212  20.209  0.00  0.00    +0.000 A 
ATOM     21  C   UNL     1       1.183   3.417  20.905  0.00  0.00    +0.000 A 
ATOM     22  C   UNL     1       1.483   4.600  20.228  0.00  0.00    +0.000 A 
ENDBRANCH  16  17
ENDBRANCH  13  16
ENDBRANCH   8  13
TORSDOF 3
ENDMDL
MODEL 8
REMARK VINA RESULT:      -7.7      1.980      5.613
REMARK  Name = 
REMARK  3 active torsions:
REMARK  status: ('A' for Active; 'I' for Inactive)
REMARK    1  A    between atoms: N_8  and  S_9
REMARK    2  A    between atoms: S_9  and  C_12
REMARK    3  A    between atoms: C_12  and  C_13
REMARK                            x       y       z     vdW  Elec       q    Type
REMARK                         _______ _______ _______ _____ _____    ______ ____
ROOT
ATOM      1  O   UNL     1       6.984   5.241  19.971  0.00  0.00    +0.000 OA
ATOM      2  C   UNL     1       7.521   5.552  18.916  0.00  0.00    +0.000 C 
ATOM      3  C   UNL     1       7.996   6.949  18.591  0.00  0.00    +0.000 C 
ATOM      4  C   UNL     1       7.541   7.518  17.242  0.00  0.00    +0.000 C 
ATOM      5  C   UNL     1       7.671   6.611  16.017  0.00  0.00    +0.000 C 
ATOM      6  C   UNL     1       6.683   5.429  15.906  0.00  0.00    +0.000 C 
ATOM      7  C   UNL     1       5.204   5.835  15.904  0.00  0.00    +0.000 C 
ATOM      8  N   UNL     1       4.562   5.190  17.063  0.00  0.00    +0.000 NA
ATOM      9  C   UNL     1       5.407   4.040  17.484  0.00  0.00    +0.000 C 
ATOM     10  C   UNL     1       6.828   4.316  16.955  0.00  0.00    +0.000 C 
ATOM     11  N   UNL     1       7.833   4.610  17.962  0.00  0.00    +0.000 N 
ATOM     12  H   UNL     1       8.751   4.742  17.561  0.00  0.00    +0.000 HD
ENDROOT
BRANCH   8  13
ATOM     13  S   UNL     1       3.881   6.151  18.294  0.00  0.00    +0.000 S 
ATOM     14  O   UNL     1       4.303   5.571  19.554  0.00  0.00    +0.000 OA
ATOM     15  O   UNL     1       4.141   7.533  17.966  0.00  0.00    +0.000 OA
BRANCH  13  16
ATOM     16  C   UNL     1       2.120   5.833  18.092  0.00  0.00    +0.000 C 
BRANCH  16  17
ATOM     17  C   UNL     1       1.759   4.550  18.803  0.00  0.00    +0.000 A 
ATOM     18  C   UNL     1       1.441   4.551  20.170  0.00  0.00    +0.000 A 
ATOM     19  C   UNL     1       1.109   3.361  20.822  0.00  0.00    +0.000 A 
ATOM     20  C   UNL     1       1.098   2.160  20.119  0.00  0.00    +0.000 A 
ATOM     21  C   UNL     1       1.426   2.144  18.765  0.00  0.00    +0.000 A 
ATOM     22  C   UNL     1       1.755   3.332  18.110  0.00  0.00    +0.000 A 
ENDBRANCH  16  17
ENDBRANCH  13  16
ENDBRANCH   8  13
TORSDOF 3
ENDMDL
MODEL 9
REMARK VINA RESULT:      -7.7      2.273      3.404
REMARK  Name = 
REMARK  3 active torsions:
REMARK  status: ('A' for Active; 'I' for Inactive)
REMARK    1  A    between atoms: N_8  and  S_9
REMARK    2  A    between atoms: S_9  and  C_12
REMARK    3  A    between atoms: C_12  and  C_13
REMARK                            x       y       z     vdW  Elec       q    Type
REMARK                         _______ _______ _______ _____ _____    ______ ____
ROOT
ATOM      1  O   UNL     1       4.960   2.150  19.728  0.00  0.00    +0.000 OA
ATOM      2  C   UNL     1       3.829   2.518  19.435  0.00  0.00    +0.000 C 
ATOM      3  C   UNL     1       2.996   1.893  18.341  0.00  0.00    +0.000 C 
ATOM      4  C   UNL     1       2.374   2.863  17.330  0.00  0.00    +0.000 C 
ATOM      5  C   UNL     1       1.679   4.108  17.886  0.00  0.00    +0.000 C 
ATOM      6  C   UNL     1       2.580   5.218  18.470  0.00  0.00    +0.000 C 
ATOM      7  C   UNL     1       3.609   5.785  17.484  0.00  0.00    +0.000 C 
ATOM      8  N   UNL     1       4.949   5.542  18.049  0.00  0.00    +0.000 NA
ATOM      9  C   UNL     1       4.805   5.320  19.513  0.00  0.00    +0.000 C 
ATOM     10  C   UNL     1       3.351   4.869  19.752  0.00  0.00    +0.000 C 
ATOM     11  N   UNL     1       3.176   3.487  20.163  0.00  0.00    +0.000 N 
ATOM     12  H   UNL     1       2.208   3.259  20.345  0.00  0.00    +0.000 HD
ENDROOT
BRANCH   8  13
ATOM     13  S   UNL     1       6.050   4.548  17.212  0.00  0.00    +0.000 S 
ATOM     14  O   UNL     1       7.163   4.314  18.112  0.00  0.00    +0.000 OA
ATOM     15  O   UNL     1       5.303   3.462  16.625  0.00  0.00    +0.000 OA
BRANCH  13  16
ATOM     16  C   UNL     1       6.615   5.636  15.893  0.00  0.00    +0.000 C 
BRANCH  16  17
ATOM     17  C   UNL     1       6.478   4.926  14.566  0.00  0.00    +0.000 A 
ATOM     18  C   UNL     1       7.537   4.912  13.645  0.00  0.00    +0.000 A 
ATOM     19  C   UNL     1       7.404   4.254  12.420  0.00  0.00    +0.000 A 
ATOM     20  C   UNL     1       6.211   3.612  12.099  0.00  0.00    +0.000 A 
ATOM     21  C   UNL     1       5.148   3.630  13.000  0.00  0.00    +0.000 A 
ATOM     22  C   UNL     1       5.279   4.284  14.226  0.00  0.00    +0.000 A 
ENDBRANCH  16  17
ENDBRANCH  13  16
ENDBRANCH   8  13
TORSDOF 3
ENDMDL
