MODEL 1
REMARK VINA RESULT:      -8.2      0.000      0.000
REMARK  Name = 
REMARK  8 active torsions:
REMARK  status: ('A' for Active; 'I' for Inactive)
REMARK    1  A    between atoms: O_1  and  C_2
REMARK    2  A    between atoms: C_5  and  C_6
REMARK    3  A    between atoms: C_10  and  O_11
REMARK    4  A    between atoms: C_16  and  C_17
REMARK    5  A    between atoms: C_20  and  O_21
REMARK    6  A    between atoms: O_21  and  C_22
REMARK    7  A    between atoms: C_22  and  C_23
REMARK    8  A    between atoms: C_23  and  N_24
REMARK                            x       y       z     vdW  Elec       q    Type
REMARK                         _______ _______ _______ _____ _____    ______ ____
ROOT
ATOM      1  C   UNL     1      -0.109  12.773  18.303  0.00  0.00    +0.000 C 
ATOM      2  S   UNL     1      -0.406  14.517  18.821  0.00  0.00    +0.000 S 
ATOM      3  C   UNL     1       1.218  14.965  19.366  0.00  0.00    +0.000 A 
ATOM      4  C   UNL     1       1.579  16.316  19.331  0.00  0.00    +0.000 A 
ATOM      5  C   UNL     1       2.833  16.713  19.806  0.00  0.00    +0.000 A 
ATOM      6  C   UNL     1       3.723  15.780  20.319  0.00  0.00    +0.000 A 
ATOM      7  C   UNL     1       3.353  14.432  20.376  0.00  0.00    +0.000 A 
ATOM      8  C   UNL     1       2.110  14.024  19.883  0.00  0.00    +0.000 A 
ATOM      9  O   UNL     1       1.777  12.703  20.022  0.00  0.00    +0.000 OA
ATOM     10  C   UNL     1       1.257  12.121  18.807  0.00  0.00    +0.000 C 
ENDROOT
BRANCH   1  14
ATOM     11  C   UNL     1      -4.000  11.000  18.302  0.00  0.00    +0.000 A 
ATOM     12  C   UNL     1      -3.655  11.915  19.288  0.00  0.00    +0.000 A 
ATOM     13  C   UNL     1      -2.339  12.363  19.379  0.00  0.00    +0.000 A 
ATOM     14  C   UNL     1      -1.373  11.930  18.451  0.00  0.00    +0.000 A 
ATOM     15  C   UNL     1      -1.709  10.886  17.563  0.00  0.00    +0.000 A 
ATOM     16  C   UNL     1      -3.026  10.425  17.488  0.00  0.00    +0.000 A 
BRANCH  11  17
ATOM     17  O   UNL     1      -5.303  10.710  18.047  0.00  0.00    +0.000 OA
ATOM     18  H   UNL     1      -5.591  10.063  18.710  0.00  0.00    +0.000 HD
ENDBRANCH  11  17
ENDBRANCH   1  14
BRANCH  10  19
ATOM     19  C   UNL     1       1.352  10.603  19.055  0.00  0.00    +0.000 A 
ATOM     20  C   UNL     1       1.046  10.039  20.301  0.00  0.00    +0.000 A 
ATOM     21  C   UNL     1       1.182   8.677  20.582  0.00  0.00    +0.000 A 
ATOM     22  C   UNL     1       1.758   7.834  19.649  0.00  0.00    +0.000 A 
ATOM     23  C   UNL     1       2.125   8.369  18.410  0.00  0.00    +0.000 A 
ATOM     24  C   UNL     1       1.901   9.729  18.103  0.00  0.00    +0.000 A 
BRANCH  22  25
ATOM     25  O   UNL     1       2.054   6.514  19.867  0.00  0.00    +0.000 OA
BRANCH  25  26
ATOM     26  C   UNL     1       2.668   5.818  18.769  0.00  0.00    +0.000 C 
BRANCH  26  27
ATOM     27  C   UNL     1       4.105   5.439  19.171  0.00  0.00    +0.000 C 
BRANCH  27  28
ATOM     28  N   UNL     1       5.150   5.564  18.122  0.00  0.00    +0.000 NA
ATOM     29  C   UNL     1       4.503   5.443  16.798  0.00  0.00    +0.000 C 
ATOM     30  C   UNL     1       5.500   5.596  15.657  0.00  0.00    +0.000 C 
ATOM     31  C   UNL     1       6.629   4.607  15.820  0.00  0.00    +0.000 C 
ATOM     32  F   UNL     1       7.565   4.819  14.859  0.00  0.00    +0.000 F 
ATOM     33  F   UNL     1       6.162   3.346  15.622  0.00  0.00    +0.000 F 
ATOM     34  C   UNL     1       7.273   4.693  17.182  0.00  0.00    +0.000 C 
ATOM     35  C   UNL     1       6.215   4.557  18.270  0.00  0.00    +0.000 C 
ENDBRANCH  27  28
ENDBRANCH  26  27
ENDBRANCH  25  26
ENDBRANCH  22  25
ENDBRANCH  10  19
BRANCH   5  36
ATOM     36  O   UNL     1       3.211  18.017  19.764  0.00  0.00    +0.000 OA
ATOM     37  H   UNL     1       3.676  18.191  18.918  0.00  0.00    +0.000 HD
ENDBRANCH   5  36
TORSDOF 8
ENDMDL
MODEL 2
REMARK VINA RESULT:      -7.8      2.136      2.474
REMARK  Name = 
REMARK  8 active torsions:
REMARK  status: ('A' for Active; 'I' for Inactive)
REMARK    1  A    between atoms: O_1  and  C_2
REMARK    2  A    between atoms: C_5  and  C_6
REMARK    3  A    between atoms: C_10  and  O_11
REMARK    4  A    between atoms: C_16  and  C_17
REMARK    5  A    between atoms: C_20  and  O_21
REMARK    6  A    between atoms: O_21  and  C_22
REMARK    7  A    between atoms: C_22  and  C_23
REMARK    8  A    between atoms: C_23  and  N_24
REMARK                            x       y       z     vdW  Elec       q    Type
REMARK                         _______ _______ _______ _____ _____    ______ ____
ROOT
ATOM      1  C   UNL     1      -0.068  12.957  18.306  0.00  0.00    +0.000 C 
ATOM      2  S   UNL     1      -0.359  14.652  18.970  0.00  0.00    +0.000 S 
ATOM      3  C   UNL     1       1.276  15.063  19.514  0.00  0.00    +0.000 A 
ATOM      4  C   UNL     1       1.632  16.414  19.580  0.00  0.00    +0.000 A 
ATOM      5  C   UNL     1       2.895  16.777  20.058  0.00  0.00    +0.000 A 
ATOM      6  C   UNL     1       3.800  15.810  20.473  0.00  0.00    +0.000 A 
ATOM      7  C   UNL     1       3.435  14.460  20.428  0.00  0.00    +0.000 A 
ATOM      8  C   UNL     1       2.183  14.087  19.932  0.00  0.00    +0.000 A 
ATOM      9  O   UNL     1       1.857  12.758  19.970  0.00  0.00    +0.000 OA
ATOM     10  C   UNL     1       1.311  12.274  18.724  0.00  0.00    +0.000 C 
ENDROOT
BRANCH   1  14
ATOM     11  C   UNL     1      -3.958  11.182  18.275  0.00  0.00    +0.000 A 
ATOM     12  C   UNL     1      -3.570  11.983  19.341  0.00  0.00    +0.000 A 
ATOM     13  C   UNL     1      -2.251  12.423  19.424  0.00  0.00    +0.000 A 
ATOM     14  C   UNL     1      -1.325  12.099  18.414  0.00  0.00    +0.000 A 
ATOM     15  C   UNL     1      -1.700  11.158  17.430  0.00  0.00    +0.000 A 
ATOM     16  C   UNL     1      -3.021  10.704  17.361  0.00  0.00    +0.000 A 
BRANCH  11  17
ATOM     17  O   UNL     1      -5.271  10.917  18.045  0.00  0.00    +0.000 OA
ATOM     18  H   UNL     1      -5.338   9.982  17.795  0.00  0.00    +0.000 HD
ENDBRANCH  11  17
ENDBRANCH   1  14
BRANCH  10  19
ATOM     19  C   UNL     1       1.417  10.741  18.846  0.00  0.00    +0.000 A 
ATOM     20  C   UNL     1       1.153  10.077  20.051  0.00  0.00    +0.000 A 
ATOM     21  C   UNL     1       1.301   8.698  20.218  0.00  0.00    +0.000 A 
ATOM     22  C   UNL     1       1.847   7.935  19.201  0.00  0.00    +0.000 A 
ATOM     23  C   UNL     1       2.172   8.569  17.997  0.00  0.00    +0.000 A 
ATOM     24  C   UNL     1       1.936   9.948  17.809  0.00  0.00    +0.000 A 
BRANCH  22  25
ATOM     25  O   UNL     1       2.151   6.603  19.302  0.00  0.00    +0.000 OA
BRANCH  25  26
ATOM     26  C   UNL     1       1.983   6.015  20.603  0.00  0.00    +0.000 C 
BRANCH  26  27
ATOM     27  C   UNL     1       1.047   4.799  20.474  0.00  0.00    +0.000 C 
BRANCH  27  28
ATOM     28  N   UNL     1       1.654   3.535  19.980  0.00  0.00    +0.000 NA
ATOM     29  C   UNL     1       3.105   3.569  20.265  0.00  0.00    +0.000 C 
ATOM     30  C   UNL     1       3.805   2.292  19.823  0.00  0.00    +0.000 C 
ATOM     31  C   UNL     1       3.528   2.028  18.362  0.00  0.00    +0.000 C 
ATOM     32  F   UNL     1       4.068   0.837  18.001  0.00  0.00    +0.000 F 
ATOM     33  F   UNL     1       4.150   2.971  17.604  0.00  0.00    +0.000 F 
ATOM     34  C   UNL     1       2.051   2.031  18.050  0.00  0.00    +0.000 C 
ATOM     35  C   UNL     1       1.415   3.324  18.542  0.00  0.00    +0.000 C 
ENDBRANCH  27  28
ENDBRANCH  26  27
ENDBRANCH  25  26
ENDBRANCH  22  25
ENDBRANCH  10  19
BRANCH   5  36
ATOM     36  O   UNL     1       3.268  18.083  20.113  0.00  0.00    +0.000 OA
ATOM     37  H   UNL     1       2.745  18.538  20.806  0.00  0.00    +0.000 HD
ENDBRANCH   5  36
TORSDOF 8
ENDMDL
MODEL 3
REMARK VINA RESULT:      -7.7      3.469      5.699
REMARK  Name = 
REMARK  8 active torsions:
REMARK  status: ('A' for Active; 'I' for Inactive)
REMARK    1  A    between atoms: O_1  and  C_2
REMARK    2  A    between atoms: C_5  and  C_6
REMARK    3  A    between atoms: C_10  and  O_11
REMARK    4  A    between atoms: C_16  and  C_17
REMARK    5  A    between atoms: C_20  and  O_21
REMARK    6  A    between atoms: O_21  and  C_22
REMARK    7  A    between atoms: C_22  and  C_23
REMARK    8  A    between atoms: C_23  and  N_24
REMARK                            x       y       z     vdW  Elec       q    Type
REMARK                         _______ _______ _______ _____ _____    ______ ____
ROOT
ATOM      1  C   UNL     1      -1.089  14.058  21.712  0.00  0.00    +0.000 C 
ATOM      2  S   UNL     1      -2.264  15.438  21.374  0.00  0.00    +0.000 S 
ATOM      3  C   UNL     1      -3.704  14.840  22.213  0.00  0.00    +0.000 A 
ATOM      4  C   UNL     1      -4.638  15.774  22.672  0.00  0.00    +0.000 A 
ATOM      5  C   UNL     1      -5.813  15.335  23.290  0.00  0.00    +0.000 A 
ATOM      6  C   UNL     1      -6.066  13.980  23.448  0.00  0.00    +0.000 A 
ATOM      7  C   UNL     1      -5.143  13.045  22.968  0.00  0.00    +0.000 A 
ATOM      8  C   UNL     1      -3.956  13.476  22.369  0.00  0.00    +0.000 A 
ATOM      9  O   UNL     1      -3.119  12.518  21.862  0.00  0.00    +0.000 OA
ATOM     10  C   UNL     1      -1.742  12.706  22.253  0.00  0.00    +0.000 C 
ENDROOT
BRANCH   1  14
ATOM     11  C   UNL     1       1.738  12.908  18.718  0.00  0.00    +0.000 A 
ATOM     12  C   UNL     1       2.148  13.065  20.035  0.00  0.00    +0.000 A 
ATOM     13  C   UNL     1       1.264  13.596  20.971  0.00  0.00    +0.000 A 
ATOM     14  C   UNL     1      -0.053  13.929  20.600  0.00  0.00    +0.000 A 
ATOM     15  C   UNL     1      -0.394  13.909  19.230  0.00  0.00    +0.000 A 
ATOM     16  C   UNL     1       0.504  13.394  18.291  0.00  0.00    +0.000 A 
BRANCH  11  17
ATOM     17  O   UNL     1       2.489  12.200  17.834  0.00  0.00    +0.000 OA
ATOM     18  H   UNL     1       2.254  11.264  17.940  0.00  0.00    +0.000 HD
ENDBRANCH  11  17
ENDBRANCH   1  14
BRANCH  10  19
ATOM     19  C   UNL     1      -1.083  11.347  21.950  0.00  0.00    +0.000 A 
ATOM     20  C   UNL     1      -0.454  10.593  22.950  0.00  0.00    +0.000 A 
ATOM     21  C   UNL     1       0.209   9.388  22.702  0.00  0.00    +0.000 A 
ATOM     22  C   UNL     1       0.380   8.949  21.402  0.00  0.00    +0.000 A 
ATOM     23  C   UNL     1      -0.189   9.702  20.368  0.00  0.00    +0.000 A 
ATOM     24  C   UNL     1      -0.934  10.870  20.637  0.00  0.00    +0.000 A 
BRANCH  22  25
ATOM     25  O   UNL     1       1.118   7.855  21.037  0.00  0.00    +0.000 OA
BRANCH  25  26
ATOM     26  C   UNL     1       1.924   8.005  19.855  0.00  0.00    +0.000 C 
BRANCH  26  27
ATOM     27  C   UNL     1       2.697   6.695  19.619  0.00  0.00    +0.000 C 
BRANCH  27  28
ATOM     28  N   UNL     1       1.898   5.507  19.217  0.00  0.00    +0.000 NA
ATOM     29  C   UNL     1       1.709   4.646  20.404  0.00  0.00    +0.000 C 
ATOM     30  C   UNL     1       0.866   3.417  20.091  0.00  0.00    +0.000 C 
ATOM     31  C   UNL     1       1.471   2.655  18.937  0.00  0.00    +0.000 C 
ATOM     32  F   UNL     1       0.660   1.620  18.597  0.00  0.00    +0.000 F 
ATOM     33  F   UNL     1       2.650   2.099  19.326  0.00  0.00    +0.000 F 
ATOM     34  C   UNL     1       1.705   3.532  17.731  0.00  0.00    +0.000 C 
ATOM     35  C   UNL     1       2.532   4.750  18.124  0.00  0.00    +0.000 C 
ENDBRANCH  27  28
ENDBRANCH  26  27
ENDBRANCH  25  26
ENDBRANCH  22  25
ENDBRANCH  10  19
BRANCH   5  36
ATOM     36  O   UNL     1      -6.725  16.226  23.760  0.00  0.00    +0.000 OA
ATOM     37  H   UNL     1      -7.014  16.810  23.027  0.00  0.00    +0.000 HD
ENDBRANCH   5  36
TORSDOF 8
ENDMDL
MODEL 4
REMARK VINA RESULT:      -7.7      2.644      5.816
REMARK  Name = 
REMARK  8 active torsions:
REMARK  status: ('A' for Active; 'I' for Inactive)
REMARK    1  A    between atoms: O_1  and  C_2
REMARK    2  A    between atoms: C_5  and  C_6
REMARK    3  A    between atoms: C_10  and  O_11
REMARK    4  A    between atoms: C_16  and  C_17
REMARK    5  A    between atoms: C_20  and  O_21
REMARK    6  A    between atoms: O_21  and  C_22
REMARK    7  A    between atoms: C_22  and  C_23
REMARK    8  A    between atoms: C_23  and  N_24
REMARK                            x       y       z     vdW  Elec       q    Type
REMARK                         _______ _______ _______ _____ _____    ______ ____
ROOT
ATOM      1  C   UNL     1      -0.431  11.729  19.971  0.00  0.00    +0.000 C 
ATOM      2  S   UNL     1      -1.692  13.004  19.546  0.00  0.00    +0.000 S 
ATOM      3  C   UNL     1      -3.004  11.968  18.963  0.00  0.00    +0.000 A 
ATOM      4  C   UNL     1      -4.315  12.449  19.047  0.00  0.00    +0.000 A 
ATOM      5  C   UNL     1      -5.371  11.681  18.545  0.00  0.00    +0.000 A 
ATOM      6  C   UNL     1      -5.131  10.447  17.957  0.00  0.00    +0.000 A 
ATOM      7  C   UNL     1      -3.818   9.976  17.852  0.00  0.00    +0.000 A 
ATOM      8  C   UNL     1      -2.760  10.728  18.370  0.00  0.00    +0.000 A 
ATOM      9  O   UNL     1      -1.491  10.247  18.183  0.00  0.00    +0.000 OA
ATOM     10  C   UNL     1      -0.696  10.268  19.388  0.00  0.00    +0.000 C 
ENDROOT
BRANCH   1  14
ATOM     11  C   UNL     1       3.166  13.981  19.445  0.00  0.00    +0.000 A 
ATOM     12  C   UNL     1       2.518  13.441  18.342  0.00  0.00    +0.000 A 
ATOM     13  C   UNL     1       1.443  12.575  18.532  0.00  0.00    +0.000 A 
ATOM     14  C   UNL     1       0.984  12.283  19.831  0.00  0.00    +0.000 A 
ATOM     15  C   UNL     1       1.753  12.715  20.933  0.00  0.00    +0.000 A 
ATOM     16  C   UNL     1       2.843  13.568  20.737  0.00  0.00    +0.000 A 
BRANCH  11  17
ATOM     17  O   UNL     1       4.066  14.988  19.300  0.00  0.00    +0.000 OA
ATOM     18  H   UNL     1       3.580  15.768  18.987  0.00  0.00    +0.000 HD
ENDBRANCH  11  17
ENDBRANCH   1  14
BRANCH  10  19
ATOM     19  C   UNL     1       0.485   9.331  19.066  0.00  0.00    +0.000 A 
ATOM     20  C   UNL     1       1.116   8.572  20.061  0.00  0.00    +0.000 A 
ATOM     21  C   UNL     1       2.229   7.762  19.820  0.00  0.00    +0.000 A 
ATOM     22  C   UNL     1       2.838   7.778  18.578  0.00  0.00    +0.000 A 
ATOM     23  C   UNL     1       2.268   8.564  17.570  0.00  0.00    +0.000 A 
ATOM     24  C   UNL     1       1.092   9.310  17.800  0.00  0.00    +0.000 A 
BRANCH  22  25
ATOM     25  O   UNL     1       4.002   7.124  18.271  0.00  0.00    +0.000 OA
BRANCH  25  26
ATOM     26  C   UNL     1       3.956   6.267  17.117  0.00  0.00    +0.000 C 
BRANCH  26  27
ATOM     27  C   UNL     1       4.488   4.879  17.517  0.00  0.00    +0.000 C 
BRANCH  27  28
ATOM     28  N   UNL     1       3.575   4.013  18.308  0.00  0.00    +0.000 NA
ATOM     29  C   UNL     1       2.188   4.264  17.864  0.00  0.00    +0.000 C 
ATOM     30  C   UNL     1       1.183   3.389  18.600  0.00  0.00    +0.000 C 
ATOM     31  C   UNL     1       1.334   3.570  20.092  0.00  0.00    +0.000 C 
ATOM     32  F   UNL     1       0.508   2.712  20.743  0.00  0.00    +0.000 F 
ATOM     33  F   UNL     1       0.932   4.821  20.442  0.00  0.00    +0.000 F 
ATOM     34  C   UNL     1       2.755   3.355  20.553  0.00  0.00    +0.000 C 
ATOM     35  C   UNL     1       3.703   4.242  19.758  0.00  0.00    +0.000 C 
ENDBRANCH  27  28
ENDBRANCH  26  27
ENDBRANCH  25  26
ENDBRANCH  22  25
ENDBRANCH  10  19
BRANCH   5  36
ATOM     36  O   UNL     1      -6.653  12.121  18.634  0.00  0.00    +0.000 OA
ATOM     37  H   UNL     1      -6.669  12.974  19.117  0.00  0.00    +0.000 HD
ENDBRANCH   5  36
TORSDOF 8
ENDMDL
MODEL 5
REMARK VINA RESULT:      -7.6      3.040      5.392
REMARK  Name = 
REMARK  8 active torsions:
REMARK  status: ('A' for Active; 'I' for Inactive)
REMARK    1  A    between atoms: O_1  and  C_2
REMARK    2  A    between atoms: C_5  and  C_6
REMARK    3  A    between atoms: C_10  and  O_11
REMARK    4  A    between atoms: C_16  and  C_17
REMARK    5  A    between atoms: C_20  and  O_21
REMARK    6  A    between atoms: O_21  and  C_22
REMARK    7  A    between atoms: C_22  and  C_23
REMARK    8  A    between atoms: C_23  and  N_24
REMARK                            x       y       z     vdW  Elec       q    Type
REMARK                         _______ _______ _______ _____ _____    ______ ____
ROOT
ATOM      1  C   UNL     1      -0.498  14.027  21.864  0.00  0.00    +0.000 C 
ATOM      2  S   UNL     1      -1.612  15.473  22.123  0.00  0.00    +0.000 S 
ATOM      3  C   UNL     1      -3.126  14.639  22.508  0.00  0.00    +0.000 A 
ATOM      4  C   UNL     1      -4.074  15.313  23.285  0.00  0.00    +0.000 A 
ATOM      5  C   UNL     1      -5.304  14.708  23.563  0.00  0.00    +0.000 A 
ATOM      6  C   UNL     1      -5.597  13.444  23.069  0.00  0.00    +0.000 A 
ATOM      7  C   UNL     1      -4.659  12.780  22.272  0.00  0.00    +0.000 A 
ATOM      8  C   UNL     1      -3.419  13.369  22.008  0.00  0.00    +0.000 A 
ATOM      9  O   UNL     1      -2.566  12.701  21.171  0.00  0.00    +0.000 OA
ATOM     10  C   UNL     1      -1.220  12.615  21.687  0.00  0.00    +0.000 C 
ENDROOT
BRANCH   1  14
ATOM     11  C   UNL     1       2.604  14.180  18.925  0.00  0.00    +0.000 A 
ATOM     12  C   UNL     1       2.910  13.853  20.240  0.00  0.00    +0.000 A 
ATOM     13  C   UNL     1       1.927  13.964  21.222  0.00  0.00    +0.000 A 
ATOM     14  C   UNL     1       0.619  14.360  20.880  0.00  0.00    +0.000 A 
ATOM     15  C   UNL     1       0.377  14.836  19.574  0.00  0.00    +0.000 A 
ATOM     16  C   UNL     1       1.372  14.741  18.596  0.00  0.00    +0.000 A 
BRANCH  11  17
ATOM     17  O   UNL     1       3.463  13.879  17.916  0.00  0.00    +0.000 OA
ATOM     18  H   UNL     1       3.019  14.103  17.082  0.00  0.00    +0.000 HD
ENDBRANCH  11  17
ENDBRANCH   1  14
BRANCH  10  19
ATOM     19  C   UNL     1      -0.569  11.507  20.837  0.00  0.00    +0.000 A 
ATOM     20  C   UNL     1       0.375  10.623  21.377  0.00  0.00    +0.000 A 
ATOM     21  C   UNL     1       1.035   9.649  20.623  0.00  0.00    +0.000 A 
ATOM     22  C   UNL     1       0.863   9.604  19.251  0.00  0.00    +0.000 A 
ATOM     23  C   UNL     1      -0.034  10.505  18.666  0.00  0.00    +0.000 A 
ATOM     24  C   UNL     1      -0.762  11.427  19.449  0.00  0.00    +0.000 A 
BRANCH  22  25
ATOM     25  O   UNL     1       1.552   8.778  18.404  0.00  0.00    +0.000 OA
BRANCH  25  26
ATOM     26  C   UNL     1       2.242   7.677  19.021  0.00  0.00    +0.000 C 
BRANCH  26  27
ATOM     27  C   UNL     1       3.292   7.140  18.033  0.00  0.00    +0.000 C 
BRANCH  27  28
ATOM     28  N   UNL     1       3.144   5.726  17.598  0.00  0.00    +0.000 NA
ATOM     29  C   UNL     1       2.187   5.055  18.504  0.00  0.00    +0.000 C 
ATOM     30  C   UNL     1       1.946   3.605  18.110  0.00  0.00    +0.000 C 
ATOM     31  C   UNL     1       3.259   2.863  18.034  0.00  0.00    +0.000 C 
ATOM     32  F   UNL     1       3.047   1.601  17.583  0.00  0.00    +0.000 F 
ATOM     33  F   UNL     1       3.782   2.735  19.283  0.00  0.00    +0.000 F 
ATOM     34  C   UNL     1       4.259   3.559  17.144  0.00  0.00    +0.000 C 
ATOM     35  C   UNL     1       4.430   5.008  17.581  0.00  0.00    +0.000 C 
ENDBRANCH  27  28
ENDBRANCH  26  27
ENDBRANCH  25  26
ENDBRANCH  22  25
ENDBRANCH  10  19
BRANCH   5  36
ATOM     36  O   UNL     1      -6.230  15.337  24.332  0.00  0.00    +0.000 OA
ATOM     37  H   UNL     1      -5.945  15.308  25.269  0.00  0.00    +0.000 HD
ENDBRANCH   5  36
TORSDOF 8
ENDMDL
MODEL 6
REMARK VINA RESULT:      -7.6      3.910      4.727
REMARK  Name = 
REMARK  8 active torsions:
REMARK  status: ('A' for Active; 'I' for Inactive)
REMARK    1  A    between atoms: O_1  and  C_2
REMARK    2  A    between atoms: C_5  and  C_6
REMARK    3  A    between atoms: C_10  and  O_11
REMARK    4  A    between atoms: C_16  and  C_17
REMARK    5  A    between atoms: C_20  and  O_21
REMARK    6  A    between atoms: O_21  and  C_22
REMARK    7  A    between atoms: C_22  and  C_23
REMARK    8  A    between atoms: C_23  and  N_24
REMARK                            x       y       z     vdW  Elec       q    Type
REMARK                         _______ _______ _______ _____ _____    ______ ____
ROOT
ATOM      1  C   UNL     1      -2.405  13.837  20.989  0.00  0.00    +0.000 C 
ATOM      2  S   UNL     1      -3.687  14.998  21.627  0.00  0.00    +0.000 S 
ATOM      3  C   UNL     1      -2.941  15.480  23.159  0.00  0.00    +0.000 A 
ATOM      4  C   UNL     1      -3.287  16.722  23.702  0.00  0.00    +0.000 A 
ATOM      5  C   UNL     1      -2.760  17.112  24.937  0.00  0.00    +0.000 A 
ATOM      6  C   UNL     1      -1.901  16.276  25.636  0.00  0.00    +0.000 A 
ATOM      7  C   UNL     1      -1.573  15.024  25.104  0.00  0.00    +0.000 A 
ATOM      8  C   UNL     1      -2.078  14.636  23.860  0.00  0.00    +0.000 A 
ATOM      9  O   UNL     1      -1.775  13.375  23.419  0.00  0.00    +0.000 OA
ATOM     10  C   UNL     1      -1.317  13.351  22.050  0.00  0.00    +0.000 C 
ENDROOT
BRANCH   1  14
ATOM     11  C   UNL     1      -4.410  11.461  18.054  0.00  0.00    +0.000 A 
ATOM     12  C   UNL     1      -5.107  11.931  19.159  0.00  0.00    +0.000 A 
ATOM     13  C   UNL     1      -4.414  12.564  20.190  0.00  0.00    +0.000 A 
ATOM     14  C   UNL     1      -3.024  12.767  20.094  0.00  0.00    +0.000 A 
ATOM     15  C   UNL     1      -2.320  12.143  19.042  0.00  0.00    +0.000 A 
ATOM     16  C   UNL     1      -3.017  11.493  18.020  0.00  0.00    +0.000 A 
BRANCH  11  17
ATOM     17  O   UNL     1      -5.070  11.040  16.943  0.00  0.00    +0.000 OA
ATOM     18  H   UNL     1      -5.191  11.812  16.368  0.00  0.00    +0.000 HD
ENDBRANCH  11  17
ENDBRANCH   1  14
BRANCH  10  19
ATOM     19  C   UNL     1      -0.653  11.967  21.908  0.00  0.00    +0.000 A 
ATOM     20  C   UNL     1      -0.939  10.918  22.791  0.00  0.00    +0.000 A 
ATOM     21  C   UNL     1      -0.310   9.672  22.733  0.00  0.00    +0.000 A 
ATOM     22  C   UNL     1       0.737   9.467  21.853  0.00  0.00    +0.000 A 
ATOM     23  C   UNL     1       1.088  10.509  20.987  0.00  0.00    +0.000 A 
ATOM     24  C   UNL     1       0.387  11.734  20.993  0.00  0.00    +0.000 A 
BRANCH  22  25
ATOM     25  O   UNL     1       1.503   8.333  21.800  0.00  0.00    +0.000 OA
BRANCH  25  26
ATOM     26  C   UNL     1       1.062   7.317  20.882  0.00  0.00    +0.000 C 
BRANCH  26  27
ATOM     27  C   UNL     1       2.239   6.939  19.966  0.00  0.00    +0.000 C 
BRANCH  27  28
ATOM     28  N   UNL     1       2.527   5.489  19.807  0.00  0.00    +0.000 NA
ATOM     29  C   UNL     1       2.089   5.069  18.459  0.00  0.00    +0.000 C 
ATOM     30  C   UNL     1       2.380   3.598  18.195  0.00  0.00    +0.000 C 
ATOM     31  C   UNL     1       1.760   2.745  19.276  0.00  0.00    +0.000 C 
ATOM     32  F   UNL     1       2.109   1.447  19.091  0.00  0.00    +0.000 F 
ATOM     33  F   UNL     1       0.405   2.791  19.170  0.00  0.00    +0.000 F 
ATOM     34  C   UNL     1       2.168   3.189  20.659  0.00  0.00    +0.000 C 
ATOM     35  C   UNL     1       1.871   4.672  20.842  0.00  0.00    +0.000 C 
ENDBRANCH  27  28
ENDBRANCH  26  27
ENDBRANCH  25  26
ENDBRANCH  22  25
ENDBRANCH  10  19
BRANCH   5  36
ATOM     36  O   UNL     1      -3.068  18.322  25.473  0.00  0.00    +0.000 OA
ATOM     37  H   UNL     1      -2.954  19.016  24.789  0.00  0.00    +0.000 HD
ENDBRANCH   5  36
TORSDOF 8
ENDMDL
MODEL 7
REMARK VINA RESULT:      -7.5      3.326      4.631
REMARK  Name = 
REMARK  8 active torsions:
REMARK  status: ('A' for Active; 'I' for Inactive)
REMARK    1  A    between atoms: O_1  and  C_2
REMARK    2  A    between atoms: C_5  and  C_6
REMARK    3  A    between atoms: C_10  and  O_11
REMARK    4  A    between atoms: C_16  and  C_17
REMARK    5  A    between atoms: C_20  and  O_21
REMARK    6  A    between atoms: O_21  and  C_22
REMARK    7  A    between atoms: C_22  and  C_23
REMARK    8  A    between atoms: C_23  and  N_24
REMARK                            x       y       z     vdW  Elec       q    Type
REMARK                         _______ _______ _______ _____ _____    ______ ____
ROOT
ATOM      1  C   UNL     1      -2.748  12.882  19.549  0.00  0.00    +0.000 C 
ATOM      2  S   UNL     1      -4.286  13.322  20.464  0.00  0.00    +0.000 S 
ATOM      3  C   UNL     1      -3.606  13.731  22.047  0.00  0.00    +0.000 A 
ATOM      4  C   UNL     1      -4.317  14.616  22.865  0.00  0.00    +0.000 A 
ATOM      5  C   UNL     1      -3.838  14.918  24.143  0.00  0.00    +0.000 A 
ATOM      6  C   UNL     1      -2.665  14.343  24.614  0.00  0.00    +0.000 A 
ATOM      7  C   UNL     1      -1.967  13.440  23.805  0.00  0.00    +0.000 A 
ATOM      8  C   UNL     1      -2.427  13.150  22.517  0.00  0.00    +0.000 A 
ATOM      9  O   UNL     1      -1.738  12.212  21.796  0.00  0.00    +0.000 OA
ATOM     10  C   UNL     1      -1.451  12.637  20.446  0.00  0.00    +0.000 C 
ENDROOT
BRANCH   1  14
ATOM     11  C   UNL     1      -3.908  10.633  16.102  0.00  0.00    +0.000 A 
ATOM     12  C   UNL     1      -4.784  10.765  17.171  0.00  0.00    +0.000 A 
ATOM     13  C   UNL     1      -4.342  11.357  18.352  0.00  0.00    +0.000 A 
ATOM     14  C   UNL     1      -3.031  11.862  18.450  0.00  0.00    +0.000 A 
ATOM     15  C   UNL     1      -2.117  11.574  17.413  0.00  0.00    +0.000 A 
ATOM     16  C   UNL     1      -2.561  10.963  16.237  0.00  0.00    +0.000 A 
BRANCH  11  17
ATOM     17  O   UNL     1      -4.358  10.264  14.874  0.00  0.00    +0.000 OA
ATOM     18  H   UNL     1      -4.114   9.334  14.743  0.00  0.00    +0.000 HD
ENDBRANCH  11  17
ENDBRANCH   1  14
BRANCH  10  19
ATOM     19  C   UNL     1      -0.352  11.663  19.978  0.00  0.00    +0.000 A 
ATOM     20  C   UNL     1       0.633  12.049  19.060  0.00  0.00    +0.000 A 
ATOM     21  C   UNL     1       1.605  11.178  18.564  0.00  0.00    +0.000 A 
ATOM     22  C   UNL     1       1.551   9.832  18.878  0.00  0.00    +0.000 A 
ATOM     23  C   UNL     1       0.550   9.395  19.753  0.00  0.00    +0.000 A 
ATOM     24  C   UNL     1      -0.374  10.301  20.318  0.00  0.00    +0.000 A 
BRANCH  22  25
ATOM     25  O   UNL     1       2.373   8.872  18.350  0.00  0.00    +0.000 OA
BRANCH  25  26
ATOM     26  C   UNL     1       2.370   7.601  19.022  0.00  0.00    +0.000 C 
BRANCH  26  27
ATOM     27  C   UNL     1       2.837   6.520  18.030  0.00  0.00    +0.000 C 
BRANCH  27  28
ATOM     28  N   UNL     1       2.215   5.176  18.159  0.00  0.00    +0.000 NA
ATOM     29  C   UNL     1       1.951   4.918  19.591  0.00  0.00    +0.000 C 
ATOM     30  C   UNL     1       1.278   3.571  19.815  0.00  0.00    +0.000 C 
ATOM     31  C   UNL     1       2.101   2.470  19.191  0.00  0.00    +0.000 C 
ATOM     32  F   UNL     1       1.445   1.287  19.304  0.00  0.00    +0.000 F 
ATOM     33  F   UNL     1       3.265   2.325  19.880  0.00  0.00    +0.000 F 
ATOM     34  C   UNL     1       2.412   2.741  17.739  0.00  0.00    +0.000 C 
ATOM     35  C   UNL     1       3.058   4.112  17.589  0.00  0.00    +0.000 C 
ENDBRANCH  27  28
ENDBRANCH  26  27
ENDBRANCH  25  26
ENDBRANCH  22  25
ENDBRANCH  10  19
BRANCH   5  36
ATOM     36  O   UNL     1      -4.503  15.789  24.946  0.00  0.00    +0.000 OA
ATOM     37  H   UNL     1      -4.140  15.732  25.855  0.00  0.00    +0.000 HD
ENDBRANCH   5  36
TORSDOF 8
ENDMDL
MODEL 8
REMARK VINA RESULT:      -7.5      2.973      5.108
REMARK  Name = 
REMARK  8 active torsions:
REMARK  status: ('A' for Active; 'I' for Inactive)
REMARK    1  A    between atoms: O_1  and  C_2
REMARK    2  A    between atoms: C_5  and  C_6
REMARK    3  A    between atoms: C_10  and  O_11
REMARK    4  A    between atoms: C_16  and  C_17
REMARK    5  A    between atoms: C_20  and  O_21
REMARK    6  A    between atoms: O_21  and  C_22
REMARK    7  A    between atoms: C_22  and  C_23
REMARK    8  A    between atoms: C_23  and  N_24
REMARK                            x       y       z     vdW  Elec       q    Type
REMARK                         _______ _______ _______ _____ _____    ______ ____
ROOT
ATOM      1  C   UNL     1      -0.630  13.884  21.752  0.00  0.00    +0.000 C 
ATOM      2  S   UNL     1      -1.944  15.166  21.583  0.00  0.00    +0.000 S 
ATOM      3  C   UNL     1      -3.253  14.397  22.495  0.00  0.00    +0.000 A 
ATOM      4  C   UNL     1      -4.226  15.217  23.077  0.00  0.00    +0.000 A 
ATOM      5  C   UNL     1      -5.304  14.642  23.757  0.00  0.00    +0.000 A 
ATOM      6  C   UNL     1      -5.423  13.263  23.857  0.00  0.00    +0.000 A 
ATOM      7  C   UNL     1      -4.463  12.442  23.255  0.00  0.00    +0.000 A 
ATOM      8  C   UNL     1      -3.371  13.009  22.592  0.00  0.00    +0.000 A 
ATOM      9  O   UNL     1      -2.498  12.158  21.969  0.00  0.00    +0.000 OA
ATOM     10  C   UNL     1      -1.115  12.453  22.263  0.00  0.00    +0.000 C 
ENDROOT
BRANCH   1  14
ATOM     11  C   UNL     1       2.045  13.151  18.498  0.00  0.00    +0.000 A 
ATOM     12  C   UNL     1       2.544  13.301  19.785  0.00  0.00    +0.000 A 
ATOM     13  C   UNL     1       1.689  13.700  20.810  0.00  0.00    +0.000 A 
ATOM     14  C   UNL     1       0.320  13.906  20.557  0.00  0.00    +0.000 A 
ATOM     15  C   UNL     1      -0.129  13.902  19.219  0.00  0.00    +0.000 A 
ATOM     16  C   UNL     1       0.737  13.519  18.190  0.00  0.00    +0.000 A 
BRANCH  11  17
ATOM     17  O   UNL     1       2.790  12.559  17.528  0.00  0.00    +0.000 OA
ATOM     18  H   UNL     1       2.211  12.421  16.761  0.00  0.00    +0.000 HD
ENDBRANCH  11  17
ENDBRANCH   1  14
BRANCH  10  19
ATOM     19  C   UNL     1      -0.366  11.177  21.833  0.00  0.00    +0.000 A 
ATOM     20  C   UNL     1      -0.377  10.726  20.507  0.00  0.00    +0.000 A 
ATOM     21  C   UNL     1       0.235   9.541  20.092  0.00  0.00    +0.000 A 
ATOM     22  C   UNL     1       0.784   8.684  21.028  0.00  0.00    +0.000 A 
ATOM     23  C   UNL     1       0.770   9.073  22.372  0.00  0.00    +0.000 A 
ATOM     24  C   UNL     1       0.227  10.314  22.770  0.00  0.00    +0.000 A 
BRANCH  22  25
ATOM     25  O   UNL     1       1.294   7.444  20.748  0.00  0.00    +0.000 OA
BRANCH  25  26
ATOM     26  C   UNL     1       2.240   7.382  19.667  0.00  0.00    +0.000 C 
BRANCH  26  27
ATOM     27  C   UNL     1       2.802   5.951  19.588  0.00  0.00    +0.000 C 
BRANCH  27  28
ATOM     28  N   UNL     1       3.801   5.681  18.521  0.00  0.00    +0.000 NA
ATOM     29  C   UNL     1       5.096   5.364  19.161  0.00  0.00    +0.000 C 
ATOM     30  C   UNL     1       6.175   5.036  18.138  0.00  0.00    +0.000 C 
ATOM     31  C   UNL     1       6.304   6.164  17.143  0.00  0.00    +0.000 C 
ATOM     32  F   UNL     1       7.194   5.822  16.176  0.00  0.00    +0.000 F 
ATOM     33  F   UNL     1       6.821   7.260  17.761  0.00  0.00    +0.000 F 
ATOM     34  C   UNL     1       4.982   6.524  16.511  0.00  0.00    +0.000 C 
ATOM     35  C   UNL     1       3.948   6.814  17.591  0.00  0.00    +0.000 C 
ENDBRANCH  27  28
ENDBRANCH  26  27
ENDBRANCH  25  26
ENDBRANCH  22  25
ENDBRANCH  10  19
BRANCH   5  36
ATOM     36  O   UNL     1      -6.249  15.421  24.346  0.00  0.00    +0.000 OA
ATOM     37  H   UNL     1      -6.792  14.869  24.947  0.00  0.00    +0.000 HD
ENDBRANCH   5  36
TORSDOF 8
ENDMDL
MODEL 9
REMARK VINA RESULT:      -7.5      3.057      5.384
REMARK  Name = 
REMARK  8 active torsions:
REMARK  status: ('A' for Active; 'I' for Inactive)
REMARK    1  A    between atoms: O_1  and  C_2
REMARK    2  A    between atoms: C_5  and  C_6
REMARK    3  A    between atoms: C_10  and  O_11
REMARK    4  A    between atoms: C_16  and  C_17
REMARK    5  A    between atoms: C_20  and  O_21
REMARK    6  A    between atoms: O_21  and  C_22
REMARK    7  A    between atoms: C_22  and  C_23
REMARK    8  A    between atoms: C_23  and  N_24
REMARK                            x       y       z     vdW  Elec       q    Type
REMARK                         _______ _______ _______ _____ _____    ______ ____
ROOT
ATOM      1  C   UNL     1      -0.592  13.939  21.936  0.00  0.00    +0.000 C 
ATOM      2  S   UNL     1      -1.793  15.337  21.912  0.00  0.00    +0.000 S 
ATOM      3  C   UNL     1      -3.228  14.532  22.565  0.00  0.00    +0.000 A 
ATOM      4  C   UNL     1      -4.189  15.314  23.215  0.00  0.00    +0.000 A 
ATOM      5  C   UNL     1      -5.360  14.721  23.695  0.00  0.00    +0.000 A 
ATOM      6  C   UNL     1      -5.585  13.361  23.527  0.00  0.00    +0.000 A 
ATOM      7  C   UNL     1      -4.635  12.583  22.856  0.00  0.00    +0.000 A 
ATOM      8  C   UNL     1      -3.452  13.164  22.393  0.00  0.00    +0.000 A 
ATOM      9  O   UNL     1      -2.589  12.368  21.690  0.00  0.00    +0.000 OA
ATOM     10  C   UNL     1      -1.220  12.486  22.135  0.00  0.00    +0.000 C 
ENDROOT
BRANCH   1  14
ATOM     11  C   UNL     1       2.345  13.572  18.851  0.00  0.00    +0.000 A 
ATOM     12  C   UNL     1       2.732  13.534  20.184  0.00  0.00    +0.000 A 
ATOM     13  C   UNL     1       1.797  13.816  21.178  0.00  0.00    +0.000 A 
ATOM     14  C   UNL     1       0.459  14.093  20.841  0.00  0.00    +0.000 A 
ATOM     15  C   UNL     1       0.130  14.282  19.481  0.00  0.00    +0.000 A 
ATOM     16  C   UNL     1       1.076  14.016  18.487  0.00  0.00    +0.000 A 
BRANCH  11  17
ATOM     17  O   UNL     1       3.162  13.094  17.876  0.00  0.00    +0.000 OA
ATOM     18  H   UNL     1       2.936  13.560  17.055  0.00  0.00    +0.000 HD
ENDBRANCH  11  17
ENDBRANCH   1  14
BRANCH  10  19
ATOM     19  C   UNL     1      -0.528  11.248  21.533  0.00  0.00    +0.000 A 
ATOM     20  C   UNL     1       0.307  10.424  22.299  0.00  0.00    +0.000 A 
ATOM     21  C   UNL     1       1.002   9.332  21.773  0.00  0.00    +0.000 A 
ATOM     22  C   UNL     1       0.986   9.094  20.411  0.00  0.00    +0.000 A 
ATOM     23  C   UNL     1       0.204   9.927  19.602  0.00  0.00    +0.000 A 
ATOM     24  C   UNL     1      -0.566  10.973  20.156  0.00  0.00    +0.000 A 
BRANCH  22  25
ATOM     25  O   UNL     1       1.728   8.134  19.776  0.00  0.00    +0.000 OA
BRANCH  25  26
ATOM     26  C   UNL     1       2.039   8.389  18.396  0.00  0.00    +0.000 C 
BRANCH  26  27
ATOM     27  C   UNL     1       3.109   7.381  17.940  0.00  0.00    +0.000 C 
BRANCH  27  28
ATOM     28  N   UNL     1       3.081   6.039  18.578  0.00  0.00    +0.000 NA
ATOM     29  C   UNL     1       4.452   5.485  18.565  0.00  0.00    +0.000 C 
ATOM     30  C   UNL     1       4.525   4.120  19.235  0.00  0.00    +0.000 C 
ATOM     31  C   UNL     1       3.535   3.176  18.596  0.00  0.00    +0.000 C 
ATOM     32  F   UNL     1       3.531   1.995  19.264  0.00  0.00    +0.000 F 
ATOM     33  F   UNL     1       3.931   2.892  17.327  0.00  0.00    +0.000 F 
ATOM     34  C   UNL     1       2.138   3.746  18.567  0.00  0.00    +0.000 C 
ATOM     35  C   UNL     1       2.146   5.119  17.907  0.00  0.00    +0.000 C 
ENDBRANCH  27  28
ENDBRANCH  26  27
ENDBRANCH  25  26
ENDBRANCH  22  25
ENDBRANCH  10  19
BRANCH   5  36
ATOM     36  O   UNL     1      -6.297  15.459  24.346  0.00  0.00    +0.000 OA
ATOM     37  H   UNL     1      -7.114  14.927  24.448  0.00  0.00    +0.000 HD
ENDBRANCH   5  36
TORSDOF 8
ENDMDL
