MODEL 1
REMARK VINA RESULT:      -7.4      0.000      0.000
REMARK  Name = 
REMARK  8 active torsions:
REMARK  status: ('A' for Active; 'I' for Inactive)
REMARK    1  A    between atoms: C_1  and  C_2
REMARK    2  A    between atoms: C_2  and  C_3
REMARK    3  A    between atoms: C_3  and  N_4
REMARK    4  A    between atoms: C_5  and  C_7
REMARK    5  A    between atoms: C_9  and  O_10
REMARK    6  A    between atoms: O_10  and  C_11
REMARK    7  A    between atoms: C_11  and  C_12
REMARK    8  A    between atoms: C_12  and  C_13
REMARK                            x       y       z     vdW  Elec       q    Type
REMARK                         _______ _______ _______ _____ _____    ______ ____
ROOT
ATOM      1  C   UNL     1       3.327   5.688  19.260  0.00  0.00    +0.000 A 
ATOM      2  C   UNL     1       4.711   5.843  19.303  0.00  0.00    +0.000 A 
ATOM      3  C   UNL     1       5.496   4.717  19.223  0.00  0.00    +0.000 A 
ATOM      4  N   UNL     1       5.003   3.471  19.151  0.00  0.00    +0.000 NA
ATOM      5  C   UNL     1       3.666   3.314  19.118  0.00  0.00    +0.000 A 
ATOM      6  C   UNL     1       3.166   2.021  19.014  0.00  0.00    +0.000 A 
ATOM      7  C   UNL     1       1.797   1.750  18.945  0.00  0.00    +0.000 A 
ATOM      8  C   UNL     1       0.891   2.799  18.965  0.00  0.00    +0.000 A 
ATOM      9  C   UNL     1       1.364   4.106  19.057  0.00  0.00    +0.000 A 
ATOM     10  C   UNL     1       2.754   4.394  19.159  0.00  0.00    +0.000 A 
ENDROOT
BRANCH   1  12
ATOM     11  N   UNL     1       2.018   7.272  20.577  0.00  0.00    +0.000 N 
ATOM     12  C   UNL     1       2.489   6.923  19.322  0.00  0.00    +0.000 C 
ATOM     13  O   UNL     1       2.239   7.573  18.323  0.00  0.00    +0.000 OA
ATOM     14  H   UNL     1       2.272   6.740  21.395  0.00  0.00    +0.000 HD
BRANCH  11  15
ATOM     15  C   UNL     1       1.206   8.455  20.774  0.00  0.00    +0.000 C 
BRANCH  15  17
ATOM     16  C   UNL     1      -0.023   9.376  22.783  0.00  0.00    +0.000 C 
ATOM     17  C   UNL     1       1.331   9.024  22.184  0.00  0.00    +0.000 C 
ENDBRANCH  15  17
ENDBRANCH  11  15
ENDBRANCH   1  12
BRANCH   3  18
ATOM     18  O   UNL     1       6.859   4.931  19.260  0.00  0.00    +0.000 OA
BRANCH  18  19
ATOM     19  C   UNL     1       7.373   5.565  18.083  0.00  0.00    +0.000 C 
BRANCH  19  20
ATOM     20  C   UNL     1       8.035   6.875  18.516  0.00  0.00    +0.000 C 
ATOM     21  C   UNL     1       7.728   8.027  17.574  0.00  0.00    +0.000 C 
ENDBRANCH  19  20
ENDBRANCH  18  19
ENDBRANCH   3  18
TORSDOF 6
ENDMDL
MODEL 2
REMARK VINA RESULT:      -7.3      2.870      4.715
REMARK  Name = 
REMARK  8 active torsions:
REMARK  status: ('A' for Active; 'I' for Inactive)
REMARK    1  A    between atoms: C_1  and  C_2
REMARK    2  A    between atoms: C_2  and  C_3
REMARK    3  A    between atoms: C_3  and  N_4
REMARK    4  A    between atoms: C_5  and  C_7
REMARK    5  A    between atoms: C_9  and  O_10
REMARK    6  A    between atoms: O_10  and  C_11
REMARK    7  A    between atoms: C_11  and  C_12
REMARK    8  A    between atoms: C_12  and  C_13
REMARK                            x       y       z     vdW  Elec       q    Type
REMARK                         _______ _______ _______ _____ _____    ______ ____
ROOT
ATOM      1  C   UNL     1       5.861   5.000  18.213  0.00  0.00    +0.000 A 
ATOM      2  C   UNL     1       6.686   5.970  18.780  0.00  0.00    +0.000 A 
ATOM      3  C   UNL     1       7.557   6.647  17.958  0.00  0.00    +0.000 A 
ATOM      4  N   UNL     1       7.687   6.395  16.646  0.00  0.00    +0.000 NA
ATOM      5  C   UNL     1       6.899   5.454  16.095  0.00  0.00    +0.000 A 
ATOM      6  C   UNL     1       7.022   5.222  14.729  0.00  0.00    +0.000 A 
ATOM      7  C   UNL     1       6.232   4.288  14.054  0.00  0.00    +0.000 A 
ATOM      8  C   UNL     1       5.276   3.568  14.752  0.00  0.00    +0.000 A 
ATOM      9  C   UNL     1       5.123   3.788  16.120  0.00  0.00    +0.000 A 
ATOM     10  C   UNL     1       5.941   4.714  16.825  0.00  0.00    +0.000 A 
ENDROOT
BRANCH   1  12
ATOM     11  N   UNL     1       3.706   4.948  19.357  0.00  0.00    +0.000 N 
ATOM     12  C   UNL     1       4.903   4.293  19.115  0.00  0.00    +0.000 C 
ATOM     13  O   UNL     1       5.169   3.211  19.604  0.00  0.00    +0.000 OA
ATOM     14  H   UNL     1       3.492   5.825  18.909  0.00  0.00    +0.000 HD
BRANCH  11  15
ATOM     15  C   UNL     1       2.687   4.363  20.204  0.00  0.00    +0.000 C 
BRANCH  15  17
ATOM     16  C   UNL     1       1.499   4.055  17.993  0.00  0.00    +0.000 C 
ATOM     17  C   UNL     1       1.670   3.543  19.416  0.00  0.00    +0.000 C 
ENDBRANCH  15  17
ENDBRANCH  11  15
ENDBRANCH   1  12
BRANCH   3  18
ATOM     18  O   UNL     1       8.343   7.601  18.572  0.00  0.00    +0.000 OA
BRANCH  18  19
ATOM     19  C   UNL     1       8.209   8.908  18.001  0.00  0.00    +0.000 C 
BRANCH  19  20
ATOM     20  C   UNL     1       9.007   9.878  18.877  0.00  0.00    +0.000 C 
ATOM     21  C   UNL     1       9.468  11.110  18.118  0.00  0.00    +0.000 C 
ENDBRANCH  19  20
ENDBRANCH  18  19
ENDBRANCH   3  18
TORSDOF 6
ENDMDL
MODEL 3
REMARK VINA RESULT:      -7.1      3.663      7.202
REMARK  Name = 
REMARK  8 active torsions:
REMARK  status: ('A' for Active; 'I' for Inactive)
REMARK    1  A    between atoms: C_1  and  C_2
REMARK    2  A    between atoms: C_2  and  C_3
REMARK    3  A    between atoms: C_3  and  N_4
REMARK    4  A    between atoms: C_5  and  C_7
REMARK    5  A    between atoms: C_9  and  O_10
REMARK    6  A    between atoms: O_10  and  C_11
REMARK    7  A    between atoms: C_11  and  C_12
REMARK    8  A    between atoms: C_12  and  C_13
REMARK                            x       y       z     vdW  Elec       q    Type
REMARK                         _______ _______ _______ _____ _____    ______ ____
ROOT
ATOM      1  C   UNL     1       5.381   4.356  16.180  0.00  0.00    +0.000 A 
ATOM      2  C   UNL     1       4.320   3.498  16.466  0.00  0.00    +0.000 A 
ATOM      3  C   UNL     1       4.012   3.258  17.785  0.00  0.00    +0.000 A 
ATOM      4  N   UNL     1       4.706   3.769  18.814  0.00  0.00    +0.000 NA
ATOM      5  C   UNL     1       5.737   4.591  18.544  0.00  0.00    +0.000 A 
ATOM      6  C   UNL     1       6.430   5.139  19.619  0.00  0.00    +0.000 A 
ATOM      7  C   UNL     1       7.498   6.024  19.448  0.00  0.00    +0.000 A 
ATOM      8  C   UNL     1       7.883   6.393  18.170  0.00  0.00    +0.000 A 
ATOM      9  C   UNL     1       7.199   5.869  17.074  0.00  0.00    +0.000 A 
ATOM     10  C   UNL     1       6.130   4.943  17.232  0.00  0.00    +0.000 A 
ENDROOT
BRANCH   1  12
ATOM     11  N   UNL     1       6.125   3.540  14.004  0.00  0.00    +0.000 N 
ATOM     12  C   UNL     1       5.685   4.626  14.743  0.00  0.00    +0.000 C 
ATOM     13  O   UNL     1       5.554   5.737  14.263  0.00  0.00    +0.000 OA
ATOM     14  H   UNL     1       6.187   2.622  14.414  0.00  0.00    +0.000 HD
BRANCH  11  15
ATOM     15  C   UNL     1       6.441   3.667  12.597  0.00  0.00    +0.000 C 
BRANCH  15  17
ATOM     16  C   UNL     1       4.247   3.239  11.412  0.00  0.00    +0.000 C 
ATOM     17  C   UNL     1       5.637   2.704  11.726  0.00  0.00    +0.000 C 
ENDBRANCH  15  17
ENDBRANCH  11  15
ENDBRANCH   1  12
BRANCH   3  18
ATOM     18  O   UNL     1       2.947   2.409  18.009  0.00  0.00    +0.000 OA
BRANCH  18  19
ATOM     19  C   UNL     1       2.559   2.325  19.385  0.00  0.00    +0.000 C 
BRANCH  19  20
ATOM     20  C   UNL     1       1.115   2.821  19.488  0.00  0.00    +0.000 C 
ATOM     21  C   UNL     1       0.977   4.047  20.376  0.00  0.00    +0.000 C 
ENDBRANCH  19  20
ENDBRANCH  18  19
ENDBRANCH   3  18
TORSDOF 6
ENDMDL
MODEL 4
REMARK VINA RESULT:      -7.1      0.832      1.053
REMARK  Name = 
REMARK  8 active torsions:
REMARK  status: ('A' for Active; 'I' for Inactive)
REMARK    1  A    between atoms: C_1  and  C_2
REMARK    2  A    between atoms: C_2  and  C_3
REMARK    3  A    between atoms: C_3  and  N_4
REMARK    4  A    between atoms: C_5  and  C_7
REMARK    5  A    between atoms: C_9  and  O_10
REMARK    6  A    between atoms: O_10  and  C_11
REMARK    7  A    between atoms: C_11  and  C_12
REMARK    8  A    between atoms: C_12  and  C_13
REMARK                            x       y       z     vdW  Elec       q    Type
REMARK                         _______ _______ _______ _____ _____    ______ ____
ROOT
ATOM      1  C   UNL     1       3.334   5.783  19.289  0.00  0.00    +0.000 A 
ATOM      2  C   UNL     1       4.715   5.963  19.234  0.00  0.00    +0.000 A 
ATOM      3  C   UNL     1       5.513   4.848  19.118  0.00  0.00    +0.000 A 
ATOM      4  N   UNL     1       5.038   3.593  19.098  0.00  0.00    +0.000 NA
ATOM      5  C   UNL     1       3.706   3.413  19.160  0.00  0.00    +0.000 A 
ATOM      6  C   UNL     1       3.223   2.110  19.109  0.00  0.00    +0.000 A 
ATOM      7  C   UNL     1       1.858   1.815  19.138  0.00  0.00    +0.000 A 
ATOM      8  C   UNL     1       0.937   2.848  19.204  0.00  0.00    +0.000 A 
ATOM      9  C   UNL     1       1.391   4.165  19.244  0.00  0.00    +0.000 A 
ATOM     10  C   UNL     1       2.779   4.478  19.246  0.00  0.00    +0.000 A 
ENDROOT
BRANCH   1  12
ATOM     11  N   UNL     1       1.997   7.302  20.654  0.00  0.00    +0.000 N 
ATOM     12  C   UNL     1       2.480   7.005  19.389  0.00  0.00    +0.000 C 
ATOM     13  O   UNL     1       2.228   7.687  18.413  0.00  0.00    +0.000 OA
ATOM     14  H   UNL     1       2.252   6.744  21.453  0.00  0.00    +0.000 HD
BRANCH  11  15
ATOM     15  C   UNL     1       1.168   8.466  20.887  0.00  0.00    +0.000 C 
BRANCH  15  17
ATOM     16  C   UNL     1       0.073   9.396  22.968  0.00  0.00    +0.000 C 
ATOM     17  C   UNL     1       1.386   9.073  22.271  0.00  0.00    +0.000 C 
ENDBRANCH  15  17
ENDBRANCH  11  15
ENDBRANCH   1  12
BRANCH   3  18
ATOM     18  O   UNL     1       6.872   5.086  19.058  0.00  0.00    +0.000 OA
BRANCH  18  19
ATOM     19  C   UNL     1       7.478   4.649  17.836  0.00  0.00    +0.000 C 
BRANCH  19  20
ATOM     20  C   UNL     1       7.068   5.636  16.739  0.00  0.00    +0.000 C 
ATOM     21  C   UNL     1       6.651   4.942  15.453  0.00  0.00    +0.000 C 
ENDBRANCH  19  20
ENDBRANCH  18  19
ENDBRANCH   3  18
TORSDOF 6
ENDMDL
MODEL 5
REMARK VINA RESULT:      -7.0      3.698      5.586
REMARK  Name = 
REMARK  8 active torsions:
REMARK  status: ('A' for Active; 'I' for Inactive)
REMARK    1  A    between atoms: C_1  and  C_2
REMARK    2  A    between atoms: C_2  and  C_3
REMARK    3  A    between atoms: C_3  and  N_4
REMARK    4  A    between atoms: C_5  and  C_7
REMARK    5  A    between atoms: C_9  and  O_10
REMARK    6  A    between atoms: O_10  and  C_11
REMARK    7  A    between atoms: C_11  and  C_12
REMARK    8  A    between atoms: C_12  and  C_13
REMARK                            x       y       z     vdW  Elec       q    Type
REMARK                         _______ _______ _______ _____ _____    ______ ____
ROOT
ATOM      1  C   UNL     1       4.561   3.898  17.054  0.00  0.00    +0.000 A 
ATOM      2  C   UNL     1       4.458   3.809  15.667  0.00  0.00    +0.000 A 
ATOM      3  C   UNL     1       5.381   4.482  14.901  0.00  0.00    +0.000 A 
ATOM      4  N   UNL     1       6.350   5.256  15.414  0.00  0.00    +0.000 NA
ATOM      5  C   UNL     1       6.448   5.353  16.753  0.00  0.00    +0.000 A 
ATOM      6  C   UNL     1       7.474   6.134  17.274  0.00  0.00    +0.000 A 
ATOM      7  C   UNL     1       7.681   6.279  18.648  0.00  0.00    +0.000 A 
ATOM      8  C   UNL     1       6.853   5.614  19.538  0.00  0.00    +0.000 A 
ATOM      9  C   UNL     1       5.824   4.815  19.045  0.00  0.00    +0.000 A 
ATOM     10  C   UNL     1       5.583   4.683  17.648  0.00  0.00    +0.000 A 
ENDROOT
BRANCH   1  12
ATOM     11  N   UNL     1       2.384   3.806  18.155  0.00  0.00    +0.000 N 
ATOM     12  C   UNL     1       3.566   3.140  17.872  0.00  0.00    +0.000 C 
ATOM     13  O   UNL     1       3.793   2.010  18.264  0.00  0.00    +0.000 OA
ATOM     14  H   UNL     1       2.204   4.726  17.786  0.00  0.00    +0.000 HD
BRANCH  11  15
ATOM     15  C   UNL     1       1.334   3.177  18.928  0.00  0.00    +0.000 C 
BRANCH  15  17
ATOM     16  C   UNL     1       2.174   4.079  21.136  0.00  0.00    +0.000 C 
ATOM     17  C   UNL     1       0.987   3.961  20.191  0.00  0.00    +0.000 C 
ENDBRANCH  15  17
ENDBRANCH  11  15
ENDBRANCH   1  12
BRANCH   3  18
ATOM     18  O   UNL     1       5.237   4.350  13.534  0.00  0.00    +0.000 OA
BRANCH  18  19
ATOM     19  C   UNL     1       6.290   3.601  12.916  0.00  0.00    +0.000 C 
BRANCH  19  20
ATOM     20  C   UNL     1       5.661   2.751  11.809  0.00  0.00    +0.000 C 
ATOM     21  C   UNL     1       4.288   3.251  11.394  0.00  0.00    +0.000 C 
ENDBRANCH  19  20
ENDBRANCH  18  19
ENDBRANCH   3  18
TORSDOF 6
ENDMDL
MODEL 6
REMARK VINA RESULT:      -7.0      1.173      1.176
REMARK  Name = 
REMARK  8 active torsions:
REMARK  status: ('A' for Active; 'I' for Inactive)
REMARK    1  A    between atoms: C_1  and  C_2
REMARK    2  A    between atoms: C_2  and  C_3
REMARK    3  A    between atoms: C_3  and  N_4
REMARK    4  A    between atoms: C_5  and  C_7
REMARK    5  A    between atoms: C_9  and  O_10
REMARK    6  A    between atoms: O_10  and  C_11
REMARK    7  A    between atoms: C_11  and  C_12
REMARK    8  A    between atoms: C_12  and  C_13
REMARK                            x       y       z     vdW  Elec       q    Type
REMARK                         _______ _______ _______ _____ _____    ______ ____
ROOT
ATOM      1  C   UNL     1       3.093   6.147  19.121  0.00  0.00    +0.000 A 
ATOM      2  C   UNL     1       4.204   6.226  18.283  0.00  0.00    +0.000 A 
ATOM      3  C   UNL     1       4.968   5.096  18.104  0.00  0.00    +0.000 A 
ATOM      4  N   UNL     1       4.728   3.932  18.727  0.00  0.00    +0.000 NA
ATOM      5  C   UNL     1       3.661   3.852  19.544  0.00  0.00    +0.000 A 
ATOM      6  C   UNL     1       3.405   2.632  20.160  0.00  0.00    +0.000 A 
ATOM      7  C   UNL     1       2.309   2.435  21.005  0.00  0.00    +0.000 A 
ATOM      8  C   UNL     1       1.426   3.478  21.234  0.00  0.00    +0.000 A 
ATOM      9  C   UNL     1       1.651   4.708  20.620  0.00  0.00    +0.000 A 
ATOM     10  C   UNL     1       2.780   4.932  19.783  0.00  0.00    +0.000 A 
ENDROOT
BRANCH   1  12
ATOM     11  N   UNL     1       1.920   7.708  20.585  0.00  0.00    +0.000 N 
ATOM     12  C   UNL     1       2.259   7.376  19.283  0.00  0.00    +0.000 C 
ATOM     13  O   UNL     1       1.903   8.035  18.323  0.00  0.00    +0.000 OA
ATOM     14  H   UNL     1       2.260   7.169  21.365  0.00  0.00    +0.000 HD
BRANCH  11  15
ATOM     15  C   UNL     1       1.126   8.883  20.878  0.00  0.00    +0.000 C 
BRANCH  15  17
ATOM     16  C   UNL     1      -0.346   9.444  22.857  0.00  0.00    +0.000 C 
ATOM     17  C   UNL     1       1.075   9.198  22.371  0.00  0.00    +0.000 C 
ENDBRANCH  15  17
ENDBRANCH  11  15
ENDBRANCH   1  12
BRANCH   3  18
ATOM     18  O   UNL     1       6.050   5.230  17.258  0.00  0.00    +0.000 OA
BRANCH  18  19
ATOM     19  C   UNL     1       7.310   4.979  17.892  0.00  0.00    +0.000 C 
BRANCH  19  20
ATOM     20  C   UNL     1       7.737   6.269  18.596  0.00  0.00    +0.000 C 
ATOM     21  C   UNL     1       7.712   7.476  17.673  0.00  0.00    +0.000 C 
ENDBRANCH  19  20
ENDBRANCH  18  19
ENDBRANCH   3  18
TORSDOF 6
ENDMDL
MODEL 7
REMARK VINA RESULT:      -6.9      2.405      4.779
REMARK  Name = 
REMARK  8 active torsions:
REMARK  status: ('A' for Active; 'I' for Inactive)
REMARK    1  A    between atoms: C_1  and  C_2
REMARK    2  A    between atoms: C_2  and  C_3
REMARK    3  A    between atoms: C_3  and  N_4
REMARK    4  A    between atoms: C_5  and  C_7
REMARK    5  A    between atoms: C_9  and  O_10
REMARK    6  A    between atoms: O_10  and  C_11
REMARK    7  A    between atoms: C_11  and  C_12
REMARK    8  A    between atoms: C_12  and  C_13
REMARK                            x       y       z     vdW  Elec       q    Type
REMARK                         _______ _______ _______ _____ _____    ______ ____
ROOT
ATOM      1  C   UNL     1       2.839   6.103  18.089  0.00  0.00    +0.000 A 
ATOM      2  C   UNL     1       1.928   5.058  18.236  0.00  0.00    +0.000 A 
ATOM      3  C   UNL     1       2.291   3.809  17.789  0.00  0.00    +0.000 A 
ATOM      4  N   UNL     1       3.457   3.549  17.178  0.00  0.00    +0.000 NA
ATOM      5  C   UNL     1       4.337   4.556  17.026  0.00  0.00    +0.000 A 
ATOM      6  C   UNL     1       5.555   4.269  16.418  0.00  0.00    +0.000 A 
ATOM      7  C   UNL     1       6.547   5.235  16.236  0.00  0.00    +0.000 A 
ATOM      8  C   UNL     1       6.334   6.528  16.686  0.00  0.00    +0.000 A 
ATOM      9  C   UNL     1       5.128   6.842  17.309  0.00  0.00    +0.000 A 
ATOM     10  C   UNL     1       4.096   5.876  17.473  0.00  0.00    +0.000 A 
ENDROOT
BRANCH   1  12
ATOM     11  N   UNL     1       2.171   8.408  17.641  0.00  0.00    +0.000 N 
ATOM     12  C   UNL     1       2.439   7.447  18.604  0.00  0.00    +0.000 C 
ATOM     13  O   UNL     1       2.360   7.674  19.797  0.00  0.00    +0.000 OA
ATOM     14  H   UNL     1       2.205   8.184  16.660  0.00  0.00    +0.000 HD
BRANCH  11  15
ATOM     15  C   UNL     1       1.762   9.747  18.009  0.00  0.00    +0.000 C 
BRANCH  15  17
ATOM     16  C   UNL     1      -0.192  10.198  19.551  0.00  0.00    +0.000 C 
ATOM     17  C   UNL     1       0.246   9.885  18.127  0.00  0.00    +0.000 C 
ENDBRANCH  15  17
ENDBRANCH  11  15
ENDBRANCH   1  12
BRANCH   3  18
ATOM     18  O   UNL     1       1.354   2.811  17.968  0.00  0.00    +0.000 OA
BRANCH  18  19
ATOM     19  C   UNL     1       1.594   2.000  19.124  0.00  0.00    +0.000 C 
BRANCH  19  20
ATOM     20  C   UNL     1       1.044   2.752  20.338  0.00  0.00    +0.000 C 
ATOM     21  C   UNL     1       2.033   2.811  21.490  0.00  0.00    +0.000 C 
ENDBRANCH  19  20
ENDBRANCH  18  19
ENDBRANCH   3  18
TORSDOF 6
ENDMDL
MODEL 8
REMARK VINA RESULT:      -6.9      3.420      5.592
REMARK  Name = 
REMARK  8 active torsions:
REMARK  status: ('A' for Active; 'I' for Inactive)
REMARK    1  A    between atoms: C_1  and  C_2
REMARK    2  A    between atoms: C_2  and  C_3
REMARK    3  A    between atoms: C_3  and  N_4
REMARK    4  A    between atoms: C_5  and  C_7
REMARK    5  A    between atoms: C_9  and  O_10
REMARK    6  A    between atoms: O_10  and  C_11
REMARK    7  A    between atoms: C_11  and  C_12
REMARK    8  A    between atoms: C_12  and  C_13
REMARK                            x       y       z     vdW  Elec       q    Type
REMARK                         _______ _______ _______ _____ _____    ______ ____
ROOT
ATOM      1  C   UNL     1       6.481   5.250  17.605  0.00  0.00    +0.000 A 
ATOM      2  C   UNL     1       6.899   4.740  16.377  0.00  0.00    +0.000 A 
ATOM      3  C   UNL     1       5.987   4.045  15.616  0.00  0.00    +0.000 A 
ATOM      4  N   UNL     1       4.729   3.793  16.010  0.00  0.00    +0.000 NA
ATOM      5  C   UNL     1       4.323   4.275  17.199  0.00  0.00    +0.000 A 
ATOM      6  C   UNL     1       3.009   4.033  17.583  0.00  0.00    +0.000 A 
ATOM      7  C   UNL     1       2.480   4.513  18.784  0.00  0.00    +0.000 A 
ATOM      8  C   UNL     1       3.275   5.273  19.627  0.00  0.00    +0.000 A 
ATOM      9  C   UNL     1       4.592   5.542  19.262  0.00  0.00    +0.000 A 
ATOM     10  C   UNL     1       5.153   5.034  18.056  0.00  0.00    +0.000 A 
ENDROOT
BRANCH   1  12
ATOM     11  N   UNL     1       7.691   7.332  18.001  0.00  0.00    +0.000 N 
ATOM     12  C   UNL     1       7.475   6.025  18.407  0.00  0.00    +0.000 C 
ATOM     13  O   UNL     1       8.055   5.527  19.354  0.00  0.00    +0.000 OA
ATOM     14  H   UNL     1       7.170   7.733  17.238  0.00  0.00    +0.000 HD
BRANCH  11  15
ATOM     15  C   UNL     1       8.621   8.192  18.702  0.00  0.00    +0.000 C 
BRANCH  15  17
ATOM     16  C   UNL     1       9.490  10.547  19.013  0.00  0.00    +0.000 C 
ATOM     17  C   UNL     1       8.510   9.652  18.268  0.00  0.00    +0.000 C 
ENDBRANCH  15  17
ENDBRANCH  11  15
ENDBRANCH   1  12
BRANCH   3  18
ATOM     18  O   UNL     1       6.453   3.571  14.406  0.00  0.00    +0.000 OA
BRANCH  18  19
ATOM     19  C   UNL     1       5.814   4.167  13.271  0.00  0.00    +0.000 C 
BRANCH  19  20
ATOM     20  C   UNL     1       5.721   3.099  12.179  0.00  0.00    +0.000 C 
ATOM     21  C   UNL     1       4.405   3.147  11.422  0.00  0.00    +0.000 C 
ENDBRANCH  19  20
ENDBRANCH  18  19
ENDBRANCH   3  18
TORSDOF 6
ENDMDL
MODEL 9
REMARK VINA RESULT:      -6.9      1.957      4.565
REMARK  Name = 
REMARK  8 active torsions:
REMARK  status: ('A' for Active; 'I' for Inactive)
REMARK    1  A    between atoms: C_1  and  C_2
REMARK    2  A    between atoms: C_2  and  C_3
REMARK    3  A    between atoms: C_3  and  N_4
REMARK    4  A    between atoms: C_5  and  C_7
REMARK    5  A    between atoms: C_9  and  O_10
REMARK    6  A    between atoms: O_10  and  C_11
REMARK    7  A    between atoms: C_11  and  C_12
REMARK    8  A    between atoms: C_12  and  C_13
REMARK                            x       y       z     vdW  Elec       q    Type
REMARK                         _______ _______ _______ _____ _____    ______ ____
ROOT
ATOM      1  C   UNL     1       3.094   6.030  17.884  0.00  0.00    +0.000 A 
ATOM      2  C   UNL     1       2.229   4.937  17.911  0.00  0.00    +0.000 A 
ATOM      3  C   UNL     1       2.724   3.704  17.554  0.00  0.00    +0.000 A 
ATOM      4  N   UNL     1       3.984   3.502  17.138  0.00  0.00    +0.000 NA
ATOM      5  C   UNL     1       4.822   4.556  17.101  0.00  0.00    +0.000 A 
ATOM      6  C   UNL     1       6.133   4.329  16.696  0.00  0.00    +0.000 A 
ATOM      7  C   UNL     1       7.088   5.348  16.649  0.00  0.00    +0.000 A 
ATOM      8  C   UNL     1       6.738   6.633  17.031  0.00  0.00    +0.000 A 
ATOM      9  C   UNL     1       5.434   6.887  17.452  0.00  0.00    +0.000 A 
ATOM     10  C   UNL     1       4.443   5.865  17.476  0.00  0.00    +0.000 A 
ENDROOT
BRANCH   1  12
ATOM     11  N   UNL     1       2.111   7.445  19.612  0.00  0.00    +0.000 N 
ATOM     12  C   UNL     1       2.547   7.356  18.300  0.00  0.00    +0.000 C 
ATOM     13  O   UNL     1       2.489   8.293  17.524  0.00  0.00    +0.000 OA
ATOM     14  H   UNL     1       2.206   6.667  20.246  0.00  0.00    +0.000 HD
BRANCH  11  15
ATOM     15  C   UNL     1       1.571   8.679  20.142  0.00  0.00    +0.000 C 
BRANCH  15  17
ATOM     16  C   UNL     1      -0.339   8.681  21.800  0.00  0.00    +0.000 C 
ATOM     17  C   UNL     1       1.166   8.559  21.610  0.00  0.00    +0.000 C 
ENDBRANCH  15  17
ENDBRANCH  11  15
ENDBRANCH   1  12
BRANCH   3  18
ATOM     18  O   UNL     1       1.826   2.658  17.609  0.00  0.00    +0.000 OA
BRANCH  18  19
ATOM     19  C   UNL     1       0.916   2.739  18.713  0.00  0.00    +0.000 C 
BRANCH  19  20
ATOM     20  C   UNL     1       1.656   2.242  19.957  0.00  0.00    +0.000 C 
ATOM     21  C   UNL     1       1.477   3.164  21.152  0.00  0.00    +0.000 C 
ENDBRANCH  19  20
ENDBRANCH  18  19
ENDBRANCH   3  18
TORSDOF 6
ENDMDL
