MODEL 1
REMARK VINA RESULT:      -8.3      0.000      0.000
REMARK  Name = 
REMARK  7 active torsions:
REMARK  status: ('A' for Active; 'I' for Inactive)
REMARK    1  A    between atoms: N_1  and  S_2
REMARK    2  A    between atoms: S_2  and  C_5
REMARK    3  A    between atoms: C_8  and  C_9
REMARK    4  A    between atoms: C_9  and  N_10
REMARK    5  A    between atoms: C_11  and  C_13
REMARK    6  A    between atoms: C_18  and  C_19
REMARK    7  A    between atoms: C_19  and  C_20
REMARK                            x       y       z     vdW  Elec       q    Type
REMARK                         _______ _______ _______ _____ _____    ______ ____
ROOT
ATOM      1  N   UNL     1       1.912   6.576  20.128  0.00  0.00    +0.000 N 
ATOM      2  C   UNL     1       2.216   5.269  20.479  0.00  0.00    +0.000 C 
ATOM      3  O   UNL     1       2.329   4.906  21.642  0.00  0.00    +0.000 OA
ATOM      4  H   UNL     1       1.977   6.859  19.162  0.00  0.00    +0.000 HD
ENDROOT
BRANCH   2   5
ATOM      5  C   UNL     1       2.371   4.313  19.328  0.00  0.00    +0.000 A 
ATOM      6  C   UNL     1       1.945   2.985  19.546  0.00  0.00    +0.000 A 
ATOM      7  C   UNL     1       2.037   2.015  18.550  0.00  0.00    +0.000 A 
ATOM      8  C   UNL     1       2.560   2.356  17.310  0.00  0.00    +0.000 A 
ATOM      9  C   UNL     1       3.024   3.651  17.087  0.00  0.00    +0.000 A 
ATOM     10  C   UNL     1       2.969   4.648  18.091  0.00  0.00    +0.000 A 
BRANCH  10  11
ATOM     11  C   UNL     1       3.647   5.967  17.772  0.00  0.00    +0.000 C 
BRANCH  11  12
ATOM     12  C   UNL     1       5.144   6.045  17.981  0.00  0.00    +0.000 A 
ATOM     13  C   UNL     1       5.921   6.877  17.164  0.00  0.00    +0.000 A 
ATOM     14  C   UNL     1       7.277   7.075  17.432  0.00  0.00    +0.000 A 
ATOM     15  C   UNL     1       7.876   6.442  18.517  0.00  0.00    +0.000 A 
ATOM     16  C   UNL     1       7.122   5.594  19.328  0.00  0.00    +0.000 A 
ATOM     17  C   UNL     1       5.764   5.395  19.061  0.00  0.00    +0.000 A 
ENDBRANCH  11  12
ENDBRANCH  10  11
ENDBRANCH   2   5
BRANCH   1  18
ATOM     18  C   UNL     1       1.656   7.620  21.097  0.00  0.00    +0.000 C 
BRANCH  18  22
ATOM     19  C   UNL     1      -0.270  11.023  19.244  0.00  0.00    +0.000 A 
ATOM     20  C   UNL     1       0.693  10.304  18.536  0.00  0.00    +0.000 A 
ATOM     21  C   UNL     1       1.333   9.214  19.146  0.00  0.00    +0.000 A 
ATOM     22  C   UNL     1       1.024   8.847  20.467  0.00  0.00    +0.000 A 
ATOM     23  C   UNL     1       0.072   9.601  21.171  0.00  0.00    +0.000 A 
ATOM     24  C   UNL     1      -0.572  10.685  20.568  0.00  0.00    +0.000 A 
BRANCH  19  25
ATOM     25  S   UNL     1      -1.085  12.409  18.504  0.00  0.00    +0.000 S 
ATOM     26  O   UNL     1      -0.098  13.388  18.110  0.00  0.00    +0.000 OA
ATOM     27  O   UNL     1      -2.244  12.757  19.295  0.00  0.00    +0.000 OA
BRANCH  25  28
ATOM     28  N   UNL     1      -1.689  11.755  17.079  0.00  0.00    +0.000 NA
ATOM     29  H   UNL     1      -2.653  11.453  17.225  0.00  0.00    +0.000 HD
ATOM     30  H   UNL     1      -1.075  11.015  16.744  0.00  0.00    +0.000 HD
ENDBRANCH  25  28
ENDBRANCH  19  25
ENDBRANCH  18  22
ENDBRANCH   1  18
TORSDOF 7
ENDMDL
MODEL 2
REMARK VINA RESULT:      -8.2      1.684      2.339
REMARK  Name = 
REMARK  7 active torsions:
REMARK  status: ('A' for Active; 'I' for Inactive)
REMARK    1  A    between atoms: N_1  and  S_2
REMARK    2  A    between atoms: S_2  and  C_5
REMARK    3  A    between atoms: C_8  and  C_9
REMARK    4  A    between atoms: C_9  and  N_10
REMARK    5  A    between atoms: C_11  and  C_13
REMARK    6  A    between atoms: C_18  and  C_19
REMARK    7  A    between atoms: C_19  and  C_20
REMARK                            x       y       z     vdW  Elec       q    Type
REMARK                         _______ _______ _______ _____ _____    ______ ____
ROOT
ATOM      1  N   UNL     1       1.912   6.598  20.541  0.00  0.00    +0.000 N 
ATOM      2  C   UNL     1       2.635   6.034  19.502  0.00  0.00    +0.000 C 
ATOM      3  O   UNL     1       3.394   6.682  18.794  0.00  0.00    +0.000 OA
ATOM      4  H   UNL     1       1.191   6.058  20.996  0.00  0.00    +0.000 HD
ENDROOT
BRANCH   2   5
ATOM      5  C   UNL     1       2.447   4.552  19.316  0.00  0.00    +0.000 A 
ATOM      6  C   UNL     1       1.144   4.049  19.520  0.00  0.00    +0.000 A 
ATOM      7  C   UNL     1       0.852   2.695  19.371  0.00  0.00    +0.000 A 
ATOM      8  C   UNL     1       1.863   1.812  19.015  0.00  0.00    +0.000 A 
ATOM      9  C   UNL     1       3.164   2.282  18.850  0.00  0.00    +0.000 A 
ATOM     10  C   UNL     1       3.495   3.648  19.023  0.00  0.00    +0.000 A 
BRANCH  10  11
ATOM     11  C   UNL     1       4.968   4.001  18.966  0.00  0.00    +0.000 C 
BRANCH  11  12
ATOM     12  C   UNL     1       5.546   4.346  17.610  0.00  0.00    +0.000 A 
ATOM     13  C   UNL     1       6.905   4.666  17.491  0.00  0.00    +0.000 A 
ATOM     14  C   UNL     1       7.489   4.844  16.235  0.00  0.00    +0.000 A 
ATOM     15  C   UNL     1       6.721   4.707  15.081  0.00  0.00    +0.000 A 
ATOM     16  C   UNL     1       5.364   4.409  15.183  0.00  0.00    +0.000 A 
ATOM     17  C   UNL     1       4.778   4.230  16.440  0.00  0.00    +0.000 A 
ENDBRANCH  11  12
ENDBRANCH  10  11
ENDBRANCH   2   5
BRANCH   1  18
ATOM     18  C   UNL     1       2.017   7.992  20.917  0.00  0.00    +0.000 C 
BRANCH  18  22
ATOM     19  C   UNL     1      -0.761  10.606  18.874  0.00  0.00    +0.000 A 
ATOM     20  C   UNL     1      -0.980  10.275  20.212  0.00  0.00    +0.000 A 
ATOM     21  C   UNL     1      -0.090   9.409  20.867  0.00  0.00    +0.000 A 
ATOM     22  C   UNL     1       1.011   8.862  20.188  0.00  0.00    +0.000 A 
ATOM     23  C   UNL     1       1.198   9.186  18.834  0.00  0.00    +0.000 A 
ATOM     24  C   UNL     1       0.317  10.051  18.176  0.00  0.00    +0.000 A 
BRANCH  19  25
ATOM     25  S   UNL     1      -1.872  11.686  18.019  0.00  0.00    +0.000 S 
ATOM     26  O   UNL     1      -2.878  12.162  18.942  0.00  0.00    +0.000 OA
ATOM     27  O   UNL     1      -2.212  11.103  16.741  0.00  0.00    +0.000 OA
BRANCH  25  28
ATOM     28  N   UNL     1      -0.895  13.008  17.670  0.00  0.00    +0.000 NA
ATOM     29  H   UNL     1      -0.219  12.749  16.951  0.00  0.00    +0.000 HD
ATOM     30  H   UNL     1      -0.470  13.365  18.523  0.00  0.00    +0.000 HD
ENDBRANCH  25  28
ENDBRANCH  19  25
ENDBRANCH  18  22
ENDBRANCH   1  18
TORSDOF 7
ENDMDL
MODEL 3
REMARK VINA RESULT:      -8.2      1.651      3.799
REMARK  Name = 
REMARK  7 active torsions:
REMARK  status: ('A' for Active; 'I' for Inactive)
REMARK    1  A    between atoms: N_1  and  S_2
REMARK    2  A    between atoms: S_2  and  C_5
REMARK    3  A    between atoms: C_8  and  C_9
REMARK    4  A    between atoms: C_9  and  N_10
REMARK    5  A    between atoms: C_11  and  C_13
REMARK    6  A    between atoms: C_18  and  C_19
REMARK    7  A    between atoms: C_19  and  C_20
REMARK                            x       y       z     vdW  Elec       q    Type
REMARK                         _______ _______ _______ _____ _____    ______ ____
ROOT
ATOM      1  N   UNL     1       2.974   6.469  18.681  0.00  0.00    +0.000 N 
ATOM      2  C   UNL     1       4.221   5.866  18.727  0.00  0.00    +0.000 C 
ATOM      3  O   UNL     1       4.866   5.758  19.761  0.00  0.00    +0.000 OA
ATOM      4  H   UNL     1       2.550   6.667  17.787  0.00  0.00    +0.000 HD
ENDROOT
BRANCH   2   5
ATOM      5  C   UNL     1       4.723   5.323  17.417  0.00  0.00    +0.000 A 
ATOM      6  C   UNL     1       4.910   6.256  16.374  0.00  0.00    +0.000 A 
ATOM      7  C   UNL     1       5.375   5.868  15.120  0.00  0.00    +0.000 A 
ATOM      8  C   UNL     1       5.664   4.531  14.882  0.00  0.00    +0.000 A 
ATOM      9  C   UNL     1       5.447   3.587  15.884  0.00  0.00    +0.000 A 
ATOM     10  C   UNL     1       4.948   3.950  17.159  0.00  0.00    +0.000 A 
BRANCH  10  11
ATOM     11  C   UNL     1       4.612   2.813  18.103  0.00  0.00    +0.000 C 
BRANCH  11  12
ATOM     12  C   UNL     1       3.233   2.816  18.728  0.00  0.00    +0.000 A 
ATOM     13  C   UNL     1       3.098   2.794  20.123  0.00  0.00    +0.000 A 
ATOM     14  C   UNL     1       1.845   2.943  20.721  0.00  0.00    +0.000 A 
ATOM     15  C   UNL     1       0.709   3.113  19.933  0.00  0.00    +0.000 A 
ATOM     16  C   UNL     1       0.824   3.116  18.544  0.00  0.00    +0.000 A 
ATOM     17  C   UNL     1       2.078   2.967  17.943  0.00  0.00    +0.000 A 
ENDBRANCH  11  12
ENDBRANCH  10  11
ENDBRANCH   2   5
BRANCH   1  18
ATOM     18  C   UNL     1       2.296   6.985  19.851  0.00  0.00    +0.000 C 
BRANCH  18  22
ATOM     19  C   UNL     1       0.316  10.752  19.068  0.00  0.00    +0.000 A 
ATOM     20  C   UNL     1       1.094  10.160  18.072  0.00  0.00    +0.000 A 
ATOM     21  C   UNL     1       1.754   8.949  18.336  0.00  0.00    +0.000 A 
ATOM     22  C   UNL     1       1.651   8.333  19.594  0.00  0.00    +0.000 A 
ATOM     23  C   UNL     1       0.885   8.960  20.591  0.00  0.00    +0.000 A 
ATOM     24  C   UNL     1       0.222  10.164  20.334  0.00  0.00    +0.000 A 
BRANCH  19  25
ATOM     25  S   UNL     1      -0.517  12.284  18.769  0.00  0.00    +0.000 S 
ATOM     26  O   UNL     1       0.455  13.296  18.421  0.00  0.00    +0.000 OA
ATOM     27  O   UNL     1      -1.513  12.492  19.795  0.00  0.00    +0.000 OA
BRANCH  25  28
ATOM     28  N   UNL     1      -1.377  11.960  17.362  0.00  0.00    +0.000 NA
ATOM     29  H   UNL     1      -1.508  12.825  16.836  0.00  0.00    +0.000 HD
ATOM     30  H   UNL     1      -2.248  11.481  17.585  0.00  0.00    +0.000 HD
ENDBRANCH  25  28
ENDBRANCH  19  25
ENDBRANCH  18  22
ENDBRANCH   1  18
TORSDOF 7
ENDMDL
MODEL 4
REMARK VINA RESULT:      -8.2      0.407      1.016
REMARK  Name = 
REMARK  7 active torsions:
REMARK  status: ('A' for Active; 'I' for Inactive)
REMARK    1  A    between atoms: N_1  and  S_2
REMARK    2  A    between atoms: S_2  and  C_5
REMARK    3  A    between atoms: C_8  and  C_9
REMARK    4  A    between atoms: C_9  and  N_10
REMARK    5  A    between atoms: C_11  and  C_13
REMARK    6  A    between atoms: C_18  and  C_19
REMARK    7  A    between atoms: C_19  and  C_20
REMARK                            x       y       z     vdW  Elec       q    Type
REMARK                         _______ _______ _______ _____ _____    ______ ____
ROOT
ATOM      1  N   UNL     1       1.642   6.588  20.163  0.00  0.00    +0.000 N 
ATOM      2  C   UNL     1       2.110   5.322  20.480  0.00  0.00    +0.000 C 
ATOM      3  O   UNL     1       2.353   4.975  21.628  0.00  0.00    +0.000 OA
ATOM      4  H   UNL     1       1.600   6.875  19.197  0.00  0.00    +0.000 HD
ENDROOT
BRANCH   2   5
ATOM      5  C   UNL     1       2.274   4.386  19.314  0.00  0.00    +0.000 A 
ATOM      6  C   UNL     1       1.815   3.063  19.493  0.00  0.00    +0.000 A 
ATOM      7  C   UNL     1       1.911   2.113  18.480  0.00  0.00    +0.000 A 
ATOM      8  C   UNL     1       2.474   2.466  17.261  0.00  0.00    +0.000 A 
ATOM      9  C   UNL     1       2.972   3.755  17.077  0.00  0.00    +0.000 A 
ATOM     10  C   UNL     1       2.913   4.733  18.100  0.00  0.00    +0.000 A 
BRANCH  10  11
ATOM     11  C   UNL     1       3.626   6.043  17.826  0.00  0.00    +0.000 C 
BRANCH  11  12
ATOM     12  C   UNL     1       5.127   6.070  18.030  0.00  0.00    +0.000 A 
ATOM     13  C   UNL     1       5.925   6.898  17.230  0.00  0.00    +0.000 A 
ATOM     14  C   UNL     1       7.287   7.048  17.496  0.00  0.00    +0.000 A 
ATOM     15  C   UNL     1       7.871   6.369  18.563  0.00  0.00    +0.000 A 
ATOM     16  C   UNL     1       7.095   5.525  19.355  0.00  0.00    +0.000 A 
ATOM     17  C   UNL     1       5.730   5.374  19.090  0.00  0.00    +0.000 A 
ENDBRANCH  11  12
ENDBRANCH  10  11
ENDBRANCH   2   5
BRANCH   1  18
ATOM     18  C   UNL     1       1.353   7.601  21.157  0.00  0.00    +0.000 C 
BRANCH  18  22
ATOM     19  C   UNL     1       0.064  11.358  19.440  0.00  0.00    +0.000 A 
ATOM     20  C   UNL     1      -0.387  10.987  20.708  0.00  0.00    +0.000 A 
ATOM     21  C   UNL     1       0.014   9.757  21.253  0.00  0.00    +0.000 A 
ATOM     22  C   UNL     1       0.854   8.891  20.534  0.00  0.00    +0.000 A 
ATOM     23  C   UNL     1       1.274   9.272  19.249  0.00  0.00    +0.000 A 
ATOM     24  C   UNL     1       0.882  10.497  18.701  0.00  0.00    +0.000 A 
BRANCH  19  25
ATOM     25  S   UNL     1      -0.434  12.897  18.722  0.00  0.00    +0.000 S 
ATOM     26  O   UNL     1       0.729  13.579  18.201  0.00  0.00    +0.000 OA
ATOM     27  O   UNL     1      -1.382  13.546  19.600  0.00  0.00    +0.000 OA
BRANCH  25  28
ATOM     28  N   UNL     1      -1.323  12.401  17.384  0.00  0.00    +0.000 NA
ATOM     29  H   UNL     1      -0.687  12.061  16.661  0.00  0.00    +0.000 HD
ATOM     30  H   UNL     1      -1.935  13.151  17.071  0.00  0.00    +0.000 HD
ENDBRANCH  25  28
ENDBRANCH  19  25
ENDBRANCH  18  22
ENDBRANCH   1  18
TORSDOF 7
ENDMDL
MODEL 5
REMARK VINA RESULT:      -8.1      2.116      2.659
REMARK  Name = 
REMARK  7 active torsions:
REMARK  status: ('A' for Active; 'I' for Inactive)
REMARK    1  A    between atoms: N_1  and  S_2
REMARK    2  A    between atoms: S_2  and  C_5
REMARK    3  A    between atoms: C_8  and  C_9
REMARK    4  A    between atoms: C_9  and  N_10
REMARK    5  A    between atoms: C_11  and  C_13
REMARK    6  A    between atoms: C_18  and  C_19
REMARK    7  A    between atoms: C_19  and  C_20
REMARK                            x       y       z     vdW  Elec       q    Type
REMARK                         _______ _______ _______ _____ _____    ______ ____
ROOT
ATOM      1  N   UNL     1       2.705   6.648  18.781  0.00  0.00    +0.000 N 
ATOM      2  C   UNL     1       2.199   5.398  18.459  0.00  0.00    +0.000 C 
ATOM      3  O   UNL     1       1.377   5.225  17.569  0.00  0.00    +0.000 OA
ATOM      4  H   UNL     1       3.261   6.759  19.615  0.00  0.00    +0.000 HD
ENDROOT
BRANCH   2   5
ATOM      5  C   UNL     1       2.751   4.253  19.264  0.00  0.00    +0.000 A 
ATOM      6  C   UNL     1       2.207   4.064  20.553  0.00  0.00    +0.000 A 
ATOM      7  C   UNL     1       2.639   3.033  21.384  0.00  0.00    +0.000 A 
ATOM      8  C   UNL     1       3.630   2.166  20.942  0.00  0.00    +0.000 A 
ATOM      9  C   UNL     1       4.210   2.361  19.689  0.00  0.00    +0.000 A 
ATOM     10  C   UNL     1       3.810   3.418  18.835  0.00  0.00    +0.000 A 
BRANCH  10  11
ATOM     11  C   UNL     1       4.624   3.611  17.571  0.00  0.00    +0.000 C 
BRANCH  11  12
ATOM     12  C   UNL     1       5.651   4.724  17.572  0.00  0.00    +0.000 A 
ATOM     13  C   UNL     1       5.470   5.842  16.746  0.00  0.00    +0.000 A 
ATOM     14  C   UNL     1       6.324   6.942  16.838  0.00  0.00    +0.000 A 
ATOM     15  C   UNL     1       7.373   6.939  17.754  0.00  0.00    +0.000 A 
ATOM     16  C   UNL     1       7.579   5.827  18.568  0.00  0.00    +0.000 A 
ATOM     17  C   UNL     1       6.724   4.724  18.477  0.00  0.00    +0.000 A 
ENDBRANCH  11  12
ENDBRANCH  10  11
ENDBRANCH   2   5
BRANCH   1  18
ATOM     18  C   UNL     1       2.347   7.857  18.069  0.00  0.00    +0.000 C 
BRANCH  18  22
ATOM     19  C   UNL     1       0.358  10.730  20.621  0.00  0.00    +0.000 A 
ATOM     20  C   UNL     1       0.696   9.475  21.127  0.00  0.00    +0.000 A 
ATOM     21  C   UNL     1       1.321   8.536  20.291  0.00  0.00    +0.000 A 
ATOM     22  C   UNL     1       1.599   8.841  18.948  0.00  0.00    +0.000 A 
ATOM     23  C   UNL     1       1.226  10.101  18.452  0.00  0.00    +0.000 A 
ATOM     24  C   UNL     1       0.606  11.042  19.280  0.00  0.00    +0.000 A 
BRANCH  19  25
ATOM     25  S   UNL     1      -0.441  11.930  21.647  0.00  0.00    +0.000 S 
ATOM     26  O   UNL     1      -1.806  12.104  21.204  0.00  0.00    +0.000 OA
ATOM     27  O   UNL     1       0.451  13.048  21.855  0.00  0.00    +0.000 OA
BRANCH  25  28
ATOM     28  N   UNL     1      -0.529  11.139  23.128  0.00  0.00    +0.000 NA
ATOM     29  H   UNL     1      -0.350  11.805  23.880  0.00  0.00    +0.000 HD
ATOM     30  H   UNL     1       0.097  10.336  23.134  0.00  0.00    +0.000 HD
ENDBRANCH  25  28
ENDBRANCH  19  25
ENDBRANCH  18  22
ENDBRANCH   1  18
TORSDOF 7
ENDMDL
MODEL 6
REMARK VINA RESULT:      -8.1      2.127      2.533
REMARK  Name = 
REMARK  7 active torsions:
REMARK  status: ('A' for Active; 'I' for Inactive)
REMARK    1  A    between atoms: N_1  and  S_2
REMARK    2  A    between atoms: S_2  and  C_5
REMARK    3  A    between atoms: C_8  and  C_9
REMARK    4  A    between atoms: C_9  and  N_10
REMARK    5  A    between atoms: C_11  and  C_13
REMARK    6  A    between atoms: C_18  and  C_19
REMARK    7  A    between atoms: C_19  and  C_20
REMARK                            x       y       z     vdW  Elec       q    Type
REMARK                         _______ _______ _______ _____ _____    ______ ____
ROOT
ATOM      1  N   UNL     1       2.723   6.674  18.753  0.00  0.00    +0.000 N 
ATOM      2  C   UNL     1       2.220   5.422  18.435  0.00  0.00    +0.000 C 
ATOM      3  O   UNL     1       1.352   5.252  17.590  0.00  0.00    +0.000 OA
ATOM      4  H   UNL     1       3.325   6.780  19.556  0.00  0.00    +0.000 HD
ENDROOT
BRANCH   2   5
ATOM      5  C   UNL     1       2.837   4.272  19.184  0.00  0.00    +0.000 A 
ATOM      6  C   UNL     1       2.279   3.963  20.443  0.00  0.00    +0.000 A 
ATOM      7  C   UNL     1       2.766   2.916  21.221  0.00  0.00    +0.000 A 
ATOM      8  C   UNL     1       3.828   2.153  20.754  0.00  0.00    +0.000 A 
ATOM      9  C   UNL     1       4.421   2.468  19.533  0.00  0.00    +0.000 A 
ATOM     10  C   UNL     1       3.965   3.545  18.735  0.00  0.00    +0.000 A 
BRANCH  10  11
ATOM     11  C   UNL     1       4.792   3.876  17.508  0.00  0.00    +0.000 C 
BRANCH  11  12
ATOM     12  C   UNL     1       5.864   4.934  17.660  0.00  0.00    +0.000 A 
ATOM     13  C   UNL     1       5.770   6.133  16.940  0.00  0.00    +0.000 A 
ATOM     14  C   UNL     1       6.666   7.177  17.175  0.00  0.00    +0.000 A 
ATOM     15  C   UNL     1       7.670   7.038  18.130  0.00  0.00    +0.000 A 
ATOM     16  C   UNL     1       7.789   5.845  18.840  0.00  0.00    +0.000 A 
ATOM     17  C   UNL     1       6.893   4.797  18.607  0.00  0.00    +0.000 A 
ENDBRANCH  11  12
ENDBRANCH  10  11
ENDBRANCH   2   5
BRANCH   1  18
ATOM     18  C   UNL     1       2.305   7.891  18.088  0.00  0.00    +0.000 C 
BRANCH  18  22
ATOM     19  C   UNL     1       0.238  10.593  20.762  0.00  0.00    +0.000 A 
ATOM     20  C   UNL     1       0.468  10.972  19.439  0.00  0.00    +0.000 A 
ATOM     21  C   UNL     1       1.159  10.104  18.579  0.00  0.00    +0.000 A 
ATOM     22  C   UNL     1       1.632   8.863  19.038  0.00  0.00    +0.000 A 
ATOM     23  C   UNL     1       1.413   8.513  20.380  0.00  0.00    +0.000 A 
ATOM     24  C   UNL     1       0.723   9.371  21.241  0.00  0.00    +0.000 A 
BRANCH  19  25
ATOM     25  S   UNL     1      -0.619  11.672  21.872  0.00  0.00    +0.000 S 
ATOM     26  O   UNL     1      -0.531  11.143  23.214  0.00  0.00    +0.000 OA
ATOM     27  O   UNL     1      -1.877  12.063  21.278  0.00  0.00    +0.000 OA
BRANCH  25  28
ATOM     28  N   UNL     1       0.341  13.051  21.850  0.00  0.00    +0.000 NA
ATOM     29  H   UNL     1      -0.156  13.803  21.371  0.00  0.00    +0.000 HD
ATOM     30  H   UNL     1       1.251  12.839  21.445  0.00  0.00    +0.000 HD
ENDBRANCH  25  28
ENDBRANCH  19  25
ENDBRANCH  18  22
ENDBRANCH   1  18
TORSDOF 7
ENDMDL
MODEL 7
REMARK VINA RESULT:      -8.1      1.820      4.015
REMARK  Name = 
REMARK  7 active torsions:
REMARK  status: ('A' for Active; 'I' for Inactive)
REMARK    1  A    between atoms: N_1  and  S_2
REMARK    2  A    between atoms: S_2  and  C_5
REMARK    3  A    between atoms: C_8  and  C_9
REMARK    4  A    between atoms: C_9  and  N_10
REMARK    5  A    between atoms: C_11  and  C_13
REMARK    6  A    between atoms: C_18  and  C_19
REMARK    7  A    between atoms: C_19  and  C_20
REMARK                            x       y       z     vdW  Elec       q    Type
REMARK                         _______ _______ _______ _____ _____    ______ ____
ROOT
ATOM      1  N   UNL     1       3.123   6.281  18.686  0.00  0.00    +0.000 N 
ATOM      2  C   UNL     1       4.388   5.715  18.671  0.00  0.00    +0.000 C 
ATOM      3  O   UNL     1       5.087   5.630  19.672  0.00  0.00    +0.000 OA
ATOM      4  H   UNL     1       2.650   6.464  17.814  0.00  0.00    +0.000 HD
ENDROOT
BRANCH   2   5
ATOM      5  C   UNL     1       4.840   5.182  17.339  0.00  0.00    +0.000 A 
ATOM      6  C   UNL     1       5.040   6.129  16.312  0.00  0.00    +0.000 A 
ATOM      7  C   UNL     1       5.463   5.750  15.040  0.00  0.00    +0.000 A 
ATOM      8  C   UNL     1       5.693   4.408  14.767  0.00  0.00    +0.000 A 
ATOM      9  C   UNL     1       5.460   3.452  15.754  0.00  0.00    +0.000 A 
ATOM     10  C   UNL     1       5.004   3.807  17.047  0.00  0.00    +0.000 A 
BRANCH  10  11
ATOM     11  C   UNL     1       4.644   2.663  17.975  0.00  0.00    +0.000 C 
BRANCH  11  12
ATOM     12  C   UNL     1       3.283   2.710  18.636  0.00  0.00    +0.000 A 
ATOM     13  C   UNL     1       3.185   2.716  20.034  0.00  0.00    +0.000 A 
ATOM     14  C   UNL     1       1.952   2.906  20.662  0.00  0.00    +0.000 A 
ATOM     15  C   UNL     1       0.800   3.088  19.901  0.00  0.00    +0.000 A 
ATOM     16  C   UNL     1       0.877   3.063  18.510  0.00  0.00    +0.000 A 
ATOM     17  C   UNL     1       2.111   2.874  17.879  0.00  0.00    +0.000 A 
ENDBRANCH  11  12
ENDBRANCH  10  11
ENDBRANCH   2   5
BRANCH   1  18
ATOM     18  C   UNL     1       2.490   6.783  19.888  0.00  0.00    +0.000 C 
BRANCH  18  22
ATOM     19  C   UNL     1       0.562  10.604  19.254  0.00  0.00    +0.000 A 
ATOM     20  C   UNL     1       0.465   9.979  20.498  0.00  0.00    +0.000 A 
ATOM     21  C   UNL     1       1.072   8.728  20.695  0.00  0.00    +0.000 A 
ATOM     22  C   UNL     1       1.766   8.094  19.651  0.00  0.00    +0.000 A 
ATOM     23  C   UNL     1       1.828   8.728  18.399  0.00  0.00    +0.000 A 
ATOM     24  C   UNL     1       1.229   9.975  18.198  0.00  0.00    +0.000 A 
BRANCH  19  25
ATOM     25  S   UNL     1      -0.204  12.175  18.973  0.00  0.00    +0.000 S 
ATOM     26  O   UNL     1      -0.357  12.863  20.235  0.00  0.00    +0.000 OA
ATOM     27  O   UNL     1      -1.300  12.010  18.045  0.00  0.00    +0.000 OA
BRANCH  25  28
ATOM     28  N   UNL     1       0.984  13.010  18.127  0.00  0.00    +0.000 NA
ATOM     29  H   UNL     1       1.127  12.569  17.218  0.00  0.00    +0.000 HD
ATOM     30  H   UNL     1       1.832  13.077  18.687  0.00  0.00    +0.000 HD
ENDBRANCH  25  28
ENDBRANCH  19  25
ENDBRANCH  18  22
ENDBRANCH   1  18
TORSDOF 7
ENDMDL
MODEL 8
REMARK VINA RESULT:      -8.1      1.956      4.050
REMARK  Name = 
REMARK  7 active torsions:
REMARK  status: ('A' for Active; 'I' for Inactive)
REMARK    1  A    between atoms: N_1  and  S_2
REMARK    2  A    between atoms: S_2  and  C_5
REMARK    3  A    between atoms: C_8  and  C_9
REMARK    4  A    between atoms: C_9  and  N_10
REMARK    5  A    between atoms: C_11  and  C_13
REMARK    6  A    between atoms: C_18  and  C_19
REMARK    7  A    between atoms: C_19  and  C_20
REMARK                            x       y       z     vdW  Elec       q    Type
REMARK                         _______ _______ _______ _____ _____    ______ ____
ROOT
ATOM      1  N   UNL     1       2.934   6.099  18.885  0.00  0.00    +0.000 N 
ATOM      2  C   UNL     1       4.247   5.661  18.810  0.00  0.00    +0.000 C 
ATOM      3  O   UNL     1       4.969   5.559  19.792  0.00  0.00    +0.000 OA
ATOM      4  H   UNL     1       2.430   6.309  18.037  0.00  0.00    +0.000 HD
ENDROOT
BRANCH   2   5
ATOM      5  C   UNL     1       4.723   5.290  17.431  0.00  0.00    +0.000 A 
ATOM      6  C   UNL     1       4.910   6.351  16.518  0.00  0.00    +0.000 A 
ATOM      7  C   UNL     1       5.352   6.125  15.217  0.00  0.00    +0.000 A 
ATOM      8  C   UNL     1       5.617   4.828  14.799  0.00  0.00    +0.000 A 
ATOM      9  C   UNL     1       5.399   3.763  15.671  0.00  0.00    +0.000 A 
ATOM     10  C   UNL     1       4.923   3.961  16.990  0.00  0.00    +0.000 A 
BRANCH  10  11
ATOM     11  C   UNL     1       4.583   2.713  17.781  0.00  0.00    +0.000 C 
BRANCH  11  12
ATOM     12  C   UNL     1       3.250   2.690  18.499  0.00  0.00    +0.000 A 
ATOM     13  C   UNL     1       3.210   2.564  19.895  0.00  0.00    +0.000 A 
ATOM     14  C   UNL     1       2.004   2.687  20.587  0.00  0.00    +0.000 A 
ATOM     15  C   UNL     1       0.821   2.934  19.896  0.00  0.00    +0.000 A 
ATOM     16  C   UNL     1       0.841   3.042  18.506  0.00  0.00    +0.000 A 
ATOM     17  C   UNL     1       2.048   2.919  17.810  0.00  0.00    +0.000 A 
ENDBRANCH  11  12
ENDBRANCH  10  11
ENDBRANCH   2   5
BRANCH   1  18
ATOM     18  C   UNL     1       2.278   6.432  20.133  0.00  0.00    +0.000 C 
BRANCH  18  22
ATOM     19  C   UNL     1       0.630  10.432  20.128  0.00  0.00    +0.000 A 
ATOM     20  C   UNL     1       1.195   9.917  18.962  0.00  0.00    +0.000 A 
ATOM     21  C   UNL     1       1.750   8.628  18.971  0.00  0.00    +0.000 A 
ATOM     22  C   UNL     1       1.753   7.854  20.144  0.00  0.00    +0.000 A 
ATOM     23  C   UNL     1       1.203   8.403  21.314  0.00  0.00    +0.000 A 
ATOM     24  C   UNL     1       0.646   9.685  21.311  0.00  0.00    +0.000 A 
BRANCH  19  25
ATOM     25  S   UNL     1      -0.066  12.059  20.150  0.00  0.00    +0.000 S 
ATOM     26  O   UNL     1      -1.508  11.961  20.179  0.00  0.00    +0.000 OA
ATOM     27  O   UNL     1       0.631  12.887  19.192  0.00  0.00    +0.000 OA
BRANCH  25  28
ATOM     28  N   UNL     1       0.394  12.630  21.662  0.00  0.00    +0.000 NA
ATOM     29  H   UNL     1       1.035  13.416  21.548  0.00  0.00    +0.000 HD
ATOM     30  H   UNL     1       0.774  11.870  22.223  0.00  0.00    +0.000 HD
ENDBRANCH  25  28
ENDBRANCH  19  25
ENDBRANCH  18  22
ENDBRANCH   1  18
TORSDOF 7
ENDMDL
MODEL 9
REMARK VINA RESULT:      -8.1      3.330      8.844
REMARK  Name = 
REMARK  7 active torsions:
REMARK  status: ('A' for Active; 'I' for Inactive)
REMARK    1  A    between atoms: N_1  and  S_2
REMARK    2  A    between atoms: S_2  and  C_5
REMARK    3  A    between atoms: C_8  and  C_9
REMARK    4  A    between atoms: C_9  and  N_10
REMARK    5  A    between atoms: C_11  and  C_13
REMARK    6  A    between atoms: C_18  and  C_19
REMARK    7  A    between atoms: C_19  and  C_20
REMARK                            x       y       z     vdW  Elec       q    Type
REMARK                         _______ _______ _______ _____ _____    ______ ____
ROOT
ATOM      1  N   UNL     1       1.159   9.044  19.689  0.00  0.00    +0.000 N 
ATOM      2  C   UNL     1       0.961  10.413  19.785  0.00  0.00    +0.000 C 
ATOM      3  O   UNL     1       1.529  11.217  19.058  0.00  0.00    +0.000 OA
ATOM      4  H   UNL     1       0.787   8.436  20.402  0.00  0.00    +0.000 HD
ENDROOT
BRANCH   2   5
ATOM      5  C   UNL     1      -0.028  10.848  20.832  0.00  0.00    +0.000 A 
ATOM      6  C   UNL     1       0.075  10.230  22.097  0.00  0.00    +0.000 A 
ATOM      7  C   UNL     1      -0.784  10.558  23.143  0.00  0.00    +0.000 A 
ATOM      8  C   UNL     1      -1.769  11.516  22.944  0.00  0.00    +0.000 A 
ATOM      9  C   UNL     1      -1.915  12.108  21.691  0.00  0.00    +0.000 A 
ATOM     10  C   UNL     1      -1.074  11.773  20.602  0.00  0.00    +0.000 A 
BRANCH  10  11
ATOM     11  C   UNL     1      -1.435  12.373  19.258  0.00  0.00    +0.000 C 
BRANCH  11  12
ATOM     12  C   UNL     1      -2.267  11.523  18.320  0.00  0.00    +0.000 A 
ATOM     13  C   UNL     1      -3.651  11.724  18.238  0.00  0.00    +0.000 A 
ATOM     14  C   UNL     1      -4.413  11.055  17.278  0.00  0.00    +0.000 A 
ATOM     15  C   UNL     1      -3.802  10.173  16.389  0.00  0.00    +0.000 A 
ATOM     16  C   UNL     1      -2.429   9.947  16.472  0.00  0.00    +0.000 A 
ATOM     17  C   UNL     1      -1.664  10.616  17.433  0.00  0.00    +0.000 A 
ENDBRANCH  11  12
ENDBRANCH  10  11
ENDBRANCH   2   5
BRANCH   1  18
ATOM     18  C   UNL     1       2.017   8.433  18.695  0.00  0.00    +0.000 C 
BRANCH  18  22
ATOM     19  C   UNL     1       3.000   4.332  19.659  0.00  0.00    +0.000 A 
ATOM     20  C   UNL     1       3.374   4.859  18.422  0.00  0.00    +0.000 A 
ATOM     21  C   UNL     1       3.034   6.182  18.102  0.00  0.00    +0.000 A 
ATOM     22  C   UNL     1       2.312   6.979  19.007  0.00  0.00    +0.000 A 
ATOM     23  C   UNL     1       1.923   6.419  20.235  0.00  0.00    +0.000 A 
ATOM     24  C   UNL     1       2.261   5.103  20.562  0.00  0.00    +0.000 A 
BRANCH  19  25
ATOM     25  S   UNL     1       3.405   2.662  20.086  0.00  0.00    +0.000 S 
ATOM     26  O   UNL     1       4.842   2.512  20.115  0.00  0.00    +0.000 OA
ATOM     27  O   UNL     1       2.550   1.762  19.345  0.00  0.00    +0.000 OA
BRANCH  25  28
ATOM     28  N   UNL     1       2.892   2.562  21.683  0.00  0.00    +0.000 NA
ATOM     29  H   UNL     1       2.575   1.612  21.879  0.00  0.00    +0.000 HD
ATOM     30  H   UNL     1       2.189   3.274  21.871  0.00  0.00    +0.000 HD
ENDBRANCH  25  28
ENDBRANCH  19  25
ENDBRANCH  18  22
ENDBRANCH   1  18
TORSDOF 7
ENDMDL
