MODEL 1
REMARK VINA RESULT:      -9.1      0.000      0.000
REMARK  Name = 
REMARK  5 active torsions:
REMARK  status: ('A' for Active; 'I' for Inactive)
REMARK    1  A    between atoms: C_1  and  S_2
REMARK    2  A    between atoms: S_2  and  C_5
REMARK    3  A    between atoms: C_8  and  C_9
REMARK    4  A    between atoms: C_15  and  C_16
REMARK    5  A    between atoms: C_20  and  C_21
REMARK                            x       y       z     vdW  Elec       q    Type
REMARK                         _______ _______ _______ _____ _____    ______ ____
ROOT
ATOM      1  C   UNL     1       2.028   5.080  19.886  0.00  0.00    +0.000 A 
ATOM      2  C   UNL     1       1.369   4.169  20.697  0.00  0.00    +0.000 A 
ATOM      3  N   UNL     1       1.725   2.878  20.427  0.00  0.00    +0.000 NA
ATOM      4  C   UNL     1       2.605   2.971  19.457  0.00  0.00    +0.000 A 
ATOM      5  C   UNL     1       3.300   1.963  18.760  0.00  0.00    +0.000 A 
ATOM      6  C   UNL     1       4.185   2.303  17.817  0.00  0.00    +0.000 A 
ATOM      7  C   UNL     1       4.374   3.759  17.536  0.00  0.00    +0.000 A 
ATOM      8  N   UNL     1       3.758   4.720  18.163  0.00  0.00    +0.000 NA
ATOM      9  N   UNL     1       2.860   4.289  19.108  0.00  0.00    +0.000 N 
ENDROOT
BRANCH   1  13
ATOM     10  C   UNL     1       1.411   9.302  19.690  0.00  0.00    +0.000 A 
ATOM     11  C   UNL     1       1.115   8.608  20.862  0.00  0.00    +0.000 A 
ATOM     12  C   UNL     1       1.355   7.233  20.923  0.00  0.00    +0.000 A 
ATOM     13  C   UNL     1       1.874   6.537  19.818  0.00  0.00    +0.000 A 
ATOM     14  C   UNL     1       2.148   7.255  18.645  0.00  0.00    +0.000 A 
ATOM     15  C   UNL     1       1.914   8.633  18.574  0.00  0.00    +0.000 A 
BRANCH  10  17
ATOM     16  C   UNL     1      -0.582  11.152  19.180  0.00  0.00    +0.000 C 
ATOM     17  S   UNL     1       1.134  11.052  19.613  0.00  0.00    +0.000 S 
ATOM     18  O   UNL     1       1.912  11.574  18.504  0.00  0.00    +0.000 OA
ATOM     19  O   UNL     1       1.297  11.586  20.953  0.00  0.00    +0.000 OA
ENDBRANCH  10  17
ENDBRANCH   1  13
BRANCH   7  20
ATOM     20  C   UNL     1       5.339   4.104  16.451  0.00  0.00    +0.000 A 
ATOM     21  C   UNL     1       6.417   4.949  16.741  0.00  0.00    +0.000 A 
ATOM     22  C   UNL     1       7.305   5.327  15.732  0.00  0.00    +0.000 A 
ATOM     23  C   UNL     1       7.117   4.875  14.426  0.00  0.00    +0.000 A 
ATOM     24  C   UNL     1       6.036   4.037  14.113  0.00  0.00    +0.000 A 
ATOM     25  C   UNL     1       5.152   3.655  15.136  0.00  0.00    +0.000 A 
BRANCH  24  26
ATOM     26  C   UNL     1       5.796   3.557  12.702  0.00  0.00    +0.000 C 
ATOM     27  F   UNL     1       5.939   2.214  12.545  0.00  0.00    +0.000 F 
ATOM     28  F   UNL     1       4.542   3.857  12.264  0.00  0.00    +0.000 F 
ATOM     29  F   UNL     1       6.649   4.134  11.810  0.00  0.00    +0.000 F 
ENDBRANCH  24  26
ENDBRANCH   7  20
TORSDOF 4
ENDMDL
MODEL 2
REMARK VINA RESULT:      -9.0      0.769      1.103
REMARK  Name = 
REMARK  5 active torsions:
REMARK  status: ('A' for Active; 'I' for Inactive)
REMARK    1  A    between atoms: C_1  and  S_2
REMARK    2  A    between atoms: S_2  and  C_5
REMARK    3  A    between atoms: C_8  and  C_9
REMARK    4  A    between atoms: C_15  and  C_16
REMARK    5  A    between atoms: C_20  and  C_21
REMARK                            x       y       z     vdW  Elec       q    Type
REMARK                         _______ _______ _______ _____ _____    ______ ____
ROOT
ATOM      1  C   UNL     1       2.127   5.346  19.703  0.00  0.00    +0.000 A 
ATOM      2  C   UNL     1       1.484   4.490  20.585  0.00  0.00    +0.000 A 
ATOM      3  N   UNL     1       1.854   3.187  20.411  0.00  0.00    +0.000 NA
ATOM      4  C   UNL     1       2.726   3.217  19.429  0.00  0.00    +0.000 A 
ATOM      5  C   UNL     1       3.429   2.167  18.805  0.00  0.00    +0.000 A 
ATOM      6  C   UNL     1       4.304   2.445  17.833  0.00  0.00    +0.000 A 
ATOM      7  C   UNL     1       4.473   3.878  17.442  0.00  0.00    +0.000 A 
ATOM      8  N   UNL     1       3.850   4.877  17.999  0.00  0.00    +0.000 NA
ATOM      9  N   UNL     1       2.963   4.507  18.980  0.00  0.00    +0.000 N 
ENDROOT
BRANCH   1  13
ATOM     10  C   UNL     1       1.457   9.533  19.196  0.00  0.00    +0.000 A 
ATOM     11  C   UNL     1       1.185   8.928  20.421  0.00  0.00    +0.000 A 
ATOM     12  C   UNL     1       1.441   7.564  20.583  0.00  0.00    +0.000 A 
ATOM     13  C   UNL     1       1.955   6.791  19.527  0.00  0.00    +0.000 A 
ATOM     14  C   UNL     1       2.205   7.420  18.298  0.00  0.00    +0.000 A 
ATOM     15  C   UNL     1       1.954   8.786  18.126  0.00  0.00    +0.000 A 
BRANCH  10  17
ATOM     16  C   UNL     1       1.201  11.868  20.657  0.00  0.00    +0.000 C 
ATOM     17  S   UNL     1       1.158  11.269  18.989  0.00  0.00    +0.000 S 
ATOM     18  O   UNL     1      -0.194  11.429  18.485  0.00  0.00    +0.000 OA
ATOM     19  O   UNL     1       2.290  11.831  18.275  0.00  0.00    +0.000 OA
ENDBRANCH  10  17
ENDBRANCH   1  13
BRANCH   7  20
ATOM     20  C   UNL     1       5.426   4.152  16.326  0.00  0.00    +0.000 A 
ATOM     21  C   UNL     1       6.557   4.937  16.575  0.00  0.00    +0.000 A 
ATOM     22  C   UNL     1       7.438   5.250  15.537  0.00  0.00    +0.000 A 
ATOM     23  C   UNL     1       7.190   4.789  14.244  0.00  0.00    +0.000 A 
ATOM     24  C   UNL     1       6.055   4.011  13.972  0.00  0.00    +0.000 A 
ATOM     25  C   UNL     1       5.179   3.694  15.024  0.00  0.00    +0.000 A 
BRANCH  24  26
ATOM     26  C   UNL     1       5.750   3.524  12.576  0.00  0.00    +0.000 C 
ATOM     27  F   UNL     1       4.477   3.776  12.171  0.00  0.00    +0.000 F 
ATOM     28  F   UNL     1       6.562   4.096  11.644  0.00  0.00    +0.000 F 
ATOM     29  F   UNL     1       5.927   2.180  12.449  0.00  0.00    +0.000 F 
ENDBRANCH  24  26
ENDBRANCH   7  20
TORSDOF 4
ENDMDL
MODEL 3
REMARK VINA RESULT:      -8.9      0.728      1.146
REMARK  Name = 
REMARK  5 active torsions:
REMARK  status: ('A' for Active; 'I' for Inactive)
REMARK    1  A    between atoms: C_1  and  S_2
REMARK    2  A    between atoms: S_2  and  C_5
REMARK    3  A    between atoms: C_8  and  C_9
REMARK    4  A    between atoms: C_15  and  C_16
REMARK    5  A    between atoms: C_20  and  C_21
REMARK                            x       y       z     vdW  Elec       q    Type
REMARK                         _______ _______ _______ _____ _____    ______ ____
ROOT
ATOM      1  C   UNL     1       2.036   5.283  19.750  0.00  0.00    +0.000 A 
ATOM      2  C   UNL     1       1.375   4.404  20.594  0.00  0.00    +0.000 A 
ATOM      3  N   UNL     1       1.738   3.104  20.382  0.00  0.00    +0.000 NA
ATOM      4  C   UNL     1       2.624   3.160  19.414  0.00  0.00    +0.000 A 
ATOM      5  C   UNL     1       3.328   2.127  18.766  0.00  0.00    +0.000 A 
ATOM      6  C   UNL     1       4.219   2.430  17.815  0.00  0.00    +0.000 A 
ATOM      7  C   UNL     1       4.404   3.873  17.475  0.00  0.00    +0.000 A 
ATOM      8  N   UNL     1       3.780   4.858  18.055  0.00  0.00    +0.000 NA
ATOM      9  N   UNL     1       2.877   4.463  19.012  0.00  0.00    +0.000 N 
ENDROOT
BRANCH   1  13
ATOM     10  C   UNL     1       1.403   9.490  19.374  0.00  0.00    +0.000 A 
ATOM     11  C   UNL     1       1.116   8.847  20.577  0.00  0.00    +0.000 A 
ATOM     12  C   UNL     1       1.360   7.477  20.696  0.00  0.00    +0.000 A 
ATOM     13  C   UNL     1       1.877   6.735  19.620  0.00  0.00    +0.000 A 
ATOM     14  C   UNL     1       2.143   7.402  18.415  0.00  0.00    +0.000 A 
ATOM     15  C   UNL     1       1.904   8.775  18.285  0.00  0.00    +0.000 A 
BRANCH  10  17
ATOM     16  C   UNL     1       2.376  11.730  18.073  0.00  0.00    +0.000 C 
ATOM     17  S   UNL     1       1.120  11.234  19.222  0.00  0.00    +0.000 S 
ATOM     18  O   UNL     1       1.415  11.844  20.506  0.00  0.00    +0.000 OA
ATOM     19  O   UNL     1      -0.173  11.419  18.590  0.00  0.00    +0.000 OA
ENDBRANCH  10  17
ENDBRANCH   1  13
BRANCH   7  20
ATOM     20  C   UNL     1       5.374   4.177  16.382  0.00  0.00    +0.000 A 
ATOM     21  C   UNL     1       6.476   4.995  16.658  0.00  0.00    +0.000 A 
ATOM     22  C   UNL     1       7.371   5.335  15.641  0.00  0.00    +0.000 A 
ATOM     23  C   UNL     1       7.167   4.870  14.342  0.00  0.00    +0.000 A 
ATOM     24  C   UNL     1       6.063   4.058  14.043  0.00  0.00    +0.000 A 
ATOM     25  C   UNL     1       5.171   3.715  15.074  0.00  0.00    +0.000 A 
BRANCH  24  26
ATOM     26  C   UNL     1       5.805   3.566  12.639  0.00  0.00    +0.000 C 
ATOM     27  F   UNL     1       6.612   4.128  11.701  0.00  0.00    +0.000 F 
ATOM     28  F   UNL     1       5.977   2.220  12.527  0.00  0.00    +0.000 F 
ATOM     29  F   UNL     1       4.527   3.812  12.235  0.00  0.00    +0.000 F 
ENDBRANCH  24  26
ENDBRANCH   7  20
TORSDOF 4
ENDMDL
MODEL 4
REMARK VINA RESULT:      -8.7      6.549      9.613
REMARK  Name = 
REMARK  5 active torsions:
REMARK  status: ('A' for Active; 'I' for Inactive)
REMARK    1  A    between atoms: C_1  and  S_2
REMARK    2  A    between atoms: S_2  and  C_5
REMARK    3  A    between atoms: C_8  and  C_9
REMARK    4  A    between atoms: C_15  and  C_16
REMARK    5  A    between atoms: C_20  and  C_21
REMARK                            x       y       z     vdW  Elec       q    Type
REMARK                         _______ _______ _______ _____ _____    ______ ____
ROOT
ATOM      1  C   UNL     1       1.289   8.514  20.930  0.00  0.00    +0.000 A 
ATOM      2  C   UNL     1       1.772   8.906  22.169  0.00  0.00    +0.000 A 
ATOM      3  N   UNL     1       1.163  10.039  22.632  0.00  0.00    +0.000 NA
ATOM      4  C   UNL     1       0.299  10.358  21.696  0.00  0.00    +0.000 A 
ATOM      5  C   UNL     1      -0.595  11.444  21.616  0.00  0.00    +0.000 A 
ATOM      6  C   UNL     1      -1.415  11.548  20.565  0.00  0.00    +0.000 A 
ATOM      7  C   UNL     1      -1.319  10.499  19.505  0.00  0.00    +0.000 A 
ATOM      8  N   UNL     1      -0.513   9.476  19.545  0.00  0.00    +0.000 NA
ATOM      9  N   UNL     1       0.302   9.447  20.650  0.00  0.00    +0.000 N 
ENDROOT
BRANCH   1  13
ATOM     10  C   UNL     1       2.688   5.251  18.556  0.00  0.00    +0.000 A 
ATOM     11  C   UNL     1       2.111   5.009  19.801  0.00  0.00    +0.000 A 
ATOM     12  C   UNL     1       1.626   6.083  20.552  0.00  0.00    +0.000 A 
ATOM     13  C   UNL     1       1.725   7.404  20.078  0.00  0.00    +0.000 A 
ATOM     14  C   UNL     1       2.325   7.623  18.829  0.00  0.00    +0.000 A 
ATOM     15  C   UNL     1       2.812   6.553  18.068  0.00  0.00    +0.000 A 
BRANCH  10  17
ATOM     16  C   UNL     1       3.878   2.768  18.821  0.00  0.00    +0.000 C 
ATOM     17  S   UNL     1       3.283   3.891  17.585  0.00  0.00    +0.000 S 
ATOM     18  O   UNL     1       4.420   4.361  16.815  0.00  0.00    +0.000 OA
ATOM     19  O   UNL     1       2.141   3.282  16.929  0.00  0.00    +0.000 OA
ENDBRANCH  10  17
ENDBRANCH   1  13
BRANCH   7  20
ATOM     20  C   UNL     1      -2.218  10.665  18.325  0.00  0.00    +0.000 A 
ATOM     21  C   UNL     1      -1.790  10.209  17.073  0.00  0.00    +0.000 A 
ATOM     22  C   UNL     1      -2.590  10.397  15.944  0.00  0.00    +0.000 A 
ATOM     23  C   UNL     1      -3.818  11.050  16.056  0.00  0.00    +0.000 A 
ATOM     24  C   UNL     1      -4.259  11.525  17.300  0.00  0.00    +0.000 A 
ATOM     25  C   UNL     1      -3.451  11.324  18.432  0.00  0.00    +0.000 A 
BRANCH  24  26
ATOM     26  C   UNL     1      -5.571  12.260  17.442  0.00  0.00    +0.000 C 
ATOM     27  F   UNL     1      -5.816  13.147  16.441  0.00  0.00    +0.000 F 
ATOM     28  F   UNL     1      -6.636  11.411  17.464  0.00  0.00    +0.000 F 
ATOM     29  F   UNL     1      -5.638  12.972  18.601  0.00  0.00    +0.000 F 
ENDBRANCH  24  26
ENDBRANCH   7  20
TORSDOF 4
ENDMDL
MODEL 5
REMARK VINA RESULT:      -8.6      0.240      1.156
REMARK  Name = 
REMARK  5 active torsions:
REMARK  status: ('A' for Active; 'I' for Inactive)
REMARK    1  A    between atoms: C_1  and  S_2
REMARK    2  A    between atoms: S_2  and  C_5
REMARK    3  A    between atoms: C_8  and  C_9
REMARK    4  A    between atoms: C_15  and  C_16
REMARK    5  A    between atoms: C_20  and  C_21
REMARK                            x       y       z     vdW  Elec       q    Type
REMARK                         _______ _______ _______ _____ _____    ______ ____
ROOT
ATOM      1  C   UNL     1       1.947   5.026  19.739  0.00  0.00    +0.000 A 
ATOM      2  C   UNL     1       1.318   4.114  20.573  0.00  0.00    +0.000 A 
ATOM      3  N   UNL     1       1.735   2.832  20.354  0.00  0.00    +0.000 NA
ATOM      4  C   UNL     1       2.623   2.931  19.391  0.00  0.00    +0.000 A 
ATOM      5  C   UNL     1       3.372   1.933  18.739  0.00  0.00    +0.000 A 
ATOM      6  C   UNL     1       4.254   2.279  17.795  0.00  0.00    +0.000 A 
ATOM      7  C   UNL     1       4.382   3.731  17.466  0.00  0.00    +0.000 A 
ATOM      8  N   UNL     1       3.715   4.685  18.051  0.00  0.00    +0.000 NA
ATOM      9  N   UNL     1       2.824   4.247  18.999  0.00  0.00    +0.000 N 
ENDROOT
BRANCH   1  13
ATOM     10  C   UNL     1       1.483   9.256  19.376  0.00  0.00    +0.000 A 
ATOM     11  C   UNL     1       1.898   8.504  18.278  0.00  0.00    +0.000 A 
ATOM     12  C   UNL     1       2.012   7.117  18.402  0.00  0.00    +0.000 A 
ATOM     13  C   UNL     1       1.730   6.471  19.619  0.00  0.00    +0.000 A 
ATOM     14  C   UNL     1       1.330   7.252  20.713  0.00  0.00    +0.000 A 
ATOM     15  C   UNL     1       1.210   8.642  20.599  0.00  0.00    +0.000 A 
BRANCH  10  17
ATOM     16  C   UNL     1      -0.331  11.186  18.575  0.00  0.00    +0.000 C 
ATOM     17  S   UNL     1       1.311  11.015  19.220  0.00  0.00    +0.000 S 
ATOM     18  O   UNL     1       2.246  11.462  18.204  0.00  0.00    +0.000 OA
ATOM     19  O   UNL     1       1.337  11.582  20.556  0.00  0.00    +0.000 OA
ENDBRANCH  10  17
ENDBRANCH   1  13
BRANCH   7  20
ATOM     20  C   UNL     1       5.345   4.082  16.380  0.00  0.00    +0.000 A 
ATOM     21  C   UNL     1       6.425   4.921  16.675  0.00  0.00    +0.000 A 
ATOM     22  C   UNL     1       7.312   5.305  15.666  0.00  0.00    +0.000 A 
ATOM     23  C   UNL     1       7.120   4.863  14.357  0.00  0.00    +0.000 A 
ATOM     24  C   UNL     1       6.036   4.031  14.041  0.00  0.00    +0.000 A 
ATOM     25  C   UNL     1       5.153   3.643  15.063  0.00  0.00    +0.000 A 
BRANCH  24  26
ATOM     26  C   UNL     1       5.791   3.562  12.626  0.00  0.00    +0.000 C 
ATOM     27  F   UNL     1       4.524   3.784  12.185  0.00  0.00    +0.000 F 
ATOM     28  F   UNL     1       6.615   4.174  11.732  0.00  0.00    +0.000 F 
ATOM     29  F   UNL     1       6.012   2.226  12.482  0.00  0.00    +0.000 F 
ENDBRANCH  24  26
ENDBRANCH   7  20
TORSDOF 4
ENDMDL
MODEL 6
REMARK VINA RESULT:      -8.6      6.349      9.638
REMARK  Name = 
REMARK  5 active torsions:
REMARK  status: ('A' for Active; 'I' for Inactive)
REMARK    1  A    between atoms: C_1  and  S_2
REMARK    2  A    between atoms: S_2  and  C_5
REMARK    3  A    between atoms: C_8  and  C_9
REMARK    4  A    between atoms: C_15  and  C_16
REMARK    5  A    between atoms: C_20  and  C_21
REMARK                            x       y       z     vdW  Elec       q    Type
REMARK                         _______ _______ _______ _____ _____    ______ ____
ROOT
ATOM      1  C   UNL     1       1.174   8.631  21.043  0.00  0.00    +0.000 A 
ATOM      2  C   UNL     1       1.637   9.046  22.283  0.00  0.00    +0.000 A 
ATOM      3  N   UNL     1       1.020  10.186  22.715  0.00  0.00    +0.000 NA
ATOM      4  C   UNL     1       0.171  10.488  21.759  0.00  0.00    +0.000 A 
ATOM      5  C   UNL     1      -0.721  11.572  21.644  0.00  0.00    +0.000 A 
ATOM      6  C   UNL     1      -1.524  11.657  20.578  0.00  0.00    +0.000 A 
ATOM      7  C   UNL     1      -1.410  10.588  19.539  0.00  0.00    +0.000 A 
ATOM      8  N   UNL     1      -0.605   9.567  19.611  0.00  0.00    +0.000 NA
ATOM      9  N   UNL     1       0.192   9.558  20.730  0.00  0.00    +0.000 N 
ENDROOT
BRANCH   1  13
ATOM     10  C   UNL     1       2.615   5.328  18.751  0.00  0.00    +0.000 A 
ATOM     11  C   UNL     1       2.031   5.109  19.998  0.00  0.00    +0.000 A 
ATOM     12  C   UNL     1       1.533   6.195  20.721  0.00  0.00    +0.000 A 
ATOM     13  C   UNL     1       1.625   7.506  20.219  0.00  0.00    +0.000 A 
ATOM     14  C   UNL     1       2.232   7.701  18.970  0.00  0.00    +0.000 A 
ATOM     15  C   UNL     1       2.732   6.620  18.236  0.00  0.00    +0.000 A 
BRANCH  10  17
ATOM     16  C   UNL     1       4.448   4.705  16.775  0.00  0.00    +0.000 C 
ATOM     17  S   UNL     1       3.227   3.951  17.815  0.00  0.00    +0.000 S 
ATOM     18  O   UNL     1       2.146   3.474  16.972  0.00  0.00    +0.000 OA
ATOM     19  O   UNL     1       3.904   3.056  18.735  0.00  0.00    +0.000 OA
ENDBRANCH  10  17
ENDBRANCH   1  13
BRANCH   7  20
ATOM     20  C   UNL     1      -2.289  10.733  18.341  0.00  0.00    +0.000 A 
ATOM     21  C   UNL     1      -1.839  10.256  17.105  0.00  0.00    +0.000 A 
ATOM     22  C   UNL     1      -2.621  10.423  15.960  0.00  0.00    +0.000 A 
ATOM     23  C   UNL     1      -3.851  11.076  16.040  0.00  0.00    +0.000 A 
ATOM     24  C   UNL     1      -4.315  11.570  17.268  0.00  0.00    +0.000 A 
ATOM     25  C   UNL     1      -3.525  11.391  18.416  0.00  0.00    +0.000 A 
BRANCH  24  26
ATOM     26  C   UNL     1      -5.630  12.304  17.375  0.00  0.00    +0.000 C 
ATOM     27  F   UNL     1      -6.716  11.487  17.414  0.00  0.00    +0.000 F 
ATOM     28  F   UNL     1      -5.698  13.076  18.495  0.00  0.00    +0.000 F 
ATOM     29  F   UNL     1      -5.833  13.151  16.327  0.00  0.00    +0.000 F 
ENDBRANCH  24  26
ENDBRANCH   7  20
TORSDOF 4
ENDMDL
MODEL 7
REMARK VINA RESULT:      -8.5      0.778      1.437
REMARK  Name = 
REMARK  5 active torsions:
REMARK  status: ('A' for Active; 'I' for Inactive)
REMARK    1  A    between atoms: C_1  and  S_2
REMARK    2  A    between atoms: S_2  and  C_5
REMARK    3  A    between atoms: C_8  and  C_9
REMARK    4  A    between atoms: C_15  and  C_16
REMARK    5  A    between atoms: C_20  and  C_21
REMARK                            x       y       z     vdW  Elec       q    Type
REMARK                         _______ _______ _______ _____ _____    ______ ____
ROOT
ATOM      1  C   UNL     1       2.107   5.305  19.840  0.00  0.00    +0.000 A 
ATOM      2  C   UNL     1       1.537   4.432  20.754  0.00  0.00    +0.000 A 
ATOM      3  N   UNL     1       2.000   3.154  20.614  0.00  0.00    +0.000 NA
ATOM      4  C   UNL     1       2.857   3.217  19.621  0.00  0.00    +0.000 A 
ATOM      5  C   UNL     1       3.627   2.203  19.019  0.00  0.00    +0.000 A 
ATOM      6  C   UNL     1       4.469   2.514  18.027  0.00  0.00    +0.000 A 
ATOM      7  C   UNL     1       4.530   3.943  17.593  0.00  0.00    +0.000 A 
ATOM      8  N   UNL     1       3.842   4.911  18.128  0.00  0.00    +0.000 NA
ATOM      9  N   UNL     1       2.995   4.508  19.131  0.00  0.00    +0.000 N 
ENDROOT
BRANCH   1  13
ATOM     10  C   UNL     1       1.465   9.479  19.202  0.00  0.00    +0.000 A 
ATOM     11  C   UNL     1       1.947   8.681  18.165  0.00  0.00    +0.000 A 
ATOM     12  C   UNL     1       2.120   7.312  18.378  0.00  0.00    +0.000 A 
ATOM     13  C   UNL     1       1.829   6.728  19.624  0.00  0.00    +0.000 A 
ATOM     14  C   UNL     1       1.361   7.554  20.656  0.00  0.00    +0.000 A 
ATOM     15  C   UNL     1       1.182   8.927  20.452  0.00  0.00    +0.000 A 
BRANCH  10  17
ATOM     16  C   UNL     1       1.304  11.875  20.576  0.00  0.00    +0.000 C 
ATOM     17  S   UNL     1       1.220  11.214  18.933  0.00  0.00    +0.000 S 
ATOM     18  O   UNL     1      -0.133  11.398  18.439  0.00  0.00    +0.000 OA
ATOM     19  O   UNL     1       2.359  11.712  18.184  0.00  0.00    +0.000 OA
ENDBRANCH  10  17
ENDBRANCH   1  13
BRANCH   7  20
ATOM     20  C   UNL     1       5.449   4.252  16.457  0.00  0.00    +0.000 A 
ATOM     21  C   UNL     1       6.530   5.114  16.672  0.00  0.00    +0.000 A 
ATOM     22  C   UNL     1       7.375   5.459  15.614  0.00  0.00    +0.000 A 
ATOM     23  C   UNL     1       7.140   4.953  14.336  0.00  0.00    +0.000 A 
ATOM     24  C   UNL     1       6.056   4.096  14.099  0.00  0.00    +0.000 A 
ATOM     25  C   UNL     1       5.215   3.749  15.170  0.00  0.00    +0.000 A 
BRANCH  24  26
ATOM     26  C   UNL     1       5.764   3.558  12.718  0.00  0.00    +0.000 C 
ATOM     27  F   UNL     1       6.510   4.130  11.736  0.00  0.00    +0.000 F 
ATOM     28  F   UNL     1       5.988   2.218  12.631  0.00  0.00    +0.000 F 
ATOM     29  F   UNL     1       4.463   3.742  12.359  0.00  0.00    +0.000 F 
ENDBRANCH  24  26
ENDBRANCH   7  20
TORSDOF 4
ENDMDL
MODEL 8
REMARK VINA RESULT:      -8.3      6.295      9.597
REMARK  Name = 
REMARK  5 active torsions:
REMARK  status: ('A' for Active; 'I' for Inactive)
REMARK    1  A    between atoms: C_1  and  S_2
REMARK    2  A    between atoms: S_2  and  C_5
REMARK    3  A    between atoms: C_8  and  C_9
REMARK    4  A    between atoms: C_15  and  C_16
REMARK    5  A    between atoms: C_20  and  C_21
REMARK                            x       y       z     vdW  Elec       q    Type
REMARK                         _______ _______ _______ _____ _____    ______ ____
ROOT
ATOM      1  C   UNL     1       1.230   8.586  21.187  0.00  0.00    +0.000 A 
ATOM      2  C   UNL     1       1.678   9.032  22.421  0.00  0.00    +0.000 A 
ATOM      3  N   UNL     1       1.056  10.183  22.817  0.00  0.00    +0.000 NA
ATOM      4  C   UNL     1       0.220  10.461  21.843  0.00  0.00    +0.000 A 
ATOM      5  C   UNL     1      -0.670  11.542  21.691  0.00  0.00    +0.000 A 
ATOM      6  C   UNL     1      -1.459  11.601  20.613  0.00  0.00    +0.000 A 
ATOM      7  C   UNL     1      -1.334  10.507  19.602  0.00  0.00    +0.000 A 
ATOM      8  N   UNL     1      -0.531   9.487  19.710  0.00  0.00    +0.000 NA
ATOM      9  N   UNL     1       0.252   9.506  20.838  0.00  0.00    +0.000 N 
ENDROOT
BRANCH   1  13
ATOM     10  C   UNL     1       2.440   5.277  18.773  0.00  0.00    +0.000 A 
ATOM     11  C   UNL     1       2.619   6.579  18.310  0.00  0.00    +0.000 A 
ATOM     12  C   UNL     1       2.250   7.653  19.125  0.00  0.00    +0.000 A 
ATOM     13  C   UNL     1       1.689   7.440  20.396  0.00  0.00    +0.000 A 
ATOM     14  C   UNL     1       1.504   6.120  20.833  0.00  0.00    +0.000 A 
ATOM     15  C   UNL     1       1.872   5.037  20.025  0.00  0.00    +0.000 A 
BRANCH  10  17
ATOM     16  C   UNL     1       4.245   4.599  16.789  0.00  0.00    +0.000 C 
ATOM     17  S   UNL     1       2.929   3.909  17.755  0.00  0.00    +0.000 S 
ATOM     18  O   UNL     1       1.825   3.604  16.864  0.00  0.00    +0.000 OA
ATOM     19  O   UNL     1       3.489   2.889  18.623  0.00  0.00    +0.000 OA
ENDBRANCH  10  17
ENDBRANCH   1  13
BRANCH   7  20
ATOM     20  C   UNL     1      -2.198  10.622  18.391  0.00  0.00    +0.000 A 
ATOM     21  C   UNL     1      -1.741  10.099  17.176  0.00  0.00    +0.000 A 
ATOM     22  C   UNL     1      -2.508  10.237  16.017  0.00  0.00    +0.000 A 
ATOM     23  C   UNL     1      -3.731  10.908  16.062  0.00  0.00    +0.000 A 
ATOM     24  C   UNL     1      -4.201  11.449  17.267  0.00  0.00    +0.000 A 
ATOM     25  C   UNL     1      -3.426  11.298  18.430  0.00  0.00    +0.000 A 
BRANCH  24  26
ATOM     26  C   UNL     1      -5.508  12.202  17.335  0.00  0.00    +0.000 C 
ATOM     27  F   UNL     1      -5.611  13.030  18.409  0.00  0.00    +0.000 F 
ATOM     28  F   UNL     1      -5.709  12.981  16.237  0.00  0.00    +0.000 F 
ATOM     29  F   UNL     1      -6.581  11.366  17.400  0.00  0.00    +0.000 F 
ENDBRANCH  24  26
ENDBRANCH   7  20
TORSDOF 4
ENDMDL
MODEL 9
REMARK VINA RESULT:      -8.2      4.924      7.484
REMARK  Name = 
REMARK  5 active torsions:
REMARK  status: ('A' for Active; 'I' for Inactive)
REMARK    1  A    between atoms: C_1  and  S_2
REMARK    2  A    between atoms: S_2  and  C_5
REMARK    3  A    between atoms: C_8  and  C_9
REMARK    4  A    between atoms: C_15  and  C_16
REMARK    5  A    between atoms: C_20  and  C_21
REMARK                            x       y       z     vdW  Elec       q    Type
REMARK                         _______ _______ _______ _____ _____    ______ ____
ROOT
ATOM      1  C   UNL     1       0.107  12.667  21.595  0.00  0.00    +0.000 A 
ATOM      2  C   UNL     1      -0.746  12.923  22.657  0.00  0.00    +0.000 A 
ATOM      3  N   UNL     1      -1.200  11.778  23.249  0.00  0.00    +0.000 NA
ATOM      4  C   UNL     1      -0.637  10.806  22.570  0.00  0.00    +0.000 A 
ATOM      5  C   UNL     1      -0.753   9.409  22.714  0.00  0.00    +0.000 A 
ATOM      6  C   UNL     1      -0.048   8.602  21.915  0.00  0.00    +0.000 A 
ATOM      7  C   UNL     1       0.824   9.239  20.881  0.00  0.00    +0.000 A 
ATOM      8  N   UNL     1       0.966  10.524  20.721  0.00  0.00    +0.000 NA
ATOM      9  N   UNL     1       0.201  11.283  21.572  0.00  0.00    +0.000 N 
ENDROOT
BRANCH   1  13
ATOM     10  C   UNL     1       1.989  15.526  19.040  0.00  0.00    +0.000 A 
ATOM     11  C   UNL     1       2.749  14.811  19.964  0.00  0.00    +0.000 A 
ATOM     12  C   UNL     1       2.125  13.854  20.769  0.00  0.00    +0.000 A 
ATOM     13  C   UNL     1       0.744  13.612  20.673  0.00  0.00    +0.000 A 
ATOM     14  C   UNL     1      -0.002  14.356  19.746  0.00  0.00    +0.000 A 
ATOM     15  C   UNL     1       0.613  15.315  18.933  0.00  0.00    +0.000 A 
BRANCH  10  17
ATOM     16  C   UNL     1       1.421  17.753  17.500  0.00  0.00    +0.000 C 
ATOM     17  S   UNL     1       2.776  16.724  17.996  0.00  0.00    +0.000 S 
ATOM     18  O   UNL     1       3.272  16.030  16.822  0.00  0.00    +0.000 OA
ATOM     19  O   UNL     1       3.668  17.515  18.824  0.00  0.00    +0.000 OA
ENDBRANCH  10  17
ENDBRANCH   1  13
BRANCH   7  20
ATOM     20  C   UNL     1       1.567   8.311  19.978  0.00  0.00    +0.000 A 
ATOM     21  C   UNL     1       1.898   8.738  18.687  0.00  0.00    +0.000 A 
ATOM     22  C   UNL     1       2.549   7.872  17.806  0.00  0.00    +0.000 A 
ATOM     23  C   UNL     1       2.863   6.573  18.203  0.00  0.00    +0.000 A 
ATOM     24  C   UNL     1       2.529   6.122  19.489  0.00  0.00    +0.000 A 
ATOM     25  C   UNL     1       1.881   7.003  20.372  0.00  0.00    +0.000 A 
BRANCH  24  26
ATOM     26  C   UNL     1       2.833   4.711  19.932  0.00  0.00    +0.000 C 
ATOM     27  F   UNL     1       2.166   3.757  19.231  0.00  0.00    +0.000 F 
ATOM     28  F   UNL     1       4.156   4.410  19.815  0.00  0.00    +0.000 F 
ATOM     29  F   UNL     1       2.519   4.505  21.242  0.00  0.00    +0.000 F 
ENDBRANCH  24  26
ENDBRANCH   7  20
TORSDOF 4
ENDMDL
