MODEL 1
REMARK VINA RESULT:      -6.3      0.000      0.000
REMARK  Name = 
REMARK  5 active torsions:
REMARK  status: ('A' for Active; 'I' for Inactive)
REMARK    1  A    between atoms: C_1  and  O_2
REMARK    2  A    between atoms: O_2  and  C_3
REMARK    3  A    between atoms: C_6  and  C_7
REMARK    4  A    between atoms: C_10  and  C_11
REMARK    5  A    between atoms: C_11  and  N_12
REMARK                            x       y       z     vdW  Elec       q    Type
REMARK                         _______ _______ _______ _____ _____    ______ ____
ROOT
ATOM      1  C   UNL     1       4.244   4.744  17.187  0.00  0.00    +0.000 A 
ATOM      2  C   UNL     1       4.774   6.018  16.936  0.00  0.00    +0.000 A 
ATOM      3  C   UNL     1       4.076   7.168  17.302  0.00  0.00    +0.000 A 
ATOM      4  C   UNL     1       2.842   7.049  17.936  0.00  0.00    +0.000 A 
ATOM      5  C   UNL     1       2.318   5.787  18.230  0.00  0.00    +0.000 A 
ATOM      6  C   UNL     1       3.013   4.617  17.864  0.00  0.00    +0.000 A 
ENDROOT
BRANCH   1   8
ATOM      7  C   UNL     1       5.837   3.700  15.771  0.00  0.00    +0.000 C 
ATOM      8  O   UNL     1       4.873   3.582  16.818  0.00  0.00    +0.000 OA
ENDBRANCH   1   8
BRANCH   4   9
ATOM      9  C   UNL     1       2.099   8.274  18.274  0.00  0.00    +0.000 C 
ATOM     10  O   UNL     1       2.121   9.264  17.552  0.00  0.00    +0.000 OA
ENDBRANCH   4   9
BRANCH   6  11
ATOM     11  C   UNL     1       2.405   3.271  18.195  0.00  0.00    +0.000 C 
BRANCH  11  12
ATOM     12  N   UNL     1       2.251   3.070  19.627  0.00  0.00    +0.000 N 
ATOM     13  C   UNL     1       1.074   3.061  20.328  0.00  0.00    +0.000 A 
ATOM     14  C   UNL     1       1.433   2.783  21.627  0.00  0.00    +0.000 A 
ATOM     15  N   UNL     1       2.788   2.591  21.725  0.00  0.00    +0.000 NA
ATOM     16  C   UNL     1       3.249   2.757  20.505  0.00  0.00    +0.000 A 
ENDBRANCH  11  12
ENDBRANCH   6  11
TORSDOF 4
ENDMDL
MODEL 2
REMARK VINA RESULT:      -6.3      1.408      3.380
REMARK  Name = 
REMARK  5 active torsions:
REMARK  status: ('A' for Active; 'I' for Inactive)
REMARK    1  A    between atoms: C_1  and  O_2
REMARK    2  A    between atoms: O_2  and  C_3
REMARK    3  A    between atoms: C_6  and  C_7
REMARK    4  A    between atoms: C_10  and  C_11
REMARK    5  A    between atoms: C_11  and  N_12
REMARK                            x       y       z     vdW  Elec       q    Type
REMARK                         _______ _______ _______ _____ _____    ______ ____
ROOT
ATOM      1  C   UNL     1       3.146   5.556  17.999  0.00  0.00    +0.000 A 
ATOM      2  C   UNL     1       4.109   6.454  17.517  0.00  0.00    +0.000 A 
ATOM      3  C   UNL     1       5.196   6.004  16.770  0.00  0.00    +0.000 A 
ATOM      4  C   UNL     1       5.319   4.646  16.487  0.00  0.00    +0.000 A 
ATOM      5  C   UNL     1       4.347   3.743  16.925  0.00  0.00    +0.000 A 
ATOM      6  C   UNL     1       3.245   4.185  17.684  0.00  0.00    +0.000 A 
ENDROOT
BRANCH   1   8
ATOM      7  C   UNL     1       2.326   6.990  19.704  0.00  0.00    +0.000 C 
ATOM      8  O   UNL     1       2.076   5.941  18.767  0.00  0.00    +0.000 OA
ENDBRANCH   1   8
BRANCH   4   9
ATOM      9  C   UNL     1       6.497   4.185  15.735  0.00  0.00    +0.000 C 
ATOM     10  O   UNL     1       7.598   4.704  15.873  0.00  0.00    +0.000 OA
ENDBRANCH   4   9
BRANCH   6  11
ATOM     11  C   UNL     1       2.219   3.172  18.144  0.00  0.00    +0.000 C 
BRANCH  11  12
ATOM     12  N   UNL     1       2.206   3.014  19.590  0.00  0.00    +0.000 N 
ATOM     13  C   UNL     1       1.107   3.050  20.405  0.00  0.00    +0.000 A 
ATOM     14  C   UNL     1       1.590   2.800  21.669  0.00  0.00    +0.000 A 
ATOM     15  N   UNL     1       2.944   2.581  21.636  0.00  0.00    +0.000 NA
ATOM     16  C   UNL     1       3.282   2.702  20.372  0.00  0.00    +0.000 A 
ENDBRANCH  11  12
ENDBRANCH   6  11
TORSDOF 4
ENDMDL
MODEL 3
REMARK VINA RESULT:      -6.2      1.614      3.505
REMARK  Name = 
REMARK  5 active torsions:
REMARK  status: ('A' for Active; 'I' for Inactive)
REMARK    1  A    between atoms: C_1  and  O_2
REMARK    2  A    between atoms: O_2  and  C_3
REMARK    3  A    between atoms: C_6  and  C_7
REMARK    4  A    between atoms: C_10  and  C_11
REMARK    5  A    between atoms: C_11  and  N_12
REMARK                            x       y       z     vdW  Elec       q    Type
REMARK                         _______ _______ _______ _____ _____    ______ ____
ROOT
ATOM      1  C   UNL     1       3.381   5.847  17.697  0.00  0.00    +0.000 A 
ATOM      2  C   UNL     1       4.392   6.765  17.379  0.00  0.00    +0.000 A 
ATOM      3  C   UNL     1       5.555   6.353  16.731  0.00  0.00    +0.000 A 
ATOM      4  C   UNL     1       5.709   5.013  16.384  0.00  0.00    +0.000 A 
ATOM      5  C   UNL     1       4.693   4.092  16.657  0.00  0.00    +0.000 A 
ATOM      6  C   UNL     1       3.514   4.497  17.313  0.00  0.00    +0.000 A 
ENDROOT
BRANCH   1   8
ATOM      7  C   UNL     1       2.412   6.770  19.657  0.00  0.00    +0.000 C 
ATOM      8  O   UNL     1       2.232   6.194  18.363  0.00  0.00    +0.000 OA
ENDBRANCH   1   8
BRANCH   4   9
ATOM      9  C   UNL     1       6.962   4.588  15.741  0.00  0.00    +0.000 C 
ATOM     10  O   UNL     1       7.562   5.309  14.951  0.00  0.00    +0.000 OA
ENDBRANCH   4   9
BRANCH   6  11
ATOM     11  C   UNL     1       2.443   3.465  17.596  0.00  0.00    +0.000 C 
BRANCH  11  12
ATOM     12  N   UNL     1       2.317   3.170  19.015  0.00  0.00    +0.000 N 
ATOM     13  C   UNL     1       3.341   2.945  19.896  0.00  0.00    +0.000 A 
ATOM     14  C   UNL     1       2.731   2.766  21.116  0.00  0.00    +0.000 A 
ATOM     15  N   UNL     1       1.371   2.911  21.004  0.00  0.00    +0.000 NA
ATOM     16  C   UNL     1       1.155   3.167  19.733  0.00  0.00    +0.000 A 
ENDBRANCH  11  12
ENDBRANCH   6  11
TORSDOF 4
ENDMDL
MODEL 4
REMARK VINA RESULT:      -6.1      2.868      5.170
REMARK  Name = 
REMARK  5 active torsions:
REMARK  status: ('A' for Active; 'I' for Inactive)
REMARK    1  A    between atoms: C_1  and  O_2
REMARK    2  A    between atoms: O_2  and  C_3
REMARK    3  A    between atoms: C_6  and  C_7
REMARK    4  A    between atoms: C_10  and  C_11
REMARK    5  A    between atoms: C_11  and  N_12
REMARK                            x       y       z     vdW  Elec       q    Type
REMARK                         _______ _______ _______ _____ _____    ______ ____
ROOT
ATOM      1  C   UNL     1       2.896   6.397  18.709  0.00  0.00    +0.000 A 
ATOM      2  C   UNL     1       2.150   6.437  19.895  0.00  0.00    +0.000 A 
ATOM      3  C   UNL     1       1.916   5.278  20.632  0.00  0.00    +0.000 A 
ATOM      4  C   UNL     1       2.441   4.065  20.190  0.00  0.00    +0.000 A 
ATOM      5  C   UNL     1       3.220   4.015  19.031  0.00  0.00    +0.000 A 
ATOM      6  C   UNL     1       3.462   5.179  18.277  0.00  0.00    +0.000 A 
ENDROOT
BRANCH   1   8
ATOM      7  C   UNL     1       2.150   8.540  18.012  0.00  0.00    +0.000 C 
ATOM      8  O   UNL     1       3.128   7.501  17.928  0.00  0.00    +0.000 OA
ENDBRANCH   1   8
BRANCH   4   9
ATOM      9  C   UNL     1       2.145   2.845  20.958  0.00  0.00    +0.000 C 
ATOM     10  O   UNL     1       2.700   2.600  22.023  0.00  0.00    +0.000 OA
ENDBRANCH   4   9
BRANCH   6  11
ATOM     11  C   UNL     1       4.305   5.078  17.024  0.00  0.00    +0.000 C 
BRANCH  11  12
ATOM     12  N   UNL     1       5.729   5.019  17.317  0.00  0.00    +0.000 N 
ATOM     13  C   UNL     1       6.357   5.530  18.421  0.00  0.00    +0.000 A 
ATOM     14  C   UNL     1       7.680   5.182  18.275  0.00  0.00    +0.000 A 
ATOM     15  N   UNL     1       7.864   4.446  17.131  0.00  0.00    +0.000 NA
ATOM     16  C   UNL     1       6.671   4.353  16.585  0.00  0.00    +0.000 A 
ENDBRANCH  11  12
ENDBRANCH   6  11
TORSDOF 4
ENDMDL
MODEL 5
REMARK VINA RESULT:      -6.1      1.899      3.678
REMARK  Name = 
REMARK  5 active torsions:
REMARK  status: ('A' for Active; 'I' for Inactive)
REMARK    1  A    between atoms: C_1  and  O_2
REMARK    2  A    between atoms: O_2  and  C_3
REMARK    3  A    between atoms: C_6  and  C_7
REMARK    4  A    between atoms: C_10  and  C_11
REMARK    5  A    between atoms: C_11  and  N_12
REMARK                            x       y       z     vdW  Elec       q    Type
REMARK                         _______ _______ _______ _____ _____    ______ ____
ROOT
ATOM      1  C   UNL     1       4.331   5.680  18.160  0.00  0.00    +0.000 A 
ATOM      2  C   UNL     1       4.591   6.651  17.181  0.00  0.00    +0.000 A 
ATOM      3  C   UNL     1       5.194   6.305  15.974  0.00  0.00    +0.000 A 
ATOM      4  C   UNL     1       5.532   4.976  15.731  0.00  0.00    +0.000 A 
ATOM      5  C   UNL     1       5.244   3.990  16.678  0.00  0.00    +0.000 A 
ATOM      6  C   UNL     1       4.637   4.327  17.904  0.00  0.00    +0.000 A 
ENDROOT
BRANCH   1   8
ATOM      7  C   UNL     1       2.552   6.715  19.342  0.00  0.00    +0.000 C 
ATOM      8  O   UNL     1       3.771   5.971  19.378  0.00  0.00    +0.000 OA
ENDBRANCH   1   8
BRANCH   4   9
ATOM      9  C   UNL     1       6.209   4.638  14.468  0.00  0.00    +0.000 C 
ATOM     10  O   UNL     1       7.177   5.272  14.062  0.00  0.00    +0.000 OA
ENDBRANCH   4   9
BRANCH   6  11
ATOM     11  C   UNL     1       4.349   3.229  18.905  0.00  0.00    +0.000 C 
BRANCH  11  12
ATOM     12  N   UNL     1       2.927   2.945  19.023  0.00  0.00    +0.000 N 
ATOM     13  C   UNL     1       2.176   3.000  20.166  0.00  0.00    +0.000 A 
ATOM     14  C   UNL     1       0.893   2.704  19.767  0.00  0.00    +0.000 A 
ATOM     15  N   UNL     1       0.842   2.504  18.410  0.00  0.00    +0.000 NA
ATOM     16  C   UNL     1       2.076   2.670  17.990  0.00  0.00    +0.000 A 
ENDBRANCH  11  12
ENDBRANCH   6  11
TORSDOF 4
ENDMDL
MODEL 6
REMARK VINA RESULT:      -6.1      2.623      4.007
REMARK  Name = 
REMARK  5 active torsions:
REMARK  status: ('A' for Active; 'I' for Inactive)
REMARK    1  A    between atoms: C_1  and  O_2
REMARK    2  A    between atoms: O_2  and  C_3
REMARK    3  A    between atoms: C_6  and  C_7
REMARK    4  A    between atoms: C_10  and  C_11
REMARK    5  A    between atoms: C_11  and  N_12
REMARK                            x       y       z     vdW  Elec       q    Type
REMARK                         _______ _______ _______ _____ _____    ______ ____
ROOT
ATOM      1  C   UNL     1       6.368   4.790  18.019  0.00  0.00    +0.000 A 
ATOM      2  C   UNL     1       7.397   4.564  17.094  0.00  0.00    +0.000 A 
ATOM      3  C   UNL     1       7.113   4.339  15.749  0.00  0.00    +0.000 A 
ATOM      4  C   UNL     1       5.789   4.351  15.316  0.00  0.00    +0.000 A 
ATOM      5  C   UNL     1       4.754   4.615  16.217  0.00  0.00    +0.000 A 
ATOM      6  C   UNL     1       5.029   4.841  17.580  0.00  0.00    +0.000 A 
ENDROOT
BRANCH   1   8
ATOM      7  C   UNL     1       7.783   5.692  19.698  0.00  0.00    +0.000 C 
ATOM      8  O   UNL     1       6.590   4.983  19.360  0.00  0.00    +0.000 OA
ENDBRANCH   1   8
BRANCH   4   9
ATOM      9  C   UNL     1       5.506   4.067  13.899  0.00  0.00    +0.000 C 
ATOM     10  O   UNL     1       6.375   3.672  13.132  0.00  0.00    +0.000 OA
ENDBRANCH   4   9
BRANCH   6  11
ATOM     11  C   UNL     1       3.877   5.115  18.523  0.00  0.00    +0.000 C 
BRANCH  11  12
ATOM     12  N   UNL     1       2.982   3.975  18.652  0.00  0.00    +0.000 N 
ATOM     13  C   UNL     1       1.681   3.907  18.232  0.00  0.00    +0.000 A 
ATOM     14  C   UNL     1       1.277   2.624  18.523  0.00  0.00    +0.000 A 
ATOM     15  N   UNL     1       2.307   1.906  19.075  0.00  0.00    +0.000 NA
ATOM     16  C   UNL     1       3.322   2.740  19.127  0.00  0.00    +0.000 A 
ENDBRANCH  11  12
ENDBRANCH   6  11
TORSDOF 4
ENDMDL
MODEL 7
REMARK VINA RESULT:      -6.0      2.669      5.000
REMARK  Name = 
REMARK  5 active torsions:
REMARK  status: ('A' for Active; 'I' for Inactive)
REMARK    1  A    between atoms: C_1  and  O_2
REMARK    2  A    between atoms: O_2  and  C_3
REMARK    3  A    between atoms: C_6  and  C_7
REMARK    4  A    between atoms: C_10  and  C_11
REMARK    5  A    between atoms: C_11  and  N_12
REMARK                            x       y       z     vdW  Elec       q    Type
REMARK                         _______ _______ _______ _____ _____    ______ ____
ROOT
ATOM      1  C   UNL     1       2.764   6.179  18.769  0.00  0.00    +0.000 A 
ATOM      2  C   UNL     1       2.059   6.476  19.944  0.00  0.00    +0.000 A 
ATOM      3  C   UNL     1       1.646   5.462  20.806  0.00  0.00    +0.000 A 
ATOM      4  C   UNL     1       1.949   4.137  20.502  0.00  0.00    +0.000 A 
ATOM      5  C   UNL     1       2.687   3.827  19.356  0.00  0.00    +0.000 A 
ATOM      6  C   UNL     1       3.107   4.843  18.475  0.00  0.00    +0.000 A 
ENDROOT
BRANCH   1   8
ATOM      7  C   UNL     1       2.530   8.410  17.993  0.00  0.00    +0.000 C 
ATOM      8  O   UNL     1       3.163   7.136  17.870  0.00  0.00    +0.000 OA
ENDBRANCH   1   8
BRANCH   4   9
ATOM      9  C   UNL     1       1.467   3.076  21.401  0.00  0.00    +0.000 C 
ATOM     10  O   UNL     1       2.237   2.361  22.031  0.00  0.00    +0.000 OA
ENDBRANCH   4   9
BRANCH   6  11
ATOM     11  C   UNL     1       3.897   4.463  17.242  0.00  0.00    +0.000 C 
BRANCH  11  12
ATOM     12  N   UNL     1       5.334   4.514  17.465  0.00  0.00    +0.000 N 
ATOM     13  C   UNL     1       6.313   4.323  16.528  0.00  0.00    +0.000 A 
ATOM     14  C   UNL     1       7.496   4.522  17.200  0.00  0.00    +0.000 A 
ATOM     15  N   UNL     1       7.259   4.861  18.509  0.00  0.00    +0.000 NA
ATOM     16  C   UNL     1       5.951   4.862  18.633  0.00  0.00    +0.000 A 
ENDBRANCH  11  12
ENDBRANCH   6  11
TORSDOF 4
ENDMDL
MODEL 8
REMARK VINA RESULT:      -6.0      2.524      4.271
REMARK  Name = 
REMARK  5 active torsions:
REMARK  status: ('A' for Active; 'I' for Inactive)
REMARK    1  A    between atoms: C_1  and  O_2
REMARK    2  A    between atoms: O_2  and  C_3
REMARK    3  A    between atoms: C_6  and  C_7
REMARK    4  A    between atoms: C_10  and  C_11
REMARK    5  A    between atoms: C_11  and  N_12
REMARK                            x       y       z     vdW  Elec       q    Type
REMARK                         _______ _______ _______ _____ _____    ______ ____
ROOT
ATOM      1  C   UNL     1       2.975   4.538  19.652  0.00  0.00    +0.000 A 
ATOM      2  C   UNL     1       2.269   5.416  20.487  0.00  0.00    +0.000 A 
ATOM      3  C   UNL     1       1.970   6.712  20.071  0.00  0.00    +0.000 A 
ATOM      4  C   UNL     1       2.367   7.136  18.806  0.00  0.00    +0.000 A 
ATOM      5  C   UNL     1       3.036   6.260  17.945  0.00  0.00    +0.000 A 
ATOM      6  C   UNL     1       3.346   4.948  18.355  0.00  0.00    +0.000 A 
ENDROOT
BRANCH   1   8
ATOM      7  C   UNL     1       2.656   2.745  21.175  0.00  0.00    +0.000 C 
ATOM      8  O   UNL     1       3.325   3.264  20.024  0.00  0.00    +0.000 OA
ENDBRANCH   1   8
BRANCH   4   9
ATOM      9  C   UNL     1       2.082   8.522  18.402  0.00  0.00    +0.000 C 
ATOM     10  O   UNL     1       2.311   8.927  17.268  0.00  0.00    +0.000 OA
ENDBRANCH   4   9
BRANCH   6  11
ATOM     11  C   UNL     1       4.078   4.036  17.394  0.00  0.00    +0.000 C 
BRANCH  11  12
ATOM     12  N   UNL     1       5.496   4.347  17.306  0.00  0.00    +0.000 N 
ATOM     13  C   UNL     1       6.337   4.630  18.349  0.00  0.00    +0.000 A 
ATOM     14  C   UNL     1       7.575   4.802  17.774  0.00  0.00    +0.000 A 
ATOM     15  N   UNL     1       7.513   4.597  16.419  0.00  0.00    +0.000 NA
ATOM     16  C   UNL     1       6.254   4.312  16.170  0.00  0.00    +0.000 A 
ENDBRANCH  11  12
ENDBRANCH   6  11
TORSDOF 4
ENDMDL
MODEL 9
REMARK VINA RESULT:      -6.0      1.830      3.663
REMARK  Name = 
REMARK  5 active torsions:
REMARK  status: ('A' for Active; 'I' for Inactive)
REMARK    1  A    between atoms: C_1  and  O_2
REMARK    2  A    between atoms: O_2  and  C_3
REMARK    3  A    between atoms: C_6  and  C_7
REMARK    4  A    between atoms: C_10  and  C_11
REMARK    5  A    between atoms: C_11  and  N_12
REMARK                            x       y       z     vdW  Elec       q    Type
REMARK                         _______ _______ _______ _____ _____    ______ ____
ROOT
ATOM      1  C   UNL     1       4.366   5.692  18.085  0.00  0.00    +0.000 A 
ATOM      2  C   UNL     1       4.615   6.618  17.061  0.00  0.00    +0.000 A 
ATOM      3  C   UNL     1       5.188   6.215  15.856  0.00  0.00    +0.000 A 
ATOM      4  C   UNL     1       5.505   4.873  15.662  0.00  0.00    +0.000 A 
ATOM      5  C   UNL     1       5.226   3.931  16.656  0.00  0.00    +0.000 A 
ATOM      6  C   UNL     1       4.650   4.326  17.879  0.00  0.00    +0.000 A 
ENDROOT
BRANCH   1   8
ATOM      7  C   UNL     1       2.552   6.665  19.266  0.00  0.00    +0.000 C 
ATOM      8  O   UNL     1       3.836   6.041  19.302  0.00  0.00    +0.000 OA
ENDBRANCH   1   8
BRANCH   4   9
ATOM      9  C   UNL     1       6.150   4.474  14.401  0.00  0.00    +0.000 C 
ATOM     10  O   UNL     1       5.531   3.907  13.508  0.00  0.00    +0.000 OA
ENDBRANCH   4   9
BRANCH   6  11
ATOM     11  C   UNL     1       4.371   3.274  18.931  0.00  0.00    +0.000 C 
BRANCH  11  12
ATOM     12  N   UNL     1       2.948   3.022  19.100  0.00  0.00    +0.000 N 
ATOM     13  C   UNL     1       2.069   2.621  18.130  0.00  0.00    +0.000 A 
ATOM     14  C   UNL     1       0.866   2.467  18.779  0.00  0.00    +0.000 A 
ATOM     15  N   UNL     1       1.000   2.730  20.119  0.00  0.00    +0.000 NA
ATOM     16  C   UNL     1       2.265   3.047  20.283  0.00  0.00    +0.000 A 
ENDBRANCH  11  12
ENDBRANCH   6  11
TORSDOF 4
ENDMDL
