MODEL 1
REMARK VINA RESULT:      -8.3      0.000      0.000
REMARK  Name = 
REMARK  5 active torsions:
REMARK  status: ('A' for Active; 'I' for Inactive)
REMARK    1  A    between atoms: C_1  and  C_2
REMARK    2  A    between atoms: C_4  and  C_5
REMARK    3  A    between atoms: C_7  and  N_8
REMARK    4  A    between atoms: C_9  and  C_11
REMARK    5  A    between atoms: C_20  and  C_21
REMARK                            x       y       z     vdW  Elec       q    Type
REMARK                         _______ _______ _______ _____ _____    ______ ____
ROOT
ATOM      1  N   UNL     1      -0.732  11.745  18.931  0.00  0.00    +0.000 N 
ATOM      2  C   UNL     1      -0.124  13.001  19.050  0.00  0.00    +0.000 C 
ATOM      3  O   UNL     1      -0.726  14.070  18.902  0.00  0.00    +0.000 OA
ATOM      4  C   UNL     1      -0.057  10.642  19.416  0.00  0.00    +0.000 A 
ATOM      5  N   UNL     1       0.821   9.915  18.768  0.00  0.00    +0.000 NA
ATOM      6  C   UNL     1       1.239   8.867  19.577  0.00  0.00    +0.000 A 
ATOM      7  C   UNL     1       0.700   8.869  20.852  0.00  0.00    +0.000 A 
ATOM      8  S   UNL     1      -0.348  10.214  21.051  0.00  0.00    +0.000 S 
ENDROOT
BRANCH   1  15
ATOM      9  C   UNL     1      -3.145  10.237  14.777  0.00  0.00    +0.000 C 
ATOM     10  C   UNL     1      -3.172  10.824  16.160  0.00  0.00    +0.000 A 
ATOM     11  C   UNL     1      -4.381  11.206  16.740  0.00  0.00    +0.000 A 
ATOM     12  C   UNL     1      -4.411  11.673  18.054  0.00  0.00    +0.000 A 
ATOM     13  C   UNL     1      -5.691  12.164  18.664  0.00  0.00    +0.000 C 
ATOM     14  C   UNL     1      -3.215  11.762  18.790  0.00  0.00    +0.000 A 
ATOM     15  C   UNL     1      -1.966  11.479  18.218  0.00  0.00    +0.000 A 
ATOM     16  C   UNL     1      -1.979  10.993  16.889  0.00  0.00    +0.000 A 
ENDBRANCH   1  15
BRANCH   2  17
ATOM     17  C   UNL     1       1.395  13.067  19.302  0.00  0.00    +0.000 C 
ATOM     18  C   UNL     1       2.111  13.524  18.018  0.00  0.00    +0.000 C 
ATOM     19  C   UNL     1       3.540  13.850  18.423  0.00  0.00    +0.000 C 
ATOM     20  S   UNL     1       3.381  14.711  19.973  0.00  0.00    +0.000 S 
ATOM     21  O   UNL     1       3.295  16.130  19.703  0.00  0.00    +0.000 OA
ATOM     22  O   UNL     1       4.341  14.157  20.905  0.00  0.00    +0.000 OA
ATOM     23  C   UNL     1       1.754  14.099  20.384  0.00  0.00    +0.000 C 
ENDBRANCH   2  17
BRANCH   6  24
ATOM     24  C   UNL     1       2.198   7.876  19.102  0.00  0.00    +0.000 A 
ATOM     25  C   UNL     1       2.878   8.092  17.892  0.00  0.00    +0.000 A 
ATOM     26  C   UNL     1       3.820   7.167  17.430  0.00  0.00    +0.000 A 
ATOM     27  C   UNL     1       4.076   6.021  18.173  0.00  0.00    +0.000 A 
ATOM     28  F   UNL     1       4.981   5.137  17.731  0.00  0.00    +0.000 F 
ATOM     29  C   UNL     1       3.400   5.777  19.360  0.00  0.00    +0.000 A 
ATOM     30  C   UNL     1       2.459   6.700  19.826  0.00  0.00    +0.000 A 
ENDBRANCH   6  24
TORSDOF 3
ENDMDL
MODEL 2
REMARK VINA RESULT:      -8.2      0.227      1.581
REMARK  Name = 
REMARK  5 active torsions:
REMARK  status: ('A' for Active; 'I' for Inactive)
REMARK    1  A    between atoms: C_1  and  C_2
REMARK    2  A    between atoms: C_4  and  C_5
REMARK    3  A    between atoms: C_7  and  N_8
REMARK    4  A    between atoms: C_9  and  C_11
REMARK    5  A    between atoms: C_20  and  C_21
REMARK                            x       y       z     vdW  Elec       q    Type
REMARK                         _______ _______ _______ _____ _____    ______ ____
ROOT
ATOM      1  N   UNL     1      -0.726  11.978  19.002  0.00  0.00    +0.000 N 
ATOM      2  C   UNL     1      -0.079  13.214  19.120  0.00  0.00    +0.000 C 
ATOM      3  O   UNL     1      -0.646  14.302  18.976  0.00  0.00    +0.000 OA
ATOM      4  C   UNL     1      -0.084  10.854  19.482  0.00  0.00    +0.000 A 
ATOM      5  N   UNL     1       0.768  10.100  18.829  0.00  0.00    +0.000 NA
ATOM      6  C   UNL     1       1.156   9.038  19.635  0.00  0.00    +0.000 A 
ATOM      7  C   UNL     1       0.623   9.056  20.913  0.00  0.00    +0.000 A 
ATOM      8  S   UNL     1      -0.380  10.433  21.118  0.00  0.00    +0.000 S 
ENDROOT
BRANCH   1  15
ATOM      9  C   UNL     1      -5.757  11.793  18.952  0.00  0.00    +0.000 C 
ATOM     10  C   UNL     1      -4.438  11.572  18.268  0.00  0.00    +0.000 A 
ATOM     11  C   UNL     1      -4.392  11.059  16.973  0.00  0.00    +0.000 A 
ATOM     12  C   UNL     1      -3.171  10.933  16.311  0.00  0.00    +0.000 A 
ATOM     13  C   UNL     1      -3.098  10.307  14.949  0.00  0.00    +0.000 C 
ATOM     14  C   UNL     1      -1.984  11.321  16.959  0.00  0.00    +0.000 A 
ATOM     15  C   UNL     1      -1.971  11.753  18.294  0.00  0.00    +0.000 A 
ATOM     16  C   UNL     1      -3.231  11.882  18.924  0.00  0.00    +0.000 A 
ENDBRANCH   1  15
BRANCH   2  17
ATOM     17  C   UNL     1       1.443  13.232  19.365  0.00  0.00    +0.000 C 
ATOM     18  C   UNL     1       2.166  13.699  18.088  0.00  0.00    +0.000 C 
ATOM     19  C   UNL     1       3.606  13.975  18.492  0.00  0.00    +0.000 C 
ATOM     20  S   UNL     1       3.477  14.804  20.062  0.00  0.00    +0.000 S 
ATOM     21  O   UNL     1       3.431  16.230  19.827  0.00  0.00    +0.000 OA
ATOM     22  O   UNL     1       4.426  14.202  20.976  0.00  0.00    +0.000 OA
ATOM     23  C   UNL     1       1.836  14.228  20.468  0.00  0.00    +0.000 C 
ENDBRANCH   2  17
BRANCH   6  24
ATOM     24  C   UNL     1       2.082   8.018  19.154  0.00  0.00    +0.000 A 
ATOM     25  C   UNL     1       2.765   8.216  17.943  0.00  0.00    +0.000 A 
ATOM     26  C   UNL     1       3.675   7.264  17.475  0.00  0.00    +0.000 A 
ATOM     27  C   UNL     1       3.896   6.107  18.214  0.00  0.00    +0.000 A 
ATOM     28  F   UNL     1       4.771   5.195  17.766  0.00  0.00    +0.000 F 
ATOM     29  C   UNL     1       3.215   5.881  19.402  0.00  0.00    +0.000 A 
ATOM     30  C   UNL     1       2.306   6.832  19.873  0.00  0.00    +0.000 A 
ENDBRANCH   6  24
TORSDOF 3
ENDMDL
MODEL 3
REMARK VINA RESULT:      -7.6      0.923      2.104
REMARK  Name = 
REMARK  5 active torsions:
REMARK  status: ('A' for Active; 'I' for Inactive)
REMARK    1  A    between atoms: C_1  and  C_2
REMARK    2  A    between atoms: C_4  and  C_5
REMARK    3  A    between atoms: C_7  and  N_8
REMARK    4  A    between atoms: C_9  and  C_11
REMARK    5  A    between atoms: C_20  and  C_21
REMARK                            x       y       z     vdW  Elec       q    Type
REMARK                         _______ _______ _______ _____ _____    ______ ____
ROOT
ATOM      1  N   UNL     1      -0.968  12.410  19.790  0.00  0.00    +0.000 N 
ATOM      2  C   UNL     1      -0.258  13.616  19.805  0.00  0.00    +0.000 C 
ATOM      3  O   UNL     1      -0.792  14.728  19.729  0.00  0.00    +0.000 OA
ATOM      4  C   UNL     1      -0.314  11.261  20.190  0.00  0.00    +0.000 A 
ATOM      5  N   UNL     1       0.405  10.467  19.433  0.00  0.00    +0.000 NA
ATOM      6  C   UNL     1       0.855   9.393  20.189  0.00  0.00    +0.000 A 
ATOM      7  C   UNL     1       0.505   9.440  21.528  0.00  0.00    +0.000 A 
ATOM      8  S   UNL     1      -0.400  10.861  21.855  0.00  0.00    +0.000 S 
ENDROOT
BRANCH   1  15
ATOM      9  C   UNL     1      -5.962  12.509  20.420  0.00  0.00    +0.000 C 
ATOM     10  C   UNL     1      -4.761  12.196  19.574  0.00  0.00    +0.000 A 
ATOM     11  C   UNL     1      -4.919  11.646  18.303  0.00  0.00    +0.000 A 
ATOM     12  C   UNL     1      -3.806  11.433  17.489  0.00  0.00    +0.000 A 
ATOM     13  C   UNL     1      -3.951  10.768  16.151  0.00  0.00    +0.000 C 
ATOM     14  C   UNL     1      -2.523  11.770  17.958  0.00  0.00    +0.000 A 
ATOM     15  C   UNL     1      -2.307  12.236  19.263  0.00  0.00    +0.000 A 
ATOM     16  C   UNL     1      -3.462  12.454  20.052  0.00  0.00    +0.000 A 
ENDBRANCH   1  15
BRANCH   2  17
ATOM     17  C   UNL     1       1.282  13.568  19.837  0.00  0.00    +0.000 C 
ATOM     18  C   UNL     1       1.833  13.694  18.405  0.00  0.00    +0.000 C 
ATOM     19  C   UNL     1       3.328  13.938  18.544  0.00  0.00    +0.000 C 
ATOM     20  S   UNL     1       3.468  15.090  19.894  0.00  0.00    +0.000 S 
ATOM     21  O   UNL     1       3.454  16.433  19.356  0.00  0.00    +0.000 OA
ATOM     22  O   UNL     1       4.511  14.625  20.786  0.00  0.00    +0.000 OA
ATOM     23  C   UNL     1       1.878  14.744  20.630  0.00  0.00    +0.000 C 
ENDBRANCH   2  17
BRANCH   6  24
ATOM     24  C   UNL     1       1.660   8.331  19.596  0.00  0.00    +0.000 A 
ATOM     25  C   UNL     1       1.874   7.141  20.309  0.00  0.00    +0.000 A 
ATOM     26  C   UNL     1       2.621   6.100  19.750  0.00  0.00    +0.000 A 
ATOM     27  C   UNL     1       3.164   6.252  18.479  0.00  0.00    +0.000 A 
ATOM     28  F   UNL     1       3.879   5.252  17.943  0.00  0.00    +0.000 F 
ATOM     29  C   UNL     1       2.984   7.428  17.766  0.00  0.00    +0.000 A 
ATOM     30  C   UNL     1       2.236   8.470  18.321  0.00  0.00    +0.000 A 
ENDBRANCH   6  24
TORSDOF 3
ENDMDL
MODEL 4
REMARK VINA RESULT:      -7.4      2.056      3.187
REMARK  Name = 
REMARK  5 active torsions:
REMARK  status: ('A' for Active; 'I' for Inactive)
REMARK    1  A    between atoms: C_1  and  C_2
REMARK    2  A    between atoms: C_4  and  C_5
REMARK    3  A    between atoms: C_7  and  N_8
REMARK    4  A    between atoms: C_9  and  C_11
REMARK    5  A    between atoms: C_20  and  C_21
REMARK                            x       y       z     vdW  Elec       q    Type
REMARK                         _______ _______ _______ _____ _____    ______ ____
ROOT
ATOM      1  N   UNL     1      -2.218  13.099  20.816  0.00  0.00    +0.000 N 
ATOM      2  C   UNL     1      -1.678  14.388  20.737  0.00  0.00    +0.000 C 
ATOM      3  O   UNL     1      -2.355  15.420  20.805  0.00  0.00    +0.000 OA
ATOM      4  C   UNL     1      -1.359  12.042  21.042  0.00  0.00    +0.000 A 
ATOM      5  N   UNL     1      -0.705  11.357  20.134  0.00  0.00    +0.000 NA
ATOM      6  C   UNL     1       0.017  10.344  20.751  0.00  0.00    +0.000 A 
ATOM      7  C   UNL     1      -0.069  10.331  22.133  0.00  0.00    +0.000 A 
ATOM      8  S   UNL     1      -1.066  11.617  22.677  0.00  0.00    +0.000 S 
ENDROOT
BRANCH   1  15
ATOM      9  C   UNL     1      -6.971  12.560  22.388  0.00  0.00    +0.000 C 
ATOM     10  C   UNL     1      -5.925  12.402  21.322  0.00  0.00    +0.000 A 
ATOM     11  C   UNL     1      -6.253  11.835  20.091  0.00  0.00    +0.000 A 
ATOM     12  C   UNL     1      -5.300  11.765  19.075  0.00  0.00    +0.000 A 
ATOM     13  C   UNL     1      -5.615  11.086  17.774  0.00  0.00    +0.000 C 
ATOM     14  C   UNL     1      -4.004  12.264  19.299  0.00  0.00    +0.000 A 
ATOM     15  C   UNL     1      -3.602  12.755  20.550  0.00  0.00    +0.000 A 
ATOM     16  C   UNL     1      -4.601  12.824  21.549  0.00  0.00    +0.000 A 
ENDBRANCH   1  15
BRANCH   2  17
ATOM     17  C   UNL     1      -0.168  14.543  20.471  0.00  0.00    +0.000 C 
ATOM     18  C   UNL     1       0.073  14.747  18.965  0.00  0.00    +0.000 C 
ATOM     19  C   UNL     1       1.522  15.186  18.822  0.00  0.00    +0.000 C 
ATOM     20  S   UNL     1       1.773  16.340  20.154  0.00  0.00    +0.000 S 
ATOM     21  O   UNL     1       1.483  17.671  19.669  0.00  0.00    +0.000 OA
ATOM     22  O   UNL     1       3.020  16.012  20.814  0.00  0.00    +0.000 OA
ATOM     23  C   UNL     1       0.414  15.783  21.170  0.00  0.00    +0.000 C 
ENDBRANCH   2  17
BRANCH   6  24
ATOM     24  C   UNL     1       0.820   9.404  19.977  0.00  0.00    +0.000 A 
ATOM     25  C   UNL     1       1.019   9.625  18.605  0.00  0.00    +0.000 A 
ATOM     26  C   UNL     1       1.805   8.750  17.849  0.00  0.00    +0.000 A 
ATOM     27  C   UNL     1       2.386   7.647  18.464  0.00  0.00    +0.000 A 
ATOM     28  F   UNL     1       3.142   6.810  17.739  0.00  0.00    +0.000 F 
ATOM     29  C   UNL     1       2.184   7.397  19.813  0.00  0.00    +0.000 A 
ATOM     30  C   UNL     1       1.400   8.270  20.572  0.00  0.00    +0.000 A 
ENDBRANCH   6  24
TORSDOF 3
ENDMDL
MODEL 5
REMARK VINA RESULT:      -7.3      1.164      1.484
REMARK  Name = 
REMARK  5 active torsions:
REMARK  status: ('A' for Active; 'I' for Inactive)
REMARK    1  A    between atoms: C_1  and  C_2
REMARK    2  A    between atoms: C_4  and  C_5
REMARK    3  A    between atoms: C_7  and  N_8
REMARK    4  A    between atoms: C_9  and  C_11
REMARK    5  A    between atoms: C_20  and  C_21
REMARK                            x       y       z     vdW  Elec       q    Type
REMARK                         _______ _______ _______ _____ _____    ______ ____
ROOT
ATOM      1  N   UNL     1      -1.181  12.464  20.109  0.00  0.00    +0.000 N 
ATOM      2  C   UNL     1      -0.518  13.696  20.124  0.00  0.00    +0.000 C 
ATOM      3  O   UNL     1      -1.098  14.788  20.118  0.00  0.00    +0.000 OA
ATOM      4  C   UNL     1      -0.463  11.329  20.430  0.00  0.00    +0.000 A 
ATOM      5  N   UNL     1       0.241  10.589  19.606  0.00  0.00    +0.000 NA
ATOM      6  C   UNL     1       0.775   9.510  20.297  0.00  0.00    +0.000 A 
ATOM      7  C   UNL     1       0.503   9.500  21.655  0.00  0.00    +0.000 A 
ATOM      8  S   UNL     1      -0.434  10.873  22.083  0.00  0.00    +0.000 S 
ENDROOT
BRANCH   1  15
ATOM      9  C   UNL     1      -4.430  11.079  16.520  0.00  0.00    +0.000 C 
ATOM     10  C   UNL     1      -4.158  11.660  17.879  0.00  0.00    +0.000 A 
ATOM     11  C   UNL     1      -5.211  12.091  18.684  0.00  0.00    +0.000 A 
ATOM     12  C   UNL     1      -4.961  12.553  19.976  0.00  0.00    +0.000 A 
ATOM     13  C   UNL     1      -6.073  13.095  20.825  0.00  0.00    +0.000 C 
ATOM     14  C   UNL     1      -3.641  12.587  20.462  0.00  0.00    +0.000 A 
ATOM     15  C   UNL     1      -2.542  12.254  19.655  0.00  0.00    +0.000 A 
ATOM     16  C   UNL     1      -2.838  11.775  18.356  0.00  0.00    +0.000 A 
ENDBRANCH   1  15
BRANCH   2  17
ATOM     17  C   UNL     1       1.022  13.708  20.065  0.00  0.00    +0.000 C 
ATOM     18  C   UNL     1       1.488  14.598  18.899  0.00  0.00    +0.000 C 
ATOM     19  C   UNL     1       2.983  14.799  19.087  0.00  0.00    +0.000 C 
ATOM     20  S   UNL     1       3.180  15.067  20.836  0.00  0.00    +0.000 S 
ATOM     21  O   UNL     1       3.112  16.489  21.093  0.00  0.00    +0.000 OA
ATOM     22  O   UNL     1       4.280  14.249  21.304  0.00  0.00    +0.000 OA
ATOM     23  C   UNL     1       1.641  14.312  21.337  0.00  0.00    +0.000 C 
ENDBRANCH   2  17
BRANCH   6  24
ATOM     24  C   UNL     1       1.583   8.501  19.623  0.00  0.00    +0.000 A 
ATOM     25  C   UNL     1       2.048   8.740  18.320  0.00  0.00    +0.000 A 
ATOM     26  C   UNL     1       2.845   7.798  17.663  0.00  0.00    +0.000 A 
ATOM     27  C   UNL     1       3.170   6.609  18.307  0.00  0.00    +0.000 A 
ATOM     28  F   UNL     1       3.936   5.706  17.677  0.00  0.00    +0.000 F 
ATOM     29  C   UNL     1       2.703   6.342  19.585  0.00  0.00    +0.000 A 
ATOM     30  C   UNL     1       1.908   7.283  20.245  0.00  0.00    +0.000 A 
ENDBRANCH   6  24
TORSDOF 3
ENDMDL
MODEL 6
REMARK VINA RESULT:      -7.3      1.965      2.761
REMARK  Name = 
REMARK  5 active torsions:
REMARK  status: ('A' for Active; 'I' for Inactive)
REMARK    1  A    between atoms: C_1  and  C_2
REMARK    2  A    between atoms: C_4  and  C_5
REMARK    3  A    between atoms: C_7  and  N_8
REMARK    4  A    between atoms: C_9  and  C_11
REMARK    5  A    between atoms: C_20  and  C_21
REMARK                            x       y       z     vdW  Elec       q    Type
REMARK                         _______ _______ _______ _____ _____    ______ ____
ROOT
ATOM      1  N   UNL     1      -2.066  12.959  20.717  0.00  0.00    +0.000 N 
ATOM      2  C   UNL     1      -1.537  14.250  20.613  0.00  0.00    +0.000 C 
ATOM      3  O   UNL     1      -2.220  15.278  20.673  0.00  0.00    +0.000 OA
ATOM      4  C   UNL     1      -1.197  11.911  20.949  0.00  0.00    +0.000 A 
ATOM      5  N   UNL     1      -0.548  11.218  20.044  0.00  0.00    +0.000 NA
ATOM      6  C   UNL     1       0.188  10.219  20.668  0.00  0.00    +0.000 A 
ATOM      7  C   UNL     1       0.116  10.226  22.051  0.00  0.00    +0.000 A 
ATOM      8  S   UNL     1      -0.885  11.513  22.587  0.00  0.00    +0.000 S 
ENDROOT
BRANCH   1  15
ATOM      9  C   UNL     1      -5.702  11.451  17.576  0.00  0.00    +0.000 C 
ATOM     10  C   UNL     1      -5.268  11.944  18.928  0.00  0.00    +0.000 A 
ATOM     11  C   UNL     1      -6.207  12.153  19.936  0.00  0.00    +0.000 A 
ATOM     12  C   UNL     1      -5.792  12.531  21.213  0.00  0.00    +0.000 A 
ATOM     13  C   UNL     1      -6.795  12.837  22.286  0.00  0.00    +0.000 C 
ATOM     14  C   UNL     1      -4.421  12.707  21.477  0.00  0.00    +0.000 A 
ATOM     15  C   UNL     1      -3.450  12.601  20.470  0.00  0.00    +0.000 A 
ATOM     16  C   UNL     1      -3.909  12.200  19.194  0.00  0.00    +0.000 A 
ENDBRANCH   1  15
BRANCH   2  17
ATOM     17  C   UNL     1      -0.031  14.412  20.329  0.00  0.00    +0.000 C 
ATOM     18  C   UNL     1       0.173  14.895  18.882  0.00  0.00    +0.000 C 
ATOM     19  C   UNL     1       1.631  15.313  18.775  0.00  0.00    +0.000 C 
ATOM     20  S   UNL     1       1.960  16.182  20.293  0.00  0.00    +0.000 S 
ATOM     21  O   UNL     1       1.700  17.590  20.081  0.00  0.00    +0.000 OA
ATOM     22  O   UNL     1       3.213  15.700  20.835  0.00  0.00    +0.000 OA
ATOM     23  C   UNL     1       0.613  15.478  21.231  0.00  0.00    +0.000 C 
ENDBRANCH   2  17
BRANCH   6  24
ATOM     24  C   UNL     1       0.989   9.273  19.899  0.00  0.00    +0.000 A 
ATOM     25  C   UNL     1       1.495   8.123  20.526  0.00  0.00    +0.000 A 
ATOM     26  C   UNL     1       2.245   7.190  19.803  0.00  0.00    +0.000 A 
ATOM     27  C   UNL     1       2.497   7.411  18.453  0.00  0.00    +0.000 A 
ATOM     28  F   UNL     1       3.213   6.515  17.760  0.00  0.00    +0.000 F 
ATOM     29  C   UNL     1       2.025   8.552  17.820  0.00  0.00    +0.000 A 
ATOM     30  C   UNL     1       1.273   9.486  18.540  0.00  0.00    +0.000 A 
ENDBRANCH   6  24
TORSDOF 3
ENDMDL
MODEL 7
REMARK VINA RESULT:      -7.3      2.302      3.078
REMARK  Name = 
REMARK  5 active torsions:
REMARK  status: ('A' for Active; 'I' for Inactive)
REMARK    1  A    between atoms: C_1  and  C_2
REMARK    2  A    between atoms: C_4  and  C_5
REMARK    3  A    between atoms: C_7  and  N_8
REMARK    4  A    between atoms: C_9  and  C_11
REMARK    5  A    between atoms: C_20  and  C_21
REMARK                            x       y       z     vdW  Elec       q    Type
REMARK                         _______ _______ _______ _____ _____    ______ ____
ROOT
ATOM      1  N   UNL     1      -2.506  13.099  20.917  0.00  0.00    +0.000 N 
ATOM      2  C   UNL     1      -2.032  14.411  20.815  0.00  0.00    +0.000 C 
ATOM      3  O   UNL     1      -2.756  15.410  20.890  0.00  0.00    +0.000 OA
ATOM      4  C   UNL     1      -1.591  12.087  21.133  0.00  0.00    +0.000 A 
ATOM      5  N   UNL     1      -0.925  11.426  20.216  0.00  0.00    +0.000 NA
ATOM      6  C   UNL     1      -0.141  10.456  20.825  0.00  0.00    +0.000 A 
ATOM      7  C   UNL     1      -0.195  10.452  22.209  0.00  0.00    +0.000 A 
ATOM      8  S   UNL     1      -1.242  11.692  22.765  0.00  0.00    +0.000 S 
ENDROOT
BRANCH   1  15
ATOM      9  C   UNL     1      -6.125  11.499  17.803  0.00  0.00    +0.000 C 
ATOM     10  C   UNL     1      -5.690  11.982  19.158  0.00  0.00    +0.000 A 
ATOM     11  C   UNL     1      -6.620  12.126  20.187  0.00  0.00    +0.000 A 
ATOM     12  C   UNL     1      -6.200  12.495  21.465  0.00  0.00    +0.000 A 
ATOM     13  C   UNL     1      -7.197  12.732  22.561  0.00  0.00    +0.000 C 
ATOM     14  C   UNL     1      -4.834  12.725  21.710  0.00  0.00    +0.000 A 
ATOM     15  C   UNL     1      -3.876  12.685  20.686  0.00  0.00    +0.000 A 
ATOM     16  C   UNL     1      -4.339  12.292  19.408  0.00  0.00    +0.000 A 
ENDBRANCH   1  15
BRANCH   2  17
ATOM     17  C   UNL     1      -0.537  14.637  20.514  0.00  0.00    +0.000 C 
ATOM     18  C   UNL     1      -0.348  14.906  19.011  0.00  0.00    +0.000 C 
ATOM     19  C   UNL     1       1.078  15.408  18.844  0.00  0.00    +0.000 C 
ATOM     20  S   UNL     1       1.322  16.522  20.211  0.00  0.00    +0.000 S 
ATOM     21  O   UNL     1       0.965  17.857  19.785  0.00  0.00    +0.000 OA
ATOM     22  O   UNL     1       2.599  16.221  20.825  0.00  0.00    +0.000 OA
ATOM     23  C   UNL     1       0.016  15.874  21.243  0.00  0.00    +0.000 C 
ENDBRANCH   2  17
BRANCH   6  24
ATOM     24  C   UNL     1       0.690   9.548  20.041  0.00  0.00    +0.000 A 
ATOM     25  C   UNL     1       0.915   9.812  18.681  0.00  0.00    +0.000 A 
ATOM     26  C   UNL     1       1.727   8.970  17.916  0.00  0.00    +0.000 A 
ATOM     27  C   UNL     1       2.309   7.855  18.511  0.00  0.00    +0.000 A 
ATOM     28  F   UNL     1       3.090   7.049  17.778  0.00  0.00    +0.000 F 
ATOM     29  C   UNL     1       2.081   7.563  19.848  0.00  0.00    +0.000 A 
ATOM     30  C   UNL     1       1.271   8.404  20.615  0.00  0.00    +0.000 A 
ENDBRANCH   6  24
TORSDOF 3
ENDMDL
MODEL 8
REMARK VINA RESULT:      -7.1      2.576      3.700
REMARK  Name = 
REMARK  5 active torsions:
REMARK  status: ('A' for Active; 'I' for Inactive)
REMARK    1  A    between atoms: C_1  and  C_2
REMARK    2  A    between atoms: C_4  and  C_5
REMARK    3  A    between atoms: C_7  and  N_8
REMARK    4  A    between atoms: C_9  and  C_11
REMARK    5  A    between atoms: C_20  and  C_21
REMARK                            x       y       z     vdW  Elec       q    Type
REMARK                         _______ _______ _______ _____ _____    ______ ____
ROOT
ATOM      1  N   UNL     1      -2.634  13.115  21.326  0.00  0.00    +0.000 N 
ATOM      2  C   UNL     1      -2.118  14.410  21.449  0.00  0.00    +0.000 C 
ATOM      3  O   UNL     1      -2.818  15.415  21.616  0.00  0.00    +0.000 OA
ATOM      4  C   UNL     1      -1.766  12.049  21.456  0.00  0.00    +0.000 A 
ATOM      5  N   UNL     1      -1.051  11.501  20.502  0.00  0.00    +0.000 NA
ATOM      6  C   UNL     1      -0.341  10.425  21.018  0.00  0.00    +0.000 A 
ATOM      7  C   UNL     1      -0.499  10.226  22.379  0.00  0.00    +0.000 A 
ATOM      8  S   UNL     1      -1.550  11.414  23.034  0.00  0.00    +0.000 S 
ENDROOT
BRANCH   1  15
ATOM      9  C   UNL     1      -7.469  12.403  22.538  0.00  0.00    +0.000 C 
ATOM     10  C   UNL     1      -6.357  12.353  21.529  0.00  0.00    +0.000 A 
ATOM     11  C   UNL     1      -6.602  11.905  20.232  0.00  0.00    +0.000 A 
ATOM     12  C   UNL     1      -5.587  11.938  19.275  0.00  0.00    +0.000 A 
ATOM     13  C   UNL     1      -5.812  11.384  17.899  0.00  0.00    +0.000 C 
ATOM     14  C   UNL     1      -4.313  12.420  19.627  0.00  0.00    +0.000 A 
ATOM     15  C   UNL     1      -3.994  12.791  20.942  0.00  0.00    +0.000 A 
ATOM     16  C   UNL     1      -5.055  12.759  21.878  0.00  0.00    +0.000 A 
ENDBRANCH   1  15
BRANCH   2  17
ATOM     17  C   UNL     1      -0.600  14.620  21.288  0.00  0.00    +0.000 C 
ATOM     18  C   UNL     1      -0.339  15.826  20.367  0.00  0.00    +0.000 C 
ATOM     19  C   UNL     1       1.141  16.149  20.498  0.00  0.00    +0.000 C 
ATOM     20  S   UNL     1       1.481  15.986  22.238  0.00  0.00    +0.000 S 
ATOM     21  O   UNL     1       1.301  17.278  22.864  0.00  0.00    +0.000 OA
ATOM     22  O   UNL     1       2.696  15.213  22.396  0.00  0.00    +0.000 OA
ATOM     23  C   UNL     1       0.080  14.951  22.628  0.00  0.00    +0.000 C 
ENDBRANCH   2  17
BRANCH   6  24
ATOM     24  C   UNL     1       0.520   9.607  20.171  0.00  0.00    +0.000 A 
ATOM     25  C   UNL     1       0.657   9.923  18.810  0.00  0.00    +0.000 A 
ATOM     26  C   UNL     1       1.497   9.168  17.985  0.00  0.00    +0.000 A 
ATOM     27  C   UNL     1       2.194   8.090  18.520  0.00  0.00    +0.000 A 
ATOM     28  F   UNL     1       3.000   7.368  17.729  0.00  0.00    +0.000 F 
ATOM     29  C   UNL     1       2.055   7.747  19.857  0.00  0.00    +0.000 A 
ATOM     30  C   UNL     1       1.218   8.501  20.685  0.00  0.00    +0.000 A 
ENDBRANCH   6  24
TORSDOF 3
ENDMDL
MODEL 9
REMARK VINA RESULT:      -7.0      3.857      6.018
REMARK  Name = 
REMARK  5 active torsions:
REMARK  status: ('A' for Active; 'I' for Inactive)
REMARK    1  A    between atoms: C_1  and  C_2
REMARK    2  A    between atoms: C_4  and  C_5
REMARK    3  A    between atoms: C_7  and  N_8
REMARK    4  A    between atoms: C_9  and  C_11
REMARK    5  A    between atoms: C_20  and  C_21
REMARK                            x       y       z     vdW  Elec       q    Type
REMARK                         _______ _______ _______ _____ _____    ______ ____
ROOT
ATOM      1  N   UNL     1      -0.229  13.578  22.117  0.00  0.00    +0.000 N 
ATOM      2  C   UNL     1       0.887  14.374  21.835  0.00  0.00    +0.000 C 
ATOM      3  O   UNL     1       1.383  15.169  22.641  0.00  0.00    +0.000 OA
ATOM      4  C   UNL     1      -0.506  12.517  21.278  0.00  0.00    +0.000 A 
ATOM      5  N   UNL     1      -1.221  12.555  20.178  0.00  0.00    +0.000 NA
ATOM      6  C   UNL     1      -1.310  11.278  19.642  0.00  0.00    +0.000 A 
ATOM      7  C   UNL     1      -0.599  10.309  20.331  0.00  0.00    +0.000 A 
ATOM      8  S   UNL     1       0.206  11.009  21.675  0.00  0.00    +0.000 S 
ENDROOT
BRANCH   1  15
ATOM      9  C   UNL     1      -4.482  12.385  24.535  0.00  0.00    +0.000 C 
ATOM     10  C   UNL     1      -3.338  13.330  24.298  0.00  0.00    +0.000 A 
ATOM     11  C   UNL     1      -3.254  14.527  25.008  0.00  0.00    +0.000 A 
ATOM     12  C   UNL     1      -2.148  15.362  24.846  0.00  0.00    +0.000 A 
ATOM     13  C   UNL     1      -2.082  16.690  25.542  0.00  0.00    +0.000 C 
ATOM     14  C   UNL     1      -1.121  14.994  23.958  0.00  0.00    +0.000 A 
ATOM     15  C   UNL     1      -1.208  13.848  23.153  0.00  0.00    +0.000 A 
ATOM     16  C   UNL     1      -2.336  13.020  23.359  0.00  0.00    +0.000 A 
ENDBRANCH   1  15
BRANCH   2  17
ATOM     17  C   UNL     1       1.492  14.325  20.419  0.00  0.00    +0.000 C 
ATOM     18  C   UNL     1       1.160  15.629  19.670  0.00  0.00    +0.000 C 
ATOM     19  C   UNL     1       2.027  15.634  18.420  0.00  0.00    +0.000 C 
ATOM     20  S   UNL     1       3.612  15.043  18.974  0.00  0.00    +0.000 S 
ATOM     21  O   UNL     1       4.420  16.181  19.353  0.00  0.00    +0.000 OA
ATOM     22  O   UNL     1       4.078  14.040  18.038  0.00  0.00    +0.000 OA
ATOM     23  C   UNL     1       3.026  14.229  20.452  0.00  0.00    +0.000 C 
ENDBRANCH   2  17
BRANCH   6  24
ATOM     24  C   UNL     1      -2.073  11.015  18.427  0.00  0.00    +0.000 A 
ATOM     25  C   UNL     1      -3.309  11.653  18.232  0.00  0.00    +0.000 A 
ATOM     26  C   UNL     1      -4.046  11.435  17.064  0.00  0.00    +0.000 A 
ATOM     27  C   UNL     1      -3.551  10.572  16.092  0.00  0.00    +0.000 A 
ATOM     28  F   UNL     1      -4.257  10.366  14.972  0.00  0.00    +0.000 F 
ATOM     29  C   UNL     1      -2.343   9.915  16.275  0.00  0.00    +0.000 A 
ATOM     30  C   UNL     1      -1.603  10.131  17.440  0.00  0.00    +0.000 A 
ENDBRANCH   6  24
TORSDOF 3
ENDMDL
