MODEL 1
REMARK VINA RESULT:      -9.2      0.000      0.000
REMARK  Name = 
REMARK  2 active torsions:
REMARK  status: ('A' for Active; 'I' for Inactive)
REMARK    1  A    between atoms: C_6  and  C_7
REMARK    2  A    between atoms: C_17  and  C_18
REMARK                            x       y       z     vdW  Elec       q    Type
REMARK                         _______ _______ _______ _____ _____    ______ ____
ROOT
ATOM      1  O   UNL     1       0.429   9.923  23.328  0.00  0.00    +0.000 OA
ATOM      2  C   UNL     1       0.740   9.559  22.210  0.00  0.00    +0.000 C 
ATOM      3  N   UNL     1       1.396   8.385  21.899  0.00  0.00    +0.000 N 
ATOM      4  C   UNL     1       1.631   8.279  20.534  0.00  0.00    +0.000 A 
ATOM      5  C   UNL     1       2.264   7.233  19.904  0.00  0.00    +0.000 A 
ATOM      6  C   UNL     1       2.416   7.269  18.507  0.00  0.00    +0.000 A 
ATOM      7  C   UNL     1       1.906   8.402  17.815  0.00  0.00    +0.000 A 
ATOM      8  C   UNL     1       1.270   9.467  18.484  0.00  0.00    +0.000 A 
ATOM      9  C   UNL     1       1.134   9.393  19.856  0.00  0.00    +0.000 A 
ATOM     10  C   UNL     1       0.534  10.253  20.883  0.00  0.00    +0.000 C 
ATOM     11  C   UNL     1      -0.106  11.418  20.680  0.00  0.00    +0.000 C 
ATOM     12  H   UNL     1       1.666   7.715  22.600  0.00  0.00    +0.000 HD
ENDROOT
BRANCH  11  13
ATOM     13  C   UNL     1      -0.747  12.105  21.734  0.00  0.00    +0.000 A 
ATOM     14  N   UNL     1      -1.863  11.552  22.324  0.00  0.00    +0.000 N 
ATOM     15  C   UNL     1      -2.348  12.401  23.289  0.00  0.00    +0.000 A 
ATOM     16  C   UNL     1      -1.541  13.518  23.317  0.00  0.00    +0.000 A 
ATOM     17  C   UNL     1      -0.528  13.322  22.340  0.00  0.00    +0.000 A 
ATOM     18  C   UNL     1       0.495  14.368  22.112  0.00  0.00    +0.000 C 
ATOM     19  C   UNL     1      -0.067  15.715  22.585  0.00  0.00    +0.000 C 
ATOM     20  O   UNL     1      -0.685  15.669  23.896  0.00  0.00    +0.000 OA
ATOM     21  C   UNL     1      -1.637  14.708  24.150  0.00  0.00    +0.000 C 
ATOM     22  O   UNL     1      -2.459  14.836  25.051  0.00  0.00    +0.000 OA
ATOM     23  H   UNL     1      -2.291  10.674  22.058  0.00  0.00    +0.000 HD
ENDBRANCH  11  13
BRANCH   6  24
ATOM     24  C   UNL     1       3.117   6.159  17.808  0.00  0.00    +0.000 A 
ATOM     25  C   UNL     1       2.609   4.845  17.841  0.00  0.00    +0.000 A 
ATOM     26  C   UNL     1       3.306   3.773  17.275  0.00  0.00    +0.000 A 
ATOM     27  C   UNL     1       4.522   3.994  16.638  0.00  0.00    +0.000 A 
ATOM     28  C   UNL     1       5.031   5.287  16.560  0.00  0.00    +0.000 A 
ATOM     29  C   UNL     1       4.337   6.357  17.142  0.00  0.00    +0.000 A 
ENDBRANCH   6  24
TORSDOF 2
ENDMDL
MODEL 2
REMARK VINA RESULT:      -8.8      1.453      2.198
REMARK  Name = 
REMARK  2 active torsions:
REMARK  status: ('A' for Active; 'I' for Inactive)
REMARK    1  A    between atoms: C_6  and  C_7
REMARK    2  A    between atoms: C_17  and  C_18
REMARK                            x       y       z     vdW  Elec       q    Type
REMARK                         _______ _______ _______ _____ _____    ______ ____
ROOT
ATOM      1  O   UNL     1      -0.244  10.544  23.165  0.00  0.00    +0.000 OA
ATOM      2  C   UNL     1       0.198  10.144  22.106  0.00  0.00    +0.000 C 
ATOM      3  N   UNL     1       0.815   8.926  21.900  0.00  0.00    +0.000 N 
ATOM      4  C   UNL     1       1.233   8.783  20.583  0.00  0.00    +0.000 A 
ATOM      5  C   UNL     1       1.881   7.689  20.058  0.00  0.00    +0.000 A 
ATOM      6  C   UNL     1       2.232   7.693  18.696  0.00  0.00    +0.000 A 
ATOM      7  C   UNL     1       1.898   8.843  17.931  0.00  0.00    +0.000 A 
ATOM      8  C   UNL     1       1.243   9.957  18.494  0.00  0.00    +0.000 A 
ATOM      9  C   UNL     1       0.910   9.914  19.834  0.00  0.00    +0.000 A 
ATOM     10  C   UNL     1       0.226  10.827  20.757  0.00  0.00    +0.000 C 
ATOM     11  C   UNL     1      -0.303  12.026  20.457  0.00  0.00    +0.000 C 
ATOM     12  H   UNL     1       0.940   8.252  22.638  0.00  0.00    +0.000 HD
ENDROOT
BRANCH  11  13
ATOM     13  C   UNL     1      -1.042  12.769  21.403  0.00  0.00    +0.000 A 
ATOM     14  N   UNL     1      -0.390  13.342  22.474  0.00  0.00    +0.000 N 
ATOM     15  C   UNL     1      -1.298  13.975  23.286  0.00  0.00    +0.000 A 
ATOM     16  C   UNL     1      -2.552  13.803  22.739  0.00  0.00    +0.000 A 
ATOM     17  C   UNL     1      -2.382  13.049  21.547  0.00  0.00    +0.000 A 
ATOM     18  C   UNL     1      -3.561  12.678  20.730  0.00  0.00    +0.000 C 
ATOM     19  C   UNL     1      -4.805  12.699  21.628  0.00  0.00    +0.000 C 
ATOM     20  O   UNL     1      -4.919  13.887  22.453  0.00  0.00    +0.000 OA
ATOM     21  C   UNL     1      -3.843  14.268  23.222  0.00  0.00    +0.000 C 
ATOM     22  O   UNL     1      -3.976  14.992  24.203  0.00  0.00    +0.000 OA
ATOM     23  H   UNL     1       0.602  13.269  22.661  0.00  0.00    +0.000 HD
ENDBRANCH  11  13
BRANCH   6  24
ATOM     24  C   UNL     1       2.952   6.530  18.113  0.00  0.00    +0.000 A 
ATOM     25  C   UNL     1       4.171   6.701  17.426  0.00  0.00    +0.000 A 
ATOM     26  C   UNL     1       4.810   5.634  16.787  0.00  0.00    +0.000 A 
ATOM     27  C   UNL     1       4.256   4.361  16.840  0.00  0.00    +0.000 A 
ATOM     28  C   UNL     1       3.071   4.155  17.541  0.00  0.00    +0.000 A 
ATOM     29  C   UNL     1       2.425   5.230  18.167  0.00  0.00    +0.000 A 
ENDBRANCH   6  24
TORSDOF 2
ENDMDL
MODEL 3
REMARK VINA RESULT:      -8.7      3.414      9.721
REMARK  Name = 
REMARK  2 active torsions:
REMARK  status: ('A' for Active; 'I' for Inactive)
REMARK    1  A    between atoms: C_6  and  C_7
REMARK    2  A    between atoms: C_17  and  C_18
REMARK                            x       y       z     vdW  Elec       q    Type
REMARK                         _______ _______ _______ _____ _____    ______ ____
ROOT
ATOM      1  O   UNL     1       2.143   8.015  18.374  0.00  0.00    +0.000 OA
ATOM      2  C   UNL     1       1.550   8.471  19.334  0.00  0.00    +0.000 C 
ATOM      3  N   UNL     1       0.903   9.690  19.375  0.00  0.00    +0.000 N 
ATOM      4  C   UNL     1       0.351   9.930  20.627  0.00  0.00    +0.000 A 
ATOM      5  C   UNL     1      -0.356  11.052  20.994  0.00  0.00    +0.000 A 
ATOM      6  C   UNL     1      -0.862  11.142  22.302  0.00  0.00    +0.000 A 
ATOM      7  C   UNL     1      -0.609  10.057  23.185  0.00  0.00    +0.000 A 
ATOM      8  C   UNL     1       0.127   8.921  22.790  0.00  0.00    +0.000 A 
ATOM      9  C   UNL     1       0.604   8.867  21.494  0.00  0.00    +0.000 A 
ATOM     10  C   UNL     1       1.366   7.884  20.715  0.00  0.00    +0.000 C 
ATOM     11  C   UNL     1       1.789   6.679  21.135  0.00  0.00    +0.000 C 
ATOM     12  H   UNL     1       0.865  10.308  18.582  0.00  0.00    +0.000 HD
ENDROOT
BRANCH  11  13
ATOM     13  C   UNL     1       2.415   5.766  20.260  0.00  0.00    +0.000 A 
ATOM     14  N   UNL     1       3.631   6.090  19.697  0.00  0.00    +0.000 N 
ATOM     15  C   UNL     1       4.034   5.087  18.851  0.00  0.00    +0.000 A 
ATOM     16  C   UNL     1       3.064   4.107  18.860  0.00  0.00    +0.000 A 
ATOM     17  C   UNL     1       2.050   4.537  19.757  0.00  0.00    +0.000 A 
ATOM     18  C   UNL     1       0.847   3.700  19.973  0.00  0.00    +0.000 C 
ATOM     19  C   UNL     1       0.660   2.788  18.754  0.00  0.00    +0.000 C 
ATOM     20  O   UNL     1       1.870   2.109  18.332  0.00  0.00    +0.000 OA
ATOM     21  C   UNL     1       3.012   2.851  18.126  0.00  0.00    +0.000 C 
ATOM     22  O   UNL     1       3.928   2.443  17.421  0.00  0.00    +0.000 OA
ATOM     23  H   UNL     1       4.132   6.957  19.848  0.00  0.00    +0.000 HD
ENDBRANCH  11  13
BRANCH   6  24
ATOM     24  C   UNL     1      -1.609  12.355  22.726  0.00  0.00    +0.000 A 
ATOM     25  C   UNL     1      -1.038  13.638  22.606  0.00  0.00    +0.000 A 
ATOM     26  C   UNL     1      -1.686  14.779  23.091  0.00  0.00    +0.000 A 
ATOM     27  C   UNL     1      -2.936  14.667  23.689  0.00  0.00    +0.000 A 
ATOM     28  C   UNL     1      -3.539  13.417  23.790  0.00  0.00    +0.000 A 
ATOM     29  C   UNL     1      -2.881  12.273  23.317  0.00  0.00    +0.000 A 
ENDBRANCH   6  24
TORSDOF 2
ENDMDL
MODEL 4
REMARK VINA RESULT:      -8.7      3.968      9.737
REMARK  Name = 
REMARK  2 active torsions:
REMARK  status: ('A' for Active; 'I' for Inactive)
REMARK    1  A    between atoms: C_6  and  C_7
REMARK    2  A    between atoms: C_17  and  C_18
REMARK                            x       y       z     vdW  Elec       q    Type
REMARK                         _______ _______ _______ _____ _____    ______ ____
ROOT
ATOM      1  O   UNL     1       3.132   7.959  16.744  0.00  0.00    +0.000 OA
ATOM      2  C   UNL     1       2.519   8.223  17.761  0.00  0.00    +0.000 C 
ATOM      3  N   UNL     1       1.745   9.347  17.966  0.00  0.00    +0.000 N 
ATOM      4  C   UNL     1       1.203   9.365  19.246  0.00  0.00    +0.000 A 
ATOM      5  C   UNL     1       0.389  10.348  19.761  0.00  0.00    +0.000 A 
ATOM      6  C   UNL     1      -0.088  10.216  21.077  0.00  0.00    +0.000 A 
ATOM      7  C   UNL     1       0.306   9.064  21.811  0.00  0.00    +0.000 A 
ATOM      8  C   UNL     1       1.150   8.076  21.265  0.00  0.00    +0.000 A 
ATOM      9  C   UNL     1       1.594   8.238  19.967  0.00  0.00    +0.000 A 
ATOM     10  C   UNL     1       2.437   7.451  19.059  0.00  0.00    +0.000 C 
ATOM     11  C   UNL     1       3.000   6.258  19.317  0.00  0.00    +0.000 C 
ATOM     12  H   UNL     1       1.618  10.052  17.258  0.00  0.00    +0.000 HD
ENDROOT
BRANCH  11  13
ATOM     13  C   UNL     1       3.698   5.537  18.324  0.00  0.00    +0.000 A 
ATOM     14  N   UNL     1       3.054   4.528  17.640  0.00  0.00    +0.000 N 
ATOM     15  C   UNL     1       3.925   3.935  16.759  0.00  0.00    +0.000 A 
ATOM     16  C   UNL     1       5.147   4.563  16.880  0.00  0.00    +0.000 A 
ATOM     17  C   UNL     1       4.995   5.577  17.863  0.00  0.00    +0.000 A 
ATOM     18  C   UNL     1       6.150   6.425  18.238  0.00  0.00    +0.000 C 
ATOM     19  C   UNL     1       7.442   5.672  17.896  0.00  0.00    +0.000 C 
ATOM     20  O   UNL     1       7.453   5.089  16.568  0.00  0.00    +0.000 OA
ATOM     21  C   UNL     1       6.395   4.299  16.179  0.00  0.00    +0.000 C 
ATOM     22  O   UNL     1       6.499   3.482  15.271  0.00  0.00    +0.000 OA
ATOM     23  H   UNL     1       2.098   4.235  17.794  0.00  0.00    +0.000 HD
ENDBRANCH  11  13
BRANCH   6  24
ATOM     24  C   UNL     1      -0.951  11.276  21.662  0.00  0.00    +0.000 A 
ATOM     25  C   UNL     1      -1.407  11.189  22.992  0.00  0.00    +0.000 A 
ATOM     26  C   UNL     1      -2.300  12.125  23.526  0.00  0.00    +0.000 A 
ATOM     27  C   UNL     1      -2.739  13.188  22.747  0.00  0.00    +0.000 A 
ATOM     28  C   UNL     1      -2.278  13.319  21.440  0.00  0.00    +0.000 A 
ATOM     29  C   UNL     1      -1.396  12.371  20.903  0.00  0.00    +0.000 A 
ENDBRANCH   6  24
TORSDOF 2
ENDMDL
MODEL 5
REMARK VINA RESULT:      -8.6      3.701      9.749
REMARK  Name = 
REMARK  2 active torsions:
REMARK  status: ('A' for Active; 'I' for Inactive)
REMARK    1  A    between atoms: C_6  and  C_7
REMARK    2  A    between atoms: C_17  and  C_18
REMARK                            x       y       z     vdW  Elec       q    Type
REMARK                         _______ _______ _______ _____ _____    ______ ____
ROOT
ATOM      1  O   UNL     1       2.800   8.070  17.037  0.00  0.00    +0.000 OA
ATOM      2  C   UNL     1       2.271   8.374  18.089  0.00  0.00    +0.000 C 
ATOM      3  N   UNL     1       1.575   9.542  18.332  0.00  0.00    +0.000 N 
ATOM      4  C   UNL     1       1.121   9.600  19.643  0.00  0.00    +0.000 A 
ATOM      5  C   UNL     1       0.398  10.630  20.200  0.00  0.00    +0.000 A 
ATOM      6  C   UNL     1       0.001  10.535  21.545  0.00  0.00    +0.000 A 
ATOM      7  C   UNL     1       0.377   9.368  22.265  0.00  0.00    +0.000 A 
ATOM      8  C   UNL     1       1.128   8.330  21.676  0.00  0.00    +0.000 A 
ATOM      9  C   UNL     1       1.494   8.457  20.350  0.00  0.00    +0.000 A 
ATOM     10  C   UNL     1       2.231   7.618  19.398  0.00  0.00    +0.000 C 
ATOM     11  C   UNL     1       2.743   6.397  19.632  0.00  0.00    +0.000 C 
ATOM     12  H   UNL     1       1.441  10.247  17.626  0.00  0.00    +0.000 HD
ENDROOT
BRANCH  11  13
ATOM     13  C   UNL     1       3.333   5.631  18.604  0.00  0.00    +0.000 A 
ATOM     14  N   UNL     1       2.539   4.824  17.817  0.00  0.00    +0.000 N 
ATOM     15  C   UNL     1       3.318   4.141  16.917  0.00  0.00    +0.000 A 
ATOM     16  C   UNL     1       4.631   4.503  17.128  0.00  0.00    +0.000 A 
ATOM     17  C   UNL     1       4.633   5.450  18.188  0.00  0.00    +0.000 A 
ATOM     18  C   UNL     1       5.912   6.021  18.669  0.00  0.00    +0.000 C 
ATOM     19  C   UNL     1       7.048   5.056  18.305  0.00  0.00    +0.000 C 
ATOM     20  O   UNL     1       7.008   4.586  16.934  0.00  0.00    +0.000 OA
ATOM     21  C   UNL     1       5.836   4.053  16.447  0.00  0.00    +0.000 C 
ATOM     22  O   UNL     1       5.822   3.304  15.476  0.00  0.00    +0.000 OA
ATOM     23  H   UNL     1       1.537   4.715  17.917  0.00  0.00    +0.000 HD
ENDBRANCH  11  13
BRANCH   6  24
ATOM     24  C   UNL     1      -0.762  11.646  22.173  0.00  0.00    +0.000 A 
ATOM     25  C   UNL     1      -0.332  12.982  22.050  0.00  0.00    +0.000 A 
ATOM     26  C   UNL     1      -0.980  14.028  22.716  0.00  0.00    +0.000 A 
ATOM     27  C   UNL     1      -2.093  13.763  23.505  0.00  0.00    +0.000 A 
ATOM     28  C   UNL     1      -2.562  12.458  23.617  0.00  0.00    +0.000 A 
ATOM     29  C   UNL     1      -1.901  11.410  22.961  0.00  0.00    +0.000 A 
ENDBRANCH   6  24
TORSDOF 2
ENDMDL
MODEL 6
REMARK VINA RESULT:      -8.5      3.249      9.661
REMARK  Name = 
REMARK  2 active torsions:
REMARK  status: ('A' for Active; 'I' for Inactive)
REMARK    1  A    between atoms: C_6  and  C_7
REMARK    2  A    between atoms: C_17  and  C_18
REMARK                            x       y       z     vdW  Elec       q    Type
REMARK                         _______ _______ _______ _____ _____    ______ ____
ROOT
ATOM      1  O   UNL     1       1.771   8.617  18.119  0.00  0.00    +0.000 OA
ATOM      2  C   UNL     1       1.252   8.969  19.161  0.00  0.00    +0.000 C 
ATOM      3  N   UNL     1       0.522  10.127  19.345  0.00  0.00    +0.000 N 
ATOM      4  C   UNL     1       0.090  10.252  20.660  0.00  0.00    +0.000 A 
ATOM      5  C   UNL     1      -0.656  11.291  21.166  0.00  0.00    +0.000 A 
ATOM      6  C   UNL     1      -1.024  11.268  22.523  0.00  0.00    +0.000 A 
ATOM      7  C   UNL     1      -0.594  10.162  23.306  0.00  0.00    +0.000 A 
ATOM      8  C   UNL     1       0.180   9.114  22.767  0.00  0.00    +0.000 A 
ATOM      9  C   UNL     1       0.517   9.169  21.428  0.00  0.00    +0.000 A 
ATOM     10  C   UNL     1       1.263   8.296  20.515  0.00  0.00    +0.000 C 
ATOM     11  C   UNL     1       1.821   7.110  20.813  0.00  0.00    +0.000 C 
ATOM     12  H   UNL     1       0.350  10.781  18.599  0.00  0.00    +0.000 HD
ENDROOT
BRANCH  11  13
ATOM     13  C   UNL     1       2.417   6.300  19.823  0.00  0.00    +0.000 A 
ATOM     14  N   UNL     1       3.452   6.806  19.066  0.00  0.00    +0.000 N 
ATOM     15  C   UNL     1       3.850   5.872  18.141  0.00  0.00    +0.000 A 
ATOM     16  C   UNL     1       3.059   4.754  18.296  0.00  0.00    +0.000 A 
ATOM     17  C   UNL     1       2.163   5.027  19.364  0.00  0.00    +0.000 A 
ATOM     18  C   UNL     1       1.159   4.015  19.766  0.00  0.00    +0.000 C 
ATOM     19  C   UNL     1       0.904   3.078  18.579  0.00  0.00    +0.000 C 
ATOM     20  O   UNL     1       2.112   2.593  17.938  0.00  0.00    +0.000 OA
ATOM     21  C   UNL     1       3.072   3.501  17.555  0.00  0.00    +0.000 C 
ATOM     22  O   UNL     1       3.903   3.236  16.693  0.00  0.00    +0.000 OA
ATOM     23  H   UNL     1       3.833   7.740  19.146  0.00  0.00    +0.000 HD
ENDBRANCH  11  13
BRANCH   6  24
ATOM     24  C   UNL     1      -1.812  12.390  23.097  0.00  0.00    +0.000 A 
ATOM     25  C   UNL     1      -3.167  12.223  23.445  0.00  0.00    +0.000 A 
ATOM     26  C   UNL     1      -3.949  13.293  23.892  0.00  0.00    +0.000 A 
ATOM     27  C   UNL     1      -3.385  14.557  24.025  0.00  0.00    +0.000 A 
ATOM     28  C   UNL     1      -2.040  14.744  23.721  0.00  0.00    +0.000 A 
ATOM     29  C   UNL     1      -1.263  13.673  23.259  0.00  0.00    +0.000 A 
ENDBRANCH   6  24
TORSDOF 2
ENDMDL
MODEL 7
REMARK VINA RESULT:      -8.5      1.712      2.481
REMARK  Name = 
REMARK  2 active torsions:
REMARK  status: ('A' for Active; 'I' for Inactive)
REMARK    1  A    between atoms: C_6  and  C_7
REMARK    2  A    between atoms: C_17  and  C_18
REMARK                            x       y       z     vdW  Elec       q    Type
REMARK                         _______ _______ _______ _____ _____    ______ ____
ROOT
ATOM      1  O   UNL     1      -0.149  12.620  19.014  0.00  0.00    +0.000 OA
ATOM      2  C   UNL     1       0.329  11.517  19.201  0.00  0.00    +0.000 C 
ATOM      3  N   UNL     1       0.903  10.715  18.235  0.00  0.00    +0.000 N 
ATOM      4  C   UNL     1       1.327   9.503  18.766  0.00  0.00    +0.000 A 
ATOM      5  C   UNL     1       1.936   8.486  18.066  0.00  0.00    +0.000 A 
ATOM      6  C   UNL     1       2.316   7.319  18.752  0.00  0.00    +0.000 A 
ATOM      7  C   UNL     1       2.042   7.252  20.146  0.00  0.00    +0.000 A 
ATOM      8  C   UNL     1       1.407   8.303  20.839  0.00  0.00    +0.000 A 
ATOM      9  C   UNL     1       1.054   9.436  20.132  0.00  0.00    +0.000 A 
ATOM     10  C   UNL     1       0.419  10.713  20.479  0.00  0.00    +0.000 C 
ATOM     11  C   UNL     1       0.025  11.108  21.702  0.00  0.00    +0.000 C 
ATOM     12  H   UNL     1       0.980  11.000  17.272  0.00  0.00    +0.000 HD
ENDROOT
BRANCH  11  13
ATOM     13  C   UNL     1      -0.469  12.410  21.937  0.00  0.00    +0.000 A 
ATOM     14  N   UNL     1       0.365  13.493  21.764  0.00  0.00    +0.000 N 
ATOM     15  C   UNL     1      -0.302  14.649  22.087  0.00  0.00    +0.000 A 
ATOM     16  C   UNL     1      -1.579  14.309  22.480  0.00  0.00    +0.000 A 
ATOM     17  C   UNL     1      -1.681  12.895  22.375  0.00  0.00    +0.000 A 
ATOM     18  C   UNL     1      -2.940  12.213  22.750  0.00  0.00    +0.000 C 
ATOM     19  C   UNL     1      -3.716  13.113  23.720  0.00  0.00    +0.000 C 
ATOM     20  O   UNL     1      -3.815  14.496  23.292  0.00  0.00    +0.000 OA
ATOM     21  C   UNL     1      -2.667  15.164  22.929  0.00  0.00    +0.000 C 
ATOM     22  O   UNL     1      -2.605  16.388  22.935  0.00  0.00    +0.000 OA
ATOM     23  H   UNL     1       1.337  13.444  21.486  0.00  0.00    +0.000 HD
ENDBRANCH  11  13
BRANCH   6  24
ATOM     24  C   UNL     1       2.955   6.200  18.012  0.00  0.00    +0.000 A 
ATOM     25  C   UNL     1       2.358   4.924  17.968  0.00  0.00    +0.000 A 
ATOM     26  C   UNL     1       2.993   3.835  17.362  0.00  0.00    +0.000 A 
ATOM     27  C   UNL     1       4.235   4.003  16.760  0.00  0.00    +0.000 A 
ATOM     28  C   UNL     1       4.833   5.259  16.758  0.00  0.00    +0.000 A 
ATOM     29  C   UNL     1       4.201   6.345  17.380  0.00  0.00    +0.000 A 
ENDBRANCH   6  24
TORSDOF 2
ENDMDL
MODEL 8
REMARK VINA RESULT:      -8.4      1.897      2.651
REMARK  Name = 
REMARK  2 active torsions:
REMARK  status: ('A' for Active; 'I' for Inactive)
REMARK    1  A    between atoms: C_6  and  C_7
REMARK    2  A    between atoms: C_17  and  C_18
REMARK                            x       y       z     vdW  Elec       q    Type
REMARK                         _______ _______ _______ _____ _____    ______ ____
ROOT
ATOM      1  O   UNL     1       0.709  10.320  22.299  0.00  0.00    +0.000 OA
ATOM      2  C   UNL     1       1.047   9.555  21.416  0.00  0.00    +0.000 C 
ATOM      3  N   UNL     1       1.340   8.216  21.581  0.00  0.00    +0.000 N 
ATOM      4  C   UNL     1       1.723   7.628  20.382  0.00  0.00    +0.000 A 
ATOM      5  C   UNL     1       2.080   6.310  20.209  0.00  0.00    +0.000 A 
ATOM      6  C   UNL     1       2.435   5.863  18.925  0.00  0.00    +0.000 A 
ATOM      7  C   UNL     1       2.409   6.809  17.864  0.00  0.00    +0.000 A 
ATOM      8  C   UNL     1       2.049   8.157  18.068  0.00  0.00    +0.000 A 
ATOM      9  C   UNL     1       1.702   8.558  19.343  0.00  0.00    +0.000 A 
ATOM     10  C   UNL     1       1.260   9.822  19.943  0.00  0.00    +0.000 C 
ATOM     11  C   UNL     1       1.052  10.986  19.303  0.00  0.00    +0.000 C 
ATOM     12  H   UNL     1       1.284   7.756  22.475  0.00  0.00    +0.000 HD
ENDROOT
BRANCH  11  13
ATOM     13  C   UNL     1       0.515  12.111  19.966  0.00  0.00    +0.000 A 
ATOM     14  N   UNL     1       1.335  12.892  20.752  0.00  0.00    +0.000 N 
ATOM     15  C   UNL     1       0.602  13.898  21.331  0.00  0.00    +0.000 A 
ATOM     16  C   UNL     1      -0.707  13.762  20.922  0.00  0.00    +0.000 A 
ATOM     17  C   UNL     1      -0.754  12.638  20.054  0.00  0.00    +0.000 A 
ATOM     18  C   UNL     1      -2.042  12.216  19.456  0.00  0.00    +0.000 C 
ATOM     19  C   UNL     1      -3.185  12.736  20.337  0.00  0.00    +0.000 C 
ATOM     20  O   UNL     1      -3.055  14.132  20.710  0.00  0.00    +0.000 OA
ATOM     21  C   UNL     1      -1.872  14.566  21.264  0.00  0.00    +0.000 C 
ATOM     22  O   UNL     1      -1.812  15.585  21.942  0.00  0.00    +0.000 OA
ATOM     23  H   UNL     1       2.320  12.724  20.916  0.00  0.00    +0.000 HD
ENDBRANCH  11  13
BRANCH   6  24
ATOM     24  C   UNL     1       2.845   4.449  18.719  0.00  0.00    +0.000 A 
ATOM     25  C   UNL     1       2.264   3.664  17.704  0.00  0.00    +0.000 A 
ATOM     26  C   UNL     1       2.565   2.305  17.561  0.00  0.00    +0.000 A 
ATOM     27  C   UNL     1       3.479   1.703  18.418  0.00  0.00    +0.000 A 
ATOM     28  C   UNL     1       4.095   2.462  19.409  0.00  0.00    +0.000 A 
ATOM     29  C   UNL     1       3.779   3.819  19.559  0.00  0.00    +0.000 A 
ENDBRANCH   6  24
TORSDOF 2
ENDMDL
MODEL 9
REMARK VINA RESULT:      -8.3      4.070      9.533
REMARK  Name = 
REMARK  2 active torsions:
REMARK  status: ('A' for Active; 'I' for Inactive)
REMARK    1  A    between atoms: C_6  and  C_7
REMARK    2  A    between atoms: C_17  and  C_18
REMARK                            x       y       z     vdW  Elec       q    Type
REMARK                         _______ _______ _______ _____ _____    ______ ____
ROOT
ATOM      1  O   UNL     1       2.843   7.197  17.701  0.00  0.00    +0.000 OA
ATOM      2  C   UNL     1       2.225   7.960  18.418  0.00  0.00    +0.000 C 
ATOM      3  N   UNL     1       1.748   9.203  18.050  0.00  0.00    +0.000 N 
ATOM      4  C   UNL     1       1.111   9.837  19.110  0.00  0.00    +0.000 A 
ATOM      5  C   UNL     1       0.531  11.084  19.069  0.00  0.00    +0.000 A 
ATOM      6  C   UNL     1      -0.087  11.586  20.229  0.00  0.00    +0.000 A 
ATOM      7  C   UNL     1      -0.072  10.770  21.392  0.00  0.00    +0.000 A 
ATOM      8  C   UNL     1       0.538   9.499  21.412  0.00  0.00    +0.000 A 
ATOM      9  C   UNL     1       1.130   9.038  20.252  0.00  0.00    +0.000 A 
ATOM     10  C   UNL     1       1.825   7.804  19.868  0.00  0.00    +0.000 C 
ATOM     11  C   UNL     1       2.038   6.726  20.644  0.00  0.00    +0.000 C 
ATOM     12  H   UNL     1       1.873   9.577  17.124  0.00  0.00    +0.000 HD
ENDROOT
BRANCH  11  13
ATOM     13  C   UNL     1       2.618   5.546  20.132  0.00  0.00    +0.000 A 
ATOM     14  N   UNL     1       3.949   5.545  19.775  0.00  0.00    +0.000 N 
ATOM     15  C   UNL     1       4.292   4.317  19.264  0.00  0.00    +0.000 A 
ATOM     16  C   UNL     1       3.168   3.518  19.285  0.00  0.00    +0.000 A 
ATOM     17  C   UNL     1       2.118   4.297  19.841  0.00  0.00    +0.000 A 
ATOM     18  C   UNL     1       0.761   3.720  19.981  0.00  0.00    +0.000 C 
ATOM     19  C   UNL     1       0.611   2.572  18.974  0.00  0.00    +0.000 C 
ATOM     20  O   UNL     1       1.726   1.644  18.964  0.00  0.00    +0.000 OA
ATOM     21  C   UNL     1       3.004   2.141  18.842  0.00  0.00    +0.000 C 
ATOM     22  O   UNL     1       3.932   1.445  18.444  0.00  0.00    +0.000 OA
ATOM     23  H   UNL     1       4.572   6.341  19.835  0.00  0.00    +0.000 HD
ENDBRANCH  11  13
BRANCH   6  24
ATOM     24  C   UNL     1      -0.701  12.940  20.214  0.00  0.00    +0.000 A 
ATOM     25  C   UNL     1      -0.078  14.012  19.544  0.00  0.00    +0.000 A 
ATOM     26  C   UNL     1      -0.590  15.313  19.604  0.00  0.00    +0.000 A 
ATOM     27  C   UNL     1      -1.755  15.568  20.318  0.00  0.00    +0.000 A 
ATOM     28  C   UNL     1      -2.410  14.523  20.961  0.00  0.00    +0.000 A 
ATOM     29  C   UNL     1      -1.886  13.223  20.912  0.00  0.00    +0.000 A 
ENDBRANCH   6  24
TORSDOF 2
ENDMDL
