MODEL 1
REMARK VINA RESULT:      -6.5      0.000      0.000
REMARK  Name = 
REMARK  5 active torsions:
REMARK  status: ('A' for Active; 'I' for Inactive)
REMARK    1  A    between atoms: C_1  and  C_2
REMARK    2  A    between atoms: C_5  and  C_6
REMARK    3  A    between atoms: C_6  and  C_7
REMARK    4  A    between atoms: C_6  and  N_9
REMARK    5  A    between atoms: N_12  and  C_13
REMARK                            x       y       z     vdW  Elec       q    Type
REMARK                         _______ _______ _______ _____ _____    ______ ____
ROOT
ATOM      1  C   UNL     1       5.150   5.228  18.084  0.00  0.00    +0.000 C 
ENDROOT
BRANCH   1   6
ATOM      2  C   UNL     1       6.976   4.176  12.629  0.00  0.00    +0.000 C 
ATOM      3  C   UNL     1       6.525   4.407  14.040  0.00  0.00    +0.000 A 
ATOM      4  C   UNL     1       5.248   4.012  14.442  0.00  0.00    +0.000 A 
ATOM      5  C   UNL     1       4.821   4.229  15.749  0.00  0.00    +0.000 A 
ATOM      6  C   UNL     1       5.660   4.858  16.688  0.00  0.00    +0.000 A 
ATOM      7  C   UNL     1       6.940   5.262  16.276  0.00  0.00    +0.000 A 
ATOM      8  C   UNL     1       7.369   5.034  14.964  0.00  0.00    +0.000 A 
ENDBRANCH   1   6
BRANCH   1   9
ATOM      9  N   UNL     1       4.000   4.363  18.471  0.00  0.00    +0.000 NA
ATOM     10  C   UNL     1       2.859   5.140  18.995  0.00  0.00    +0.000 C 
ATOM     11  C   UNL     1       1.659   4.235  19.367  0.00  0.00    +0.000 C 
ATOM     12  N   UNL     1       1.982   3.121  20.282  0.00  0.00    +0.000 NA
ATOM     13  C   UNL     1       2.223   3.598  21.644  0.00  0.00    +0.000 C 
ATOM     14  C   UNL     1       3.157   2.395  19.767  0.00  0.00    +0.000 C 
ATOM     15  C   UNL     1       4.361   3.299  19.430  0.00  0.00    +0.000 C 
ENDBRANCH   1   9
BRANCH   1  16
ATOM     16  C   UNL     1       6.244   5.301  19.093  0.00  0.00    +0.000 C 
ATOM     17  N   UNL     1       7.087   5.341  19.895  0.00  0.00    +0.000 NA
ENDBRANCH   1  16
TORSDOF 3
ENDMDL
MODEL 2
REMARK VINA RESULT:      -6.5      0.117      1.176
REMARK  Name = 
REMARK  5 active torsions:
REMARK  status: ('A' for Active; 'I' for Inactive)
REMARK    1  A    between atoms: C_1  and  C_2
REMARK    2  A    between atoms: C_5  and  C_6
REMARK    3  A    between atoms: C_6  and  C_7
REMARK    4  A    between atoms: C_6  and  N_9
REMARK    5  A    between atoms: N_12  and  C_13
REMARK                            x       y       z     vdW  Elec       q    Type
REMARK                         _______ _______ _______ _____ _____    ______ ____
ROOT
ATOM      1  C   UNL     1       5.114   5.314  18.152  0.00  0.00    +0.000 C 
ENDROOT
BRANCH   1   6
ATOM      2  C   UNL     1       6.963   4.058  12.748  0.00  0.00    +0.000 C 
ATOM      3  C   UNL     1       6.473   4.418  14.118  0.00  0.00    +0.000 A 
ATOM      4  C   UNL     1       7.319   5.073  15.016  0.00  0.00    +0.000 A 
ATOM      5  C   UNL     1       6.871   5.404  16.292  0.00  0.00    +0.000 A 
ATOM      6  C   UNL     1       5.566   5.080  16.708  0.00  0.00    +0.000 A 
ATOM      7  C   UNL     1       4.723   4.414  15.803  0.00  0.00    +0.000 A 
ATOM      8  C   UNL     1       5.173   4.089  14.519  0.00  0.00    +0.000 A 
ENDBRANCH   1   6
BRANCH   1   9
ATOM      9  N   UNL     1       3.981   4.412  18.501  0.00  0.00    +0.000 NA
ATOM     10  C   UNL     1       2.816   5.147  19.035  0.00  0.00    +0.000 C 
ATOM     11  C   UNL     1       1.634   4.204  19.368  0.00  0.00    +0.000 C 
ATOM     12  N   UNL     1       1.974   3.072  20.255  0.00  0.00    +0.000 NA
ATOM     13  C   UNL     1       2.191   3.515  21.632  0.00  0.00    +0.000 C 
ATOM     14  C   UNL     1       3.172   2.389  19.732  0.00  0.00    +0.000 C 
ATOM     15  C   UNL     1       4.358   3.329  19.434  0.00  0.00    +0.000 C 
ENDBRANCH   1   9
BRANCH   1  16
ATOM     16  C   UNL     1       6.248   5.296  19.117  0.00  0.00    +0.000 C 
ATOM     17  N   UNL     1       7.136   5.307  19.871  0.00  0.00    +0.000 NA
ENDBRANCH   1  16
TORSDOF 3
ENDMDL
MODEL 3
REMARK VINA RESULT:      -6.2      2.006      5.911
REMARK  Name = 
REMARK  5 active torsions:
REMARK  status: ('A' for Active; 'I' for Inactive)
REMARK    1  A    between atoms: C_1  and  C_2
REMARK    2  A    between atoms: C_5  and  C_6
REMARK    3  A    between atoms: C_6  and  C_7
REMARK    4  A    between atoms: C_6  and  N_9
REMARK    5  A    between atoms: N_12  and  C_13
REMARK                            x       y       z     vdW  Elec       q    Type
REMARK                         _______ _______ _______ _____ _____    ______ ____
ROOT
ATOM      1  C   UNL     1       3.677   3.854  17.554  0.00  0.00    +0.000 C 
ENDROOT
BRANCH   1   6
ATOM      2  C   UNL     1       1.299   7.954  20.979  0.00  0.00    +0.000 C 
ATOM      3  C   UNL     1       1.947   6.912  20.120  0.00  0.00    +0.000 A 
ATOM      4  C   UNL     1       2.446   7.250  18.861  0.00  0.00    +0.000 A 
ATOM      5  C   UNL     1       3.044   6.284  18.056  0.00  0.00    +0.000 A 
ATOM      6  C   UNL     1       3.150   4.948  18.487  0.00  0.00    +0.000 A 
ATOM      7  C   UNL     1       2.639   4.611  19.751  0.00  0.00    +0.000 A 
ATOM      8  C   UNL     1       2.046   5.586  20.560  0.00  0.00    +0.000 A 
ENDBRANCH   1   6
BRANCH   1   9
ATOM      9  N   UNL     1       5.091   4.125  17.171  0.00  0.00    +0.000 NA
ATOM     10  C   UNL     1       5.932   4.486  18.331  0.00  0.00    +0.000 C 
ATOM     11  C   UNL     1       7.405   4.736  17.928  0.00  0.00    +0.000 C 
ATOM     12  N   UNL     1       7.593   5.715  16.836  0.00  0.00    +0.000 NA
ATOM     13  C   UNL     1       7.339   7.082  17.291  0.00  0.00    +0.000 C 
ATOM     14  C   UNL     1       6.703   5.365  15.713  0.00  0.00    +0.000 C 
ATOM     15  C   UNL     1       5.230   5.149  16.116  0.00  0.00    +0.000 C 
ENDBRANCH   1   9
BRANCH   1  16
ATOM     16  C   UNL     1       3.423   2.483  18.079  0.00  0.00    +0.000 C 
ATOM     17  N   UNL     1       3.244   1.403  18.476  0.00  0.00    +0.000 NA
ENDBRANCH   1  16
TORSDOF 3
ENDMDL
MODEL 4
REMARK VINA RESULT:      -6.2      2.342      3.717
REMARK  Name = 
REMARK  5 active torsions:
REMARK  status: ('A' for Active; 'I' for Inactive)
REMARK    1  A    between atoms: C_1  and  C_2
REMARK    2  A    between atoms: C_5  and  C_6
REMARK    3  A    between atoms: C_6  and  C_7
REMARK    4  A    between atoms: C_6  and  N_9
REMARK    5  A    between atoms: N_12  and  C_13
REMARK                            x       y       z     vdW  Elec       q    Type
REMARK                         _______ _______ _______ _____ _____    ______ ____
ROOT
ATOM      1  C   UNL     1       5.700   4.475  17.418  0.00  0.00    +0.000 C 
ENDROOT
BRANCH   1   6
ATOM      2  C   UNL     1       8.766   9.370  18.332  0.00  0.00    +0.000 C 
ATOM      3  C   UNL     1       7.952   8.128  18.130  0.00  0.00    +0.000 A 
ATOM      4  C   UNL     1       8.279   6.956  18.815  0.00  0.00    +0.000 A 
ATOM      5  C   UNL     1       7.530   5.798  18.626  0.00  0.00    +0.000 A 
ATOM      6  C   UNL     1       6.439   5.778  17.737  0.00  0.00    +0.000 A 
ATOM      7  C   UNL     1       6.121   6.957  17.044  0.00  0.00    +0.000 A 
ATOM      8  C   UNL     1       6.870   8.122  17.242  0.00  0.00    +0.000 A 
ENDBRANCH   1   6
BRANCH   1   9
ATOM      9  N   UNL     1       4.274   4.561  17.841  0.00  0.00    +0.000 NA
ATOM     10  C   UNL     1       4.125   4.689  19.305  0.00  0.00    +0.000 C 
ATOM     11  C   UNL     1       2.642   4.807  19.732  0.00  0.00    +0.000 C 
ATOM     12  N   UNL     1       1.762   3.736  19.221  0.00  0.00    +0.000 NA
ATOM     13  C   UNL     1       2.005   2.468  19.909  0.00  0.00    +0.000 C 
ATOM     14  C   UNL     1       1.969   3.589  17.768  0.00  0.00    +0.000 C 
ATOM     15  C   UNL     1       3.447   3.439  17.352  0.00  0.00    +0.000 C 
ENDBRANCH   1   9
BRANCH   1  16
ATOM     16  C   UNL     1       5.909   4.028  16.012  0.00  0.00    +0.000 C 
ATOM     17  N   UNL     1       6.086   3.659  14.922  0.00  0.00    +0.000 NA
ENDBRANCH   1  16
TORSDOF 3
ENDMDL
MODEL 5
REMARK VINA RESULT:      -6.2      3.174      5.704
REMARK  Name = 
REMARK  5 active torsions:
REMARK  status: ('A' for Active; 'I' for Inactive)
REMARK    1  A    between atoms: C_1  and  C_2
REMARK    2  A    between atoms: C_5  and  C_6
REMARK    3  A    between atoms: C_6  and  C_7
REMARK    4  A    between atoms: C_6  and  N_9
REMARK    5  A    between atoms: N_12  and  C_13
REMARK                            x       y       z     vdW  Elec       q    Type
REMARK                         _______ _______ _______ _____ _____    ______ ____
ROOT
ATOM      1  C   UNL     1       3.365   6.415  18.827  0.00  0.00    +0.000 C 
ENDROOT
BRANCH   1   6
ATOM      2  C   UNL     1      -0.168  11.042  19.375  0.00  0.00    +0.000 C 
ATOM      3  C   UNL     1       0.702   9.832  19.223  0.00  0.00    +0.000 A 
ATOM      4  C   UNL     1       0.971   9.019  20.326  0.00  0.00    +0.000 A 
ATOM      5  C   UNL     1       1.784   7.896  20.192  0.00  0.00    +0.000 A 
ATOM      6  C   UNL     1       2.359   7.563  18.951  0.00  0.00    +0.000 A 
ATOM      7  C   UNL     1       2.092   8.390  17.848  0.00  0.00    +0.000 A 
ATOM      8  C   UNL     1       1.268   9.512  17.984  0.00  0.00    +0.000 A 
ENDBRANCH   1   6
BRANCH   1   9
ATOM      9  N   UNL     1       2.711   5.108  19.117  0.00  0.00    +0.000 NA
ATOM     10  C   UNL     1       3.567   4.214  19.922  0.00  0.00    +0.000 C 
ATOM     11  C   UNL     1       2.869   2.870  20.243  0.00  0.00    +0.000 C 
ATOM     12  N   UNL     1       2.340   2.149  19.066  0.00  0.00    +0.000 NA
ATOM     13  C   UNL     1       3.417   1.559  18.270  0.00  0.00    +0.000 C 
ATOM     14  C   UNL     1       1.535   3.076  18.250  0.00  0.00    +0.000 C 
ATOM     15  C   UNL     1       2.250   4.399  17.905  0.00  0.00    +0.000 C 
ENDBRANCH   1   9
BRANCH   1  16
ATOM     16  C   UNL     1       4.130   6.461  17.549  0.00  0.00    +0.000 C 
ATOM     17  N   UNL     1       4.724   6.472  16.547  0.00  0.00    +0.000 NA
ENDBRANCH   1  16
TORSDOF 3
ENDMDL
MODEL 6
REMARK VINA RESULT:      -6.2      2.304      3.762
REMARK  Name = 
REMARK  5 active torsions:
REMARK  status: ('A' for Active; 'I' for Inactive)
REMARK    1  A    between atoms: C_1  and  C_2
REMARK    2  A    between atoms: C_5  and  C_6
REMARK    3  A    between atoms: C_6  and  C_7
REMARK    4  A    between atoms: C_6  and  N_9
REMARK    5  A    between atoms: N_12  and  C_13
REMARK                            x       y       z     vdW  Elec       q    Type
REMARK                         _______ _______ _______ _____ _____    ______ ____
ROOT
ATOM      1  C   UNL     1       5.913   4.377  17.250  0.00  0.00    +0.000 C 
ENDROOT
BRANCH   1   6
ATOM      2  C   UNL     1       8.751   9.300  18.629  0.00  0.00    +0.000 C 
ATOM      3  C   UNL     1       8.057   8.028  18.248  0.00  0.00    +0.000 A 
ATOM      4  C   UNL     1       7.119   8.024  17.213  0.00  0.00    +0.000 A 
ATOM      5  C   UNL     1       6.466   6.847  16.859  0.00  0.00    +0.000 A 
ATOM      6  C   UNL     1       6.727   5.642  17.538  0.00  0.00    +0.000 A 
ATOM      7  C   UNL     1       7.664   5.654  18.584  0.00  0.00    +0.000 A 
ATOM      8  C   UNL     1       8.324   6.837  18.932  0.00  0.00    +0.000 A 
ENDBRANCH   1   6
BRANCH   1   9
ATOM      9  N   UNL     1       4.534   4.501  17.799  0.00  0.00    +0.000 NA
ATOM     10  C   UNL     1       4.468   4.182  19.240  0.00  0.00    +0.000 C 
ATOM     11  C   UNL     1       3.037   4.342  19.809  0.00  0.00    +0.000 C 
ATOM     12  N   UNL     1       1.991   3.602  19.073  0.00  0.00    +0.000 NA
ATOM     13  C   UNL     1       2.078   2.163  19.319  0.00  0.00    +0.000 C 
ATOM     14  C   UNL     1       2.112   3.894  17.633  0.00  0.00    +0.000 C 
ATOM     15  C   UNL     1       3.533   3.700  17.065  0.00  0.00    +0.000 C 
ENDBRANCH   1   9
BRANCH   1  16
ATOM     16  C   UNL     1       5.980   3.967  15.819  0.00  0.00    +0.000 C 
ATOM     17  N   UNL     1       6.013   3.632  14.704  0.00  0.00    +0.000 NA
ENDBRANCH   1  16
TORSDOF 3
ENDMDL
MODEL 7
REMARK VINA RESULT:      -6.1      1.006      1.783
REMARK  Name = 
REMARK  5 active torsions:
REMARK  status: ('A' for Active; 'I' for Inactive)
REMARK    1  A    between atoms: C_1  and  C_2
REMARK    2  A    between atoms: C_5  and  C_6
REMARK    3  A    between atoms: C_6  and  C_7
REMARK    4  A    between atoms: C_6  and  N_9
REMARK    5  A    between atoms: N_12  and  C_13
REMARK                            x       y       z     vdW  Elec       q    Type
REMARK                         _______ _______ _______ _____ _____    ______ ____
ROOT
ATOM      1  C   UNL     1       5.271   5.622  18.592  0.00  0.00    +0.000 C 
ENDROOT
BRANCH   1   6
ATOM      2  C   UNL     1       6.145   3.976  13.049  0.00  0.00    +0.000 C 
ATOM      3  C   UNL     1       5.880   4.382  14.467  0.00  0.00    +0.000 A 
ATOM      4  C   UNL     1       5.407   5.664  14.753  0.00  0.00    +0.000 A 
ATOM      5  C   UNL     1       5.165   6.049  16.069  0.00  0.00    +0.000 A 
ATOM      6  C   UNL     1       5.400   5.162  17.137  0.00  0.00    +0.000 A 
ATOM      7  C   UNL     1       5.884   3.877  16.844  0.00  0.00    +0.000 A 
ATOM      8  C   UNL     1       6.118   3.491  15.520  0.00  0.00    +0.000 A 
ENDBRANCH   1   6
BRANCH   1   9
ATOM      9  N   UNL     1       4.086   4.995  19.240  0.00  0.00    +0.000 NA
ATOM     10  C   UNL     1       4.322   3.583  19.605  0.00  0.00    +0.000 C 
ATOM     11  C   UNL     1       3.095   2.948  20.303  0.00  0.00    +0.000 C 
ATOM     12  N   UNL     1       1.823   3.079  19.564  0.00  0.00    +0.000 NA
ATOM     13  C   UNL     1       1.788   2.199  18.396  0.00  0.00    +0.000 C 
ATOM     14  C   UNL     1       1.637   4.486  19.162  0.00  0.00    +0.000 C 
ATOM     15  C   UNL     1       2.850   5.103  18.437  0.00  0.00    +0.000 C 
ENDBRANCH   1   9
BRANCH   1  16
ATOM     16  C   UNL     1       6.545   5.482  19.351  0.00  0.00    +0.000 C 
ATOM     17  N   UNL     1       7.529   5.380  19.965  0.00  0.00    +0.000 NA
ENDBRANCH   1  16
TORSDOF 3
ENDMDL
MODEL 8
REMARK VINA RESULT:      -6.1      3.156      5.677
REMARK  Name = 
REMARK  5 active torsions:
REMARK  status: ('A' for Active; 'I' for Inactive)
REMARK    1  A    between atoms: C_1  and  C_2
REMARK    2  A    between atoms: C_5  and  C_6
REMARK    3  A    between atoms: C_6  and  C_7
REMARK    4  A    between atoms: C_6  and  N_9
REMARK    5  A    between atoms: N_12  and  C_13
REMARK                            x       y       z     vdW  Elec       q    Type
REMARK                         _______ _______ _______ _____ _____    ______ ____
ROOT
ATOM      1  C   UNL     1       3.427   6.436  18.751  0.00  0.00    +0.000 C 
ENDROOT
BRANCH   1   6
ATOM      2  C   UNL     1      -0.434  10.792  19.312  0.00  0.00    +0.000 C 
ATOM      3  C   UNL     1       0.588   9.704  19.180  0.00  0.00    +0.000 A 
ATOM      4  C   UNL     1       1.206   9.466  17.951  0.00  0.00    +0.000 A 
ATOM      5  C   UNL     1       2.151   8.452  17.822  0.00  0.00    +0.000 A 
ATOM      6  C   UNL     1       2.496   7.640  18.918  0.00  0.00    +0.000 A 
ATOM      7  C   UNL     1       1.864   7.878  20.150  0.00  0.00    +0.000 A 
ATOM      8  C   UNL     1       0.921   8.903  20.279  0.00  0.00    +0.000 A 
ENDBRANCH   1   6
BRANCH   1   9
ATOM      9  N   UNL     1       2.701   5.166  19.034  0.00  0.00    +0.000 NA
ATOM     10  C   UNL     1       3.450   4.277  19.945  0.00  0.00    +0.000 C 
ATOM     11  C   UNL     1       2.676   2.973  20.256  0.00  0.00    +0.000 C 
ATOM     12  N   UNL     1       2.222   2.222  19.067  0.00  0.00    +0.000 NA
ATOM     13  C   UNL     1       3.339   1.562  18.391  0.00  0.00    +0.000 C 
ATOM     14  C   UNL     1       1.526   3.142  18.148  0.00  0.00    +0.000 C 
ATOM     15  C   UNL     1       2.318   4.423  17.815  0.00  0.00    +0.000 C 
ENDBRANCH   1   9
BRANCH   1  16
ATOM     16  C   UNL     1       4.165   6.458  17.457  0.00  0.00    +0.000 C 
ATOM     17  N   UNL     1       4.757   6.458  16.454  0.00  0.00    +0.000 NA
ENDBRANCH   1  16
TORSDOF 3
ENDMDL
MODEL 9
REMARK VINA RESULT:      -6.1      2.989      6.418
REMARK  Name = 
REMARK  5 active torsions:
REMARK  status: ('A' for Active; 'I' for Inactive)
REMARK    1  A    between atoms: C_1  and  C_2
REMARK    2  A    between atoms: C_5  and  C_6
REMARK    3  A    between atoms: C_6  and  C_7
REMARK    4  A    between atoms: C_6  and  N_9
REMARK    5  A    between atoms: N_12  and  C_13
REMARK                            x       y       z     vdW  Elec       q    Type
REMARK                         _______ _______ _______ _____ _____    ______ ____
ROOT
ATOM      1  C   UNL     1       3.134   6.339  17.814  0.00  0.00    +0.000 C 
ENDROOT
BRANCH   1   6
ATOM      2  C   UNL     1       0.325  10.597  20.673  0.00  0.00    +0.000 C 
ATOM      3  C   UNL     1       1.006   9.488  19.930  0.00  0.00    +0.000 A 
ATOM      4  C   UNL     1       1.410   8.336  20.606  0.00  0.00    +0.000 A 
ATOM      5  C   UNL     1       2.049   7.305  19.923  0.00  0.00    +0.000 A 
ATOM      6  C   UNL     1       2.310   7.404  18.543  0.00  0.00    +0.000 A 
ATOM      7  C   UNL     1       1.909   8.569  17.870  0.00  0.00    +0.000 A 
ATOM      8  C   UNL     1       1.260   9.600  18.558  0.00  0.00    +0.000 A 
ENDBRANCH   1   6
BRANCH   1   9
ATOM      9  N   UNL     1       4.574   6.446  18.181  0.00  0.00    +0.000 NA
ATOM     10  C   UNL     1       5.439   6.700  17.010  0.00  0.00    +0.000 C 
ATOM     11  C   UNL     1       6.929   6.838  17.405  0.00  0.00    +0.000 C 
ATOM     12  N   UNL     1       7.466   5.716  18.203  0.00  0.00    +0.000 NA
ATOM     13  C   UNL     1       7.649   4.516  17.388  0.00  0.00    +0.000 C 
ATOM     14  C   UNL     1       6.558   5.446  19.333  0.00  0.00    +0.000 C 
ATOM     15  C   UNL     1       5.079   5.276  18.929  0.00  0.00    +0.000 C 
ENDBRANCH   1   9
BRANCH   1  16
ATOM     16  C   UNL     1       2.554   4.974  17.949  0.00  0.00    +0.000 C 
ATOM     17  N   UNL     1       2.120   3.897  18.041  0.00  0.00    +0.000 NA
ENDBRANCH   1  16
TORSDOF 3
ENDMDL
