MODEL 1
REMARK VINA RESULT:      -9.8      0.000      0.000
REMARK  Name = 
REMARK  8 active torsions:
REMARK  status: ('A' for Active; 'I' for Inactive)
REMARK    1  A    between atoms: C_1  and  N_2
REMARK    2  A    between atoms: C_5  and  S_6
REMARK    3  A    between atoms: S_6  and  N_9
REMARK    4  A    between atoms: N_9  and  C_10
REMARK    5  A    between atoms: C_10  and  C_11
REMARK    6  A    between atoms: C_17  and  C_18
REMARK    7  A    between atoms: C_18  and  C_19
REMARK    8  A    between atoms: C_25  and  N_26
REMARK                            x       y       z     vdW  Elec       q    Type
REMARK                         _______ _______ _______ _____ _____    ______ ____
ROOT
ATOM      1  C   UNL     1       4.143   5.532  17.898  0.00  0.00    +0.000 A 
ATOM      2  C   UNL     1       4.168   6.462  16.855  0.00  0.00    +0.000 A 
ATOM      3  C   UNL     1       3.505   7.674  16.986  0.00  0.00    +0.000 A 
ATOM      4  C   UNL     1       2.761   7.966  18.140  0.00  0.00    +0.000 A 
ATOM      5  C   UNL     1       2.703   7.047  19.205  0.00  0.00    +0.000 A 
ATOM      6  C   UNL     1       3.428   5.843  19.072  0.00  0.00    +0.000 A 
ATOM      7  C   UNL     1       1.859   7.321  20.470  0.00  0.00    +0.000 C 
ATOM      8  C   UNL     1       1.277   8.796  20.523  0.00  0.00    +0.000 C 
ATOM      9  C   UNL     1       0.881   9.291  19.119  0.00  0.00    +0.000 C 
ATOM     10  C   UNL     1       2.086   9.303  18.202  0.00  0.00    +0.000 C 
ENDROOT
BRANCH   8  11
ATOM     11  N   UNL     1       0.127   9.004  21.428  0.00  0.00    +0.000 NA
ATOM     12  C   UNL     1       0.520   9.324  22.832  0.00  0.00    +0.000 C 
ATOM     13  C   UNL     1      -0.700  10.276  22.853  0.00  0.00    +0.000 C 
ATOM     14  C   UNL     1      -0.399  10.410  21.349  0.00  0.00    +0.000 C 
ENDBRANCH   8  11
BRANCH   1  15
ATOM     15  C   UNL     1       4.830   4.197  17.721  0.00  0.00    +0.000 C 
BRANCH  15  16
ATOM     16  N   UNL     1       6.121   4.146  18.421  0.00  0.00    +0.000 NA
ATOM     17  H   UNL     1       6.104   4.511  19.369  0.00  0.00    +0.000 HD
BRANCH  16  18
ATOM     18  S   UNL     1       7.424   4.802  17.583  0.00  0.00    +0.000 S 
ATOM     19  O   UNL     1       8.565   3.954  17.821  0.00  0.00    +0.000 OA
ATOM     20  O   UNL     1       7.466   6.227  17.856  0.00  0.00    +0.000 OA
BRANCH  18  25
ATOM     21  C   UNL     1       5.798   3.365  12.825  0.00  0.00    +0.000 C 
ATOM     22  N   UNL     1       6.446   4.065  13.907  0.00  0.00    +0.000 N 
ATOM     23  C   UNL     1       7.232   5.174  13.783  0.00  0.00    +0.000 A 
ATOM     24  N   UNL     1       7.679   5.580  14.948  0.00  0.00    +0.000 NA
ATOM     25  C   UNL     1       7.136   4.694  15.868  0.00  0.00    +0.000 A 
ATOM     26  C   UNL     1       6.374   3.737  15.227  0.00  0.00    +0.000 A 
ENDBRANCH  18  25
ENDBRANCH  16  18
ENDBRANCH  15  16
ENDBRANCH   1  15
BRANCH   7  27
ATOM     27  C   UNL     1       0.852   6.163  20.795  0.00  0.00    +0.000 C 
BRANCH  27  28
ATOM     28  C   UNL     1       1.372   4.761  20.592  0.00  0.00    +0.000 A 
ATOM     29  C   UNL     1       0.933   3.982  19.513  0.00  0.00    +0.000 A 
ATOM     30  C   UNL     1       1.217   2.619  19.468  0.00  0.00    +0.000 A 
ATOM     31  C   UNL     1       1.953   2.028  20.492  0.00  0.00    +0.000 A 
ATOM     32  C   UNL     1       2.490   2.817  21.505  0.00  0.00    +0.000 A 
ATOM     33  C   UNL     1       2.230   4.185  21.534  0.00  0.00    +0.000 A 
ENDBRANCH  27  28
ENDBRANCH   7  27
TORSDOF 7
ENDMDL
MODEL 2
REMARK VINA RESULT:      -9.2      1.836      2.537
REMARK  Name = 
REMARK  8 active torsions:
REMARK  status: ('A' for Active; 'I' for Inactive)
REMARK    1  A    between atoms: C_1  and  N_2
REMARK    2  A    between atoms: C_5  and  S_6
REMARK    3  A    between atoms: S_6  and  N_9
REMARK    4  A    between atoms: N_9  and  C_10
REMARK    5  A    between atoms: C_10  and  C_11
REMARK    6  A    between atoms: C_17  and  C_18
REMARK    7  A    between atoms: C_18  and  C_19
REMARK    8  A    between atoms: C_25  and  N_26
REMARK                            x       y       z     vdW  Elec       q    Type
REMARK                         _______ _______ _______ _____ _____    ______ ____
ROOT
ATOM      1  C   UNL     1       4.114   5.557  17.984  0.00  0.00    +0.000 A 
ATOM      2  C   UNL     1       4.110   6.457  16.914  0.00  0.00    +0.000 A 
ATOM      3  C   UNL     1       3.428   7.660  17.019  0.00  0.00    +0.000 A 
ATOM      4  C   UNL     1       2.695   7.974  18.175  0.00  0.00    +0.000 A 
ATOM      5  C   UNL     1       2.667   7.086  19.267  0.00  0.00    +0.000 A 
ATOM      6  C   UNL     1       3.411   5.890  19.158  0.00  0.00    +0.000 A 
ATOM      7  C   UNL     1       1.837   7.383  20.535  0.00  0.00    +0.000 C 
ATOM      8  C   UNL     1       1.230   8.849  20.555  0.00  0.00    +0.000 C 
ATOM      9  C   UNL     1       0.806   9.295  19.142  0.00  0.00    +0.000 C 
ATOM     10  C   UNL     1       1.999   9.301  18.208  0.00  0.00    +0.000 C 
ENDROOT
BRANCH   8  11
ATOM     11  N   UNL     1       0.090   9.064  21.470  0.00  0.00    +0.000 NA
ATOM     12  C   UNL     1       0.497   9.355  22.875  0.00  0.00    +0.000 C 
ATOM     13  C   UNL     1      -0.705  10.329  22.918  0.00  0.00    +0.000 C 
ATOM     14  C   UNL     1      -0.411  10.480  21.415  0.00  0.00    +0.000 C 
ENDBRANCH   8  11
BRANCH   1  15
ATOM     15  C   UNL     1       4.822   4.229  17.836  0.00  0.00    +0.000 C 
BRANCH  15  16
ATOM     16  N   UNL     1       6.131   4.225  18.502  0.00  0.00    +0.000 NA
ATOM     17  H   UNL     1       6.156   4.721  19.390  0.00  0.00    +0.000 HD
BRANCH  16  18
ATOM     18  S   UNL     1       7.430   4.705  17.547  0.00  0.00    +0.000 S 
ATOM     19  O   UNL     1       7.047   4.524  16.170  0.00  0.00    +0.000 OA
ATOM     20  O   UNL     1       8.636   4.103  18.087  0.00  0.00    +0.000 OA
BRANCH  18  25
ATOM     21  C   UNL     1       8.910   9.440  19.200  0.00  0.00    +0.000 C 
ATOM     22  N   UNL     1       8.313   8.371  18.438  0.00  0.00    +0.000 N 
ATOM     23  C   UNL     1       7.579   8.517  17.296  0.00  0.00    +0.000 A 
ATOM     24  N   UNL     1       7.171   7.359  16.836  0.00  0.00    +0.000 NA
ATOM     25  C   UNL     1       7.686   6.421  17.719  0.00  0.00    +0.000 A 
ATOM     26  C   UNL     1       8.391   7.043  18.730  0.00  0.00    +0.000 A 
ENDBRANCH  18  25
ENDBRANCH  16  18
ENDBRANCH  15  16
ENDBRANCH   1  15
BRANCH   7  27
ATOM     27  C   UNL     1       0.854   6.218  20.909  0.00  0.00    +0.000 C 
BRANCH  27  28
ATOM     28  C   UNL     1       1.351   4.821  20.629  0.00  0.00    +0.000 A 
ATOM     29  C   UNL     1       0.894   4.106  19.514  0.00  0.00    +0.000 A 
ATOM     30  C   UNL     1       1.157   2.743  19.396  0.00  0.00    +0.000 A 
ATOM     31  C   UNL     1       1.891   2.088  20.383  0.00  0.00    +0.000 A 
ATOM     32  C   UNL     1       2.446   2.815  21.432  0.00  0.00    +0.000 A 
ATOM     33  C   UNL     1       2.207   4.184  21.533  0.00  0.00    +0.000 A 
ENDBRANCH  27  28
ENDBRANCH   7  27
TORSDOF 7
ENDMDL
MODEL 3
REMARK VINA RESULT:      -9.1      1.920      2.698
REMARK  Name = 
REMARK  8 active torsions:
REMARK  status: ('A' for Active; 'I' for Inactive)
REMARK    1  A    between atoms: C_1  and  N_2
REMARK    2  A    between atoms: C_5  and  S_6
REMARK    3  A    between atoms: S_6  and  N_9
REMARK    4  A    between atoms: N_9  and  C_10
REMARK    5  A    between atoms: C_10  and  C_11
REMARK    6  A    between atoms: C_17  and  C_18
REMARK    7  A    between atoms: C_18  and  C_19
REMARK    8  A    between atoms: C_25  and  N_26
REMARK                            x       y       z     vdW  Elec       q    Type
REMARK                         _______ _______ _______ _____ _____    ______ ____
ROOT
ATOM      1  C   UNL     1       3.950   5.677  17.705  0.00  0.00    +0.000 A 
ATOM      2  C   UNL     1       3.987   6.708  16.763  0.00  0.00    +0.000 A 
ATOM      3  C   UNL     1       3.361   7.918  17.029  0.00  0.00    +0.000 A 
ATOM      4  C   UNL     1       2.644   8.109  18.221  0.00  0.00    +0.000 A 
ATOM      5  C   UNL     1       2.575   7.088  19.187  0.00  0.00    +0.000 A 
ATOM      6  C   UNL     1       3.263   5.884  18.918  0.00  0.00    +0.000 A 
ATOM      7  C   UNL     1       1.760   7.253  20.488  0.00  0.00    +0.000 C 
ATOM      8  C   UNL     1       1.222   8.730  20.704  0.00  0.00    +0.000 C 
ATOM      9  C   UNL     1       0.818   9.377  19.365  0.00  0.00    +0.000 C 
ATOM     10  C   UNL     1       2.009   9.451  18.432  0.00  0.00    +0.000 C 
ENDROOT
BRANCH   8  11
ATOM     11  N   UNL     1       0.092   8.874  21.646  0.00  0.00    +0.000 NA
ATOM     12  C   UNL     1       0.510   9.259  23.026  0.00  0.00    +0.000 C 
ATOM     13  C   UNL     1      -0.777  10.117  23.071  0.00  0.00    +0.000 C 
ATOM     14  C   UNL     1      -0.540  10.234  21.554  0.00  0.00    +0.000 C 
ENDBRANCH   8  11
BRANCH   1  15
ATOM     15  C   UNL     1       4.596   4.348  17.379  0.00  0.00    +0.000 C 
BRANCH  15  16
ATOM     16  N   UNL     1       5.945   4.514  16.820  0.00  0.00    +0.000 NA
ATOM     17  H   UNL     1       6.234   3.775  16.185  0.00  0.00    +0.000 HD
BRANCH  16  18
ATOM     18  S   UNL     1       7.162   4.806  17.944  0.00  0.00    +0.000 S 
ATOM     19  O   UNL     1       8.346   4.119  17.490  0.00  0.00    +0.000 OA
ATOM     20  O   UNL     1       6.616   4.584  19.271  0.00  0.00    +0.000 OA
BRANCH  18  25
ATOM     21  C   UNL     1       9.058   9.539  19.104  0.00  0.00    +0.000 C 
ATOM     22  N   UNL     1       8.386   8.448  18.442  0.00  0.00    +0.000 N 
ATOM     23  C   UNL     1       7.722   8.524  17.251  0.00  0.00    +0.000 A 
ATOM     24  N   UNL     1       7.215   7.364  16.909  0.00  0.00    +0.000 NA
ATOM     25  C   UNL     1       7.589   6.496  17.925  0.00  0.00    +0.000 A 
ATOM     26  C   UNL     1       8.310   7.165  18.894  0.00  0.00    +0.000 A 
ENDBRANCH  18  25
ENDBRANCH  16  18
ENDBRANCH  15  16
ENDBRANCH   1  15
BRANCH   7  27
ATOM     27  C   UNL     1       0.725   6.095  20.711  0.00  0.00    +0.000 C 
BRANCH  27  28
ATOM     28  C   UNL     1       1.270   4.692  20.600  0.00  0.00    +0.000 A 
ATOM     29  C   UNL     1       2.270   4.241  21.471  0.00  0.00    +0.000 A 
ATOM     30  C   UNL     1       2.943   3.048  21.212  0.00  0.00    +0.000 A 
ATOM     31  C   UNL     1       2.611   2.292  20.090  0.00  0.00    +0.000 A 
ATOM     32  C   UNL     1       1.541   2.677  19.286  0.00  0.00    +0.000 A 
ATOM     33  C   UNL     1       0.850   3.854  19.563  0.00  0.00    +0.000 A 
ENDBRANCH  27  28
ENDBRANCH   7  27
TORSDOF 7
ENDMDL
MODEL 4
REMARK VINA RESULT:      -9.0      4.310      8.600
REMARK  Name = 
REMARK  8 active torsions:
REMARK  status: ('A' for Active; 'I' for Inactive)
REMARK    1  A    between atoms: C_1  and  N_2
REMARK    2  A    between atoms: C_5  and  S_6
REMARK    3  A    between atoms: S_6  and  N_9
REMARK    4  A    between atoms: N_9  and  C_10
REMARK    5  A    between atoms: C_10  and  C_11
REMARK    6  A    between atoms: C_17  and  C_18
REMARK    7  A    between atoms: C_18  and  C_19
REMARK    8  A    between atoms: C_25  and  N_26
REMARK                            x       y       z     vdW  Elec       q    Type
REMARK                         _______ _______ _______ _____ _____    ______ ____
ROOT
ATOM      1  C   UNL     1       1.505   9.080  19.376  0.00  0.00    +0.000 A 
ATOM      2  C   UNL     1       0.643   8.717  20.415  0.00  0.00    +0.000 A 
ATOM      3  C   UNL     1       0.734   7.456  20.987  0.00  0.00    +0.000 A 
ATOM      4  C   UNL     1       1.653   6.512  20.504  0.00  0.00    +0.000 A 
ATOM      5  C   UNL     1       2.528   6.838  19.450  0.00  0.00    +0.000 A 
ATOM      6  C   UNL     1       2.454   8.145  18.918  0.00  0.00    +0.000 A 
ATOM      7  C   UNL     1       3.521   5.808  18.869  0.00  0.00    +0.000 C 
ATOM      8  C   UNL     1       3.596   4.468  19.714  0.00  0.00    +0.000 C 
ATOM      9  C   UNL     1       2.213   4.086  20.277  0.00  0.00    +0.000 C 
ATOM     10  C   UNL     1       1.691   5.178  21.188  0.00  0.00    +0.000 C 
ENDROOT
BRANCH   8  11
ATOM     11  N   UNL     1       4.151   3.291  19.013  0.00  0.00    +0.000 NA
ATOM     12  C   UNL     1       4.395   2.121  19.906  0.00  0.00    +0.000 C 
ATOM     13  C   UNL     1       3.943   1.242  18.715  0.00  0.00    +0.000 C 
ATOM     14  C   UNL     1       3.073   2.464  18.371  0.00  0.00    +0.000 C 
ENDBRANCH   8  11
BRANCH   1  15
ATOM     15  C   UNL     1       1.362  10.441  18.732  0.00  0.00    +0.000 C 
BRANCH  15  16
ATOM     16  N   UNL     1       0.095  10.572  17.998  0.00  0.00    +0.000 NA
ATOM     17  H   UNL     1       0.196  10.639  16.989  0.00  0.00    +0.000 HD
BRANCH  16  18
ATOM     18  S   UNL     1      -0.938  11.779  18.549  0.00  0.00    +0.000 S 
ATOM     19  O   UNL     1      -0.471  13.031  18.008  0.00  0.00    +0.000 OA
ATOM     20  O   UNL     1      -1.131  11.593  19.976  0.00  0.00    +0.000 OA
BRANCH  18  25
ATOM     21  C   UNL     1      -6.101  11.465  17.785  0.00  0.00    +0.000 C 
ATOM     22  N   UNL     1      -4.674  11.430  17.583  0.00  0.00    +0.000 N 
ATOM     23  C   UNL     1      -4.040  11.120  16.414  0.00  0.00    +0.000 A 
ATOM     24  N   UNL     1      -2.736  11.175  16.545  0.00  0.00    +0.000 NA
ATOM     25  C   UNL     1      -2.524  11.556  17.862  0.00  0.00    +0.000 A 
ATOM     26  C   UNL     1      -3.728  11.707  18.523  0.00  0.00    +0.000 A 
ENDBRANCH  18  25
ENDBRANCH  16  18
ENDBRANCH  15  16
ENDBRANCH   1  15
BRANCH   7  27
ATOM     27  C   UNL     1       3.390   5.644  17.313  0.00  0.00    +0.000 C 
BRANCH  27  28
ATOM     28  C   UNL     1       4.681   5.432  16.562  0.00  0.00    +0.000 A 
ATOM     29  C   UNL     1       4.824   4.363  15.668  0.00  0.00    +0.000 A 
ATOM     30  C   UNL     1       6.080   4.024  15.170  0.00  0.00    +0.000 A 
ATOM     31  C   UNL     1       7.200   4.761  15.551  0.00  0.00    +0.000 A 
ATOM     32  C   UNL     1       7.048   5.894  16.346  0.00  0.00    +0.000 A 
ATOM     33  C   UNL     1       5.787   6.248  16.818  0.00  0.00    +0.000 A 
ENDBRANCH  27  28
ENDBRANCH   7  27
TORSDOF 7
ENDMDL
MODEL 5
REMARK VINA RESULT:      -9.0      4.345      8.318
REMARK  Name = 
REMARK  8 active torsions:
REMARK  status: ('A' for Active; 'I' for Inactive)
REMARK    1  A    between atoms: C_1  and  N_2
REMARK    2  A    between atoms: C_5  and  S_6
REMARK    3  A    between atoms: S_6  and  N_9
REMARK    4  A    between atoms: N_9  and  C_10
REMARK    5  A    between atoms: C_10  and  C_11
REMARK    6  A    between atoms: C_17  and  C_18
REMARK    7  A    between atoms: C_18  and  C_19
REMARK    8  A    between atoms: C_25  and  N_26
REMARK                            x       y       z     vdW  Elec       q    Type
REMARK                         _______ _______ _______ _____ _____    ______ ____
ROOT
ATOM      1  C   UNL     1       1.428   8.980  19.645  0.00  0.00    +0.000 A 
ATOM      2  C   UNL     1       0.562   8.553  20.656  0.00  0.00    +0.000 A 
ATOM      3  C   UNL     1       0.655   7.261  21.153  0.00  0.00    +0.000 A 
ATOM      4  C   UNL     1       1.581   6.350  20.621  0.00  0.00    +0.000 A 
ATOM      5  C   UNL     1       2.460   6.741  19.593  0.00  0.00    +0.000 A 
ATOM      6  C   UNL     1       2.383   8.076  19.138  0.00  0.00    +0.000 A 
ATOM      7  C   UNL     1       3.460   5.750  18.959  0.00  0.00    +0.000 C 
ATOM      8  C   UNL     1       3.536   4.363  19.726  0.00  0.00    +0.000 C 
ATOM      9  C   UNL     1       2.152   3.944  20.257  0.00  0.00    +0.000 C 
ATOM     10  C   UNL     1       1.621   4.979  21.227  0.00  0.00    +0.000 C 
ENDROOT
BRANCH   8  11
ATOM     11  N   UNL     1       4.100   3.232  18.960  0.00  0.00    +0.000 NA
ATOM     12  C   UNL     1       4.434   2.046  19.802  0.00  0.00    +0.000 C 
ATOM     13  C   UNL     1       3.957   1.186  18.607  0.00  0.00    +0.000 C 
ATOM     14  C   UNL     1       3.024   2.382  18.346  0.00  0.00    +0.000 C 
ENDBRANCH   8  11
BRANCH   1  15
ATOM     15  C   UNL     1       1.283  10.375  19.080  0.00  0.00    +0.000 C 
BRANCH  15  16
ATOM     16  N   UNL     1       0.221  10.450  18.066  0.00  0.00    +0.000 NA
ATOM     17  H   UNL     1       0.553  10.602  17.117  0.00  0.00    +0.000 HD
BRANCH  16  18
ATOM     18  S   UNL     1      -1.031  11.519  18.409  0.00  0.00    +0.000 S 
ATOM     19  O   UNL     1      -0.567  12.847  18.097  0.00  0.00    +0.000 OA
ATOM     20  O   UNL     1      -1.564  11.187  19.718  0.00  0.00    +0.000 OA
BRANCH  18  25
ATOM     21  C   UNL     1      -3.994  10.154  14.322  0.00  0.00    +0.000 C 
ATOM     22  N   UNL     1      -3.558  10.666  15.598  0.00  0.00    +0.000 N 
ATOM     23  C   UNL     1      -4.360  11.221  16.552  0.00  0.00    +0.000 A 
ATOM     24  N   UNL     1      -3.670  11.592  17.604  0.00  0.00    +0.000 NA
ATOM     25  C   UNL     1      -2.359  11.240  17.315  0.00  0.00    +0.000 A 
ATOM     26  C   UNL     1      -2.276  10.671  16.060  0.00  0.00    +0.000 A 
ENDBRANCH  18  25
ENDBRANCH  16  18
ENDBRANCH  15  16
ENDBRANCH   1  15
BRANCH   7  27
ATOM     27  C   UNL     1       3.339   5.676  17.396  0.00  0.00    +0.000 C 
BRANCH  27  28
ATOM     28  C   UNL     1       4.630   5.466  16.643  0.00  0.00    +0.000 A 
ATOM     29  C   UNL     1       4.761   4.415  15.726  0.00  0.00    +0.000 A 
ATOM     30  C   UNL     1       6.015   4.072  15.224  0.00  0.00    +0.000 A 
ATOM     31  C   UNL     1       7.143   4.785  15.625  0.00  0.00    +0.000 A 
ATOM     32  C   UNL     1       7.003   5.901  16.445  0.00  0.00    +0.000 A 
ATOM     33  C   UNL     1       5.745   6.261  16.922  0.00  0.00    +0.000 A 
ENDBRANCH  27  28
ENDBRANCH   7  27
TORSDOF 7
ENDMDL
MODEL 6
REMARK VINA RESULT:      -8.6      4.048      8.717
REMARK  Name = 
REMARK  8 active torsions:
REMARK  status: ('A' for Active; 'I' for Inactive)
REMARK    1  A    between atoms: C_1  and  N_2
REMARK    2  A    between atoms: C_5  and  S_6
REMARK    3  A    between atoms: S_6  and  N_9
REMARK    4  A    between atoms: N_9  and  C_10
REMARK    5  A    between atoms: C_10  and  C_11
REMARK    6  A    between atoms: C_17  and  C_18
REMARK    7  A    between atoms: C_18  and  C_19
REMARK    8  A    between atoms: C_25  and  N_26
REMARK                            x       y       z     vdW  Elec       q    Type
REMARK                         _______ _______ _______ _____ _____    ______ ____
ROOT
ATOM      1  C   UNL     1       1.688   8.990  19.081  0.00  0.00    +0.000 A 
ATOM      2  C   UNL     1       0.808   8.695  20.125  0.00  0.00    +0.000 A 
ATOM      3  C   UNL     1       0.874   7.467  20.766  0.00  0.00    +0.000 A 
ATOM      4  C   UNL     1       1.788   6.486  20.349  0.00  0.00    +0.000 A 
ATOM      5  C   UNL     1       2.682   6.744  19.292  0.00  0.00    +0.000 A 
ATOM      6  C   UNL     1       2.632   8.020  18.689  0.00  0.00    +0.000 A 
ATOM      7  C   UNL     1       3.670   5.672  18.783  0.00  0.00    +0.000 C 
ATOM      8  C   UNL     1       3.716   4.379  19.702  0.00  0.00    +0.000 C 
ATOM      9  C   UNL     1       2.321   4.045  20.264  0.00  0.00    +0.000 C 
ATOM     10  C   UNL     1       1.800   5.192  21.106  0.00  0.00    +0.000 C 
ENDROOT
BRANCH   8  11
ATOM     11  N   UNL     1       4.266   3.160  19.075  0.00  0.00    +0.000 NA
ATOM     12  C   UNL     1       4.440   2.023  20.026  0.00  0.00    +0.000 C 
ATOM     13  C   UNL     1       4.014   1.106  18.855  0.00  0.00    +0.000 C 
ATOM     14  C   UNL     1       3.193   2.335  18.423  0.00  0.00    +0.000 C 
ENDBRANCH   8  11
BRANCH   1  15
ATOM     15  C   UNL     1       1.571  10.315  18.361  0.00  0.00    +0.000 C 
BRANCH  15  16
ATOM     16  N   UNL     1       0.172  10.670  18.085  0.00  0.00    +0.000 NA
ATOM     17  H   UNL     1      -0.060  10.740  17.098  0.00  0.00    +0.000 HD
BRANCH  16  18
ATOM     18  S   UNL     1      -0.405  12.022  18.903  0.00  0.00    +0.000 S 
ATOM     19  O   UNL     1      -0.053  13.183  18.125  0.00  0.00    +0.000 OA
ATOM     20  O   UNL     1      -0.029  11.901  20.300  0.00  0.00    +0.000 OA
BRANCH  18  25
ATOM     21  C   UNL     1      -5.447  11.298  17.724  0.00  0.00    +0.000 C 
ATOM     22  N   UNL     1      -4.231  11.690  18.393  0.00  0.00    +0.000 N 
ATOM     23  C   UNL     1      -4.152  12.343  19.589  0.00  0.00    +0.000 A 
ATOM     24  N   UNL     1      -2.906  12.561  19.936  0.00  0.00    +0.000 NA
ATOM     25  C   UNL     1      -2.147  12.003  18.917  0.00  0.00    +0.000 A 
ATOM     26  C   UNL     1      -2.965  11.467  17.942  0.00  0.00    +0.000 A 
ENDBRANCH  18  25
ENDBRANCH  16  18
ENDBRANCH  15  16
ENDBRANCH   1  15
BRANCH   7  27
ATOM     27  C   UNL     1       3.559   5.424  17.238  0.00  0.00    +0.000 C 
BRANCH  27  28
ATOM     28  C   UNL     1       4.853   5.112  16.525  0.00  0.00    +0.000 A 
ATOM     29  C   UNL     1       5.995   5.896  16.738  0.00  0.00    +0.000 A 
ATOM     30  C   UNL     1       7.103   5.765  15.903  0.00  0.00    +0.000 A 
ATOM     31  C   UNL     1       7.082   4.841  14.860  0.00  0.00    +0.000 A 
ATOM     32  C   UNL     1       5.997   3.981  14.717  0.00  0.00    +0.000 A 
ATOM     33  C   UNL     1       4.903   4.093  15.571  0.00  0.00    +0.000 A 
ENDBRANCH  27  28
ENDBRANCH   7  27
TORSDOF 7
ENDMDL
MODEL 7
REMARK VINA RESULT:      -8.6      3.931      8.898
REMARK  Name = 
REMARK  8 active torsions:
REMARK  status: ('A' for Active; 'I' for Inactive)
REMARK    1  A    between atoms: C_1  and  N_2
REMARK    2  A    between atoms: C_5  and  S_6
REMARK    3  A    between atoms: S_6  and  N_9
REMARK    4  A    between atoms: N_9  and  C_10
REMARK    5  A    between atoms: C_10  and  C_11
REMARK    6  A    between atoms: C_17  and  C_18
REMARK    7  A    between atoms: C_18  and  C_19
REMARK    8  A    between atoms: C_25  and  N_26
REMARK                            x       y       z     vdW  Elec       q    Type
REMARK                         _______ _______ _______ _____ _____    ______ ____
ROOT
ATOM      1  C   UNL     1       1.614   9.052  19.194  0.00  0.00    +0.000 A 
ATOM      2  C   UNL     1       0.758   8.738  20.253  0.00  0.00    +0.000 A 
ATOM      3  C   UNL     1       0.839   7.498  20.870  0.00  0.00    +0.000 A 
ATOM      4  C   UNL     1       1.742   6.525  20.414  0.00  0.00    +0.000 A 
ATOM      5  C   UNL     1       2.611   6.802  19.341  0.00  0.00    +0.000 A 
ATOM      6  C   UNL     1       2.547   8.089  18.762  0.00  0.00    +0.000 A 
ATOM      7  C   UNL     1       3.586   5.739  18.789  0.00  0.00    +0.000 C 
ATOM      8  C   UNL     1       3.653   4.430  19.684  0.00  0.00    +0.000 C 
ATOM      9  C   UNL     1       2.271   4.086  20.273  0.00  0.00    +0.000 C 
ATOM     10  C   UNL     1       1.771   5.218  21.147  0.00  0.00    +0.000 C 
ENDROOT
BRANCH   8  11
ATOM     11  N   UNL     1       4.187   3.222  19.021  0.00  0.00    +0.000 NA
ATOM     12  C   UNL     1       4.384   2.068  19.948  0.00  0.00    +0.000 C 
ATOM     13  C   UNL     1       3.928   1.172  18.771  0.00  0.00    +0.000 C 
ATOM     14  C   UNL     1       3.098   2.408  18.381  0.00  0.00    +0.000 C 
ENDBRANCH   8  11
BRANCH   1  15
ATOM     15  C   UNL     1       1.481  10.390  18.501  0.00  0.00    +0.000 C 
BRANCH  15  16
ATOM     16  N   UNL     1       0.738  11.361  19.317  0.00  0.00    +0.000 NA
ATOM     17  H   UNL     1       0.658  11.114  20.299  0.00  0.00    +0.000 HD
BRANCH  16  18
ATOM     18  S   UNL     1      -0.769  11.806  18.717  0.00  0.00    +0.000 S 
ATOM     19  O   UNL     1      -1.336  10.652  18.066  0.00  0.00    +0.000 OA
ATOM     20  O   UNL     1      -0.623  13.075  18.025  0.00  0.00    +0.000 OA
BRANCH  18  25
ATOM     21  C   UNL     1      -2.932  12.369  23.444  0.00  0.00    +0.000 C 
ATOM     22  N   UNL     1      -2.719  12.367  22.018  0.00  0.00    +0.000 N 
ATOM     23  C   UNL     1      -3.614  12.783  21.076  0.00  0.00    +0.000 A 
ATOM     24  N   UNL     1      -3.130  12.659  19.863  0.00  0.00    +0.000 NA
ATOM     25  C   UNL     1      -1.850  12.152  20.039  0.00  0.00    +0.000 A 
ATOM     26  C   UNL     1      -1.587  11.955  21.381  0.00  0.00    +0.000 A 
ENDBRANCH  18  25
ENDBRANCH  16  18
ENDBRANCH  15  16
ENDBRANCH   1  15
BRANCH   7  27
ATOM     27  C   UNL     1       3.438   5.519  17.243  0.00  0.00    +0.000 C 
BRANCH  27  28
ATOM     28  C   UNL     1       4.726   5.367  16.472  0.00  0.00    +0.000 A 
ATOM     29  C   UNL     1       4.866   4.369  15.499  0.00  0.00    +0.000 A 
ATOM     30  C   UNL     1       6.121   4.071  14.972  0.00  0.00    +0.000 A 
ATOM     31  C   UNL     1       7.242   4.778  15.403  0.00  0.00    +0.000 A 
ATOM     32  C   UNL     1       7.092   5.846  16.283  0.00  0.00    +0.000 A 
ATOM     33  C   UNL     1       5.832   6.162  16.786  0.00  0.00    +0.000 A 
ENDBRANCH  27  28
ENDBRANCH   7  27
TORSDOF 7
ENDMDL
MODEL 8
REMARK VINA RESULT:      -8.5      4.151      8.222
REMARK  Name = 
REMARK  8 active torsions:
REMARK  status: ('A' for Active; 'I' for Inactive)
REMARK    1  A    between atoms: C_1  and  N_2
REMARK    2  A    between atoms: C_5  and  S_6
REMARK    3  A    between atoms: S_6  and  N_9
REMARK    4  A    between atoms: N_9  and  C_10
REMARK    5  A    between atoms: C_10  and  C_11
REMARK    6  A    between atoms: C_17  and  C_18
REMARK    7  A    between atoms: C_18  and  C_19
REMARK    8  A    between atoms: C_25  and  N_26
REMARK                            x       y       z     vdW  Elec       q    Type
REMARK                         _______ _______ _______ _____ _____    ______ ____
ROOT
ATOM      1  C   UNL     1       1.693   9.127  19.110  0.00  0.00    +0.000 A 
ATOM      2  C   UNL     1       0.831   8.847  20.174  0.00  0.00    +0.000 A 
ATOM      3  C   UNL     1       0.885   7.615  20.809  0.00  0.00    +0.000 A 
ATOM      4  C   UNL     1       1.768   6.616  20.368  0.00  0.00    +0.000 A 
ATOM      5  C   UNL     1       2.642   6.859  19.291  0.00  0.00    +0.000 A 
ATOM      6  C   UNL     1       2.606   8.138  18.693  0.00  0.00    +0.000 A 
ATOM      7  C   UNL     1       3.595   5.767  18.756  0.00  0.00    +0.000 C 
ATOM      8  C   UNL     1       3.634   4.470  19.669  0.00  0.00    +0.000 C 
ATOM      9  C   UNL     1       2.245   4.165  20.263  0.00  0.00    +0.000 C 
ATOM     10  C   UNL     1       1.769   5.319  21.120  0.00  0.00    +0.000 C 
ENDROOT
BRANCH   8  11
ATOM     11  N   UNL     1       4.142   3.242  19.025  0.00  0.00    +0.000 NA
ATOM     12  C   UNL     1       4.338   2.106  19.973  0.00  0.00    +0.000 C 
ATOM     13  C   UNL     1       3.854   1.191  18.823  0.00  0.00    +0.000 C 
ATOM     14  C   UNL     1       3.033   2.429  18.419  0.00  0.00    +0.000 C 
ENDBRANCH   8  11
BRANCH   1  15
ATOM     15  C   UNL     1       1.589  10.457  18.397  0.00  0.00    +0.000 C 
BRANCH  15  16
ATOM     16  N   UNL     1       0.196  10.913  18.286  0.00  0.00    +0.000 NA
ATOM     17  H   UNL     1      -0.179  10.903  17.341  0.00  0.00    +0.000 HD
BRANCH  16  18
ATOM     18  S   UNL     1      -0.140  12.391  19.015  0.00  0.00    +0.000 S 
ATOM     19  O   UNL     1      -0.922  12.126  20.196  0.00  0.00    +0.000 OA
ATOM     20  O   UNL     1      -0.602  13.308  17.988  0.00  0.00    +0.000 OA
BRANCH  18  25
ATOM     21  C   UNL     1       4.359  15.017  19.468  0.00  0.00    +0.000 C 
ATOM     22  N   UNL     1       3.204  14.202  19.755  0.00  0.00    +0.000 N 
ATOM     23  C   UNL     1       2.911  13.628  20.959  0.00  0.00    +0.000 A 
ATOM     24  N   UNL     1       1.792  12.946  20.906  0.00  0.00    +0.000 NA
ATOM     25  C   UNL     1       1.336  13.107  19.605  0.00  0.00    +0.000 A 
ATOM     26  C   UNL     1       2.216  13.880  18.875  0.00  0.00    +0.000 A 
ENDBRANCH  18  25
ENDBRANCH  16  18
ENDBRANCH  15  16
ENDBRANCH   1  15
BRANCH   7  27
ATOM     27  C   UNL     1       3.442   5.527  17.212  0.00  0.00    +0.000 C 
BRANCH  27  28
ATOM     28  C   UNL     1       4.727   5.342  16.444  0.00  0.00    +0.000 A 
ATOM     29  C   UNL     1       4.887   4.265  15.562  0.00  0.00    +0.000 A 
ATOM     30  C   UNL     1       6.145   3.955  15.050  0.00  0.00    +0.000 A 
ATOM     31  C   UNL     1       7.249   4.727  15.404  0.00  0.00    +0.000 A 
ATOM     32  C   UNL     1       7.077   5.866  16.186  0.00  0.00    +0.000 A 
ATOM     33  C   UNL     1       5.814   6.191  16.673  0.00  0.00    +0.000 A 
ENDBRANCH  27  28
ENDBRANCH   7  27
TORSDOF 7
ENDMDL
MODEL 9
REMARK VINA RESULT:      -8.5      4.105      8.231
REMARK  Name = 
REMARK  8 active torsions:
REMARK  status: ('A' for Active; 'I' for Inactive)
REMARK    1  A    between atoms: C_1  and  N_2
REMARK    2  A    between atoms: C_5  and  S_6
REMARK    3  A    between atoms: S_6  and  N_9
REMARK    4  A    between atoms: N_9  and  C_10
REMARK    5  A    between atoms: C_10  and  C_11
REMARK    6  A    between atoms: C_17  and  C_18
REMARK    7  A    between atoms: C_18  and  C_19
REMARK    8  A    between atoms: C_25  and  N_26
REMARK                            x       y       z     vdW  Elec       q    Type
REMARK                         _______ _______ _______ _____ _____    ______ ____
ROOT
ATOM      1  C   UNL     1       1.791   8.899  19.005  0.00  0.00    +0.000 A 
ATOM      2  C   UNL     1       0.926   8.636  20.071  0.00  0.00    +0.000 A 
ATOM      3  C   UNL     1       0.990   7.419  20.735  0.00  0.00    +0.000 A 
ATOM      4  C   UNL     1       1.885   6.420  20.322  0.00  0.00    +0.000 A 
ATOM      5  C   UNL     1       2.762   6.646  19.243  0.00  0.00    +0.000 A 
ATOM      6  C   UNL     1       2.715   7.910  18.615  0.00  0.00    +0.000 A 
ATOM      7  C   UNL     1       3.728   5.552  18.737  0.00  0.00    +0.000 C 
ATOM      8  C   UNL     1       3.776   4.277  19.681  0.00  0.00    +0.000 C 
ATOM      9  C   UNL     1       2.388   3.971  20.276  0.00  0.00    +0.000 C 
ATOM     10  C   UNL     1       1.896   5.140  21.103  0.00  0.00    +0.000 C 
ENDROOT
BRANCH   8  11
ATOM     11  N   UNL     1       4.300   3.039  19.068  0.00  0.00    +0.000 NA
ATOM     12  C   UNL     1       4.481   1.920  20.039  0.00  0.00    +0.000 C 
ATOM     13  C   UNL     1       4.021   0.984  18.895  0.00  0.00    +0.000 C 
ATOM     14  C   UNL     1       3.205   2.213  18.455  0.00  0.00    +0.000 C 
ENDBRANCH   8  11
BRANCH   1  15
ATOM     15  C   UNL     1       1.676  10.211  18.261  0.00  0.00    +0.000 C 
BRANCH  15  16
ATOM     16  N   UNL     1       0.277  10.635  18.107  0.00  0.00    +0.000 NA
ATOM     17  H   UNL     1      -0.060  10.642  17.148  0.00  0.00    +0.000 HD
BRANCH  16  18
ATOM     18  S   UNL     1      -0.126  12.083  18.862  0.00  0.00    +0.000 S 
ATOM     19  O   UNL     1      -0.749  11.759  20.121  0.00  0.00    +0.000 OA
ATOM     20  O   UNL     1      -0.783  12.935  17.886  0.00  0.00    +0.000 OA
BRANCH  18  25
ATOM     21  C   UNL     1       3.904  14.210  21.425  0.00  0.00    +0.000 C 
ATOM     22  N   UNL     1       2.982  13.823  20.387  0.00  0.00    +0.000 N 
ATOM     23  C   UNL     1       3.082  14.152  19.066  0.00  0.00    +0.000 A 
ATOM     24  N   UNL     1       2.090  13.651  18.369  0.00  0.00    +0.000 NA
ATOM     25  C   UNL     1       1.325  12.949  19.289  0.00  0.00    +0.000 A 
ATOM     26  C   UNL     1       1.866  13.060  20.554  0.00  0.00    +0.000 A 
ENDBRANCH  18  25
ENDBRANCH  16  18
ENDBRANCH  15  16
ENDBRANCH   1  15
BRANCH   7  27
ATOM     27  C   UNL     1       3.585   5.274  17.199  0.00  0.00    +0.000 C 
BRANCH  27  28
ATOM     28  C   UNL     1       4.870   5.006  16.456  0.00  0.00    +0.000 A 
ATOM     29  C   UNL     1       6.035   5.726  16.754  0.00  0.00    +0.000 A 
ATOM     30  C   UNL     1       7.140   5.656  15.909  0.00  0.00    +0.000 A 
ATOM     31  C   UNL     1       7.095   4.857  14.768  0.00  0.00    +0.000 A 
ATOM     32  C   UNL     1       5.985   4.052  14.530  0.00  0.00    +0.000 A 
ATOM     33  C   UNL     1       4.892   4.100  15.392  0.00  0.00    +0.000 A 
ENDBRANCH  27  28
ENDBRANCH   7  27
TORSDOF 7
ENDMDL
