MODEL 1
REMARK VINA RESULT:      -8.7      0.000      0.000
REMARK  Name = 
REMARK  6 active torsions:
REMARK  status: ('A' for Active; 'I' for Inactive)
REMARK    1  A    between atoms: C_4  and  C_5
REMARK    2  A    between atoms: C_5  and  O_6
REMARK    3  A    between atoms: O_6  and  C_7
REMARK    4  A    between atoms: C_10  and  N_11
REMARK    5  A    between atoms: C_13  and  C_14
REMARK    6  A    between atoms: N_21  and  C_22
REMARK                            x       y       z     vdW  Elec       q    Type
REMARK                         _______ _______ _______ _____ _____    ______ ____
ROOT
ATOM      1  N   UNL     1       2.398   6.971  19.807  0.00  0.00    +0.000 N 
ATOM      2  N   UNL     1       2.085   8.255  20.183  0.00  0.00    +0.000 NA
ATOM      3  C   UNL     1       0.967   8.073  20.859  0.00  0.00    +0.000 A 
ATOM      4  N   UNL     1       0.549   6.822  20.996  0.00  0.00    +0.000 NA
ATOM      5  N   UNL     1       1.546   6.130  20.342  0.00  0.00    +0.000 N 
ENDROOT
BRANCH   1   9
ATOM      6  C   UNL     1       5.515   6.305  17.039  0.00  0.00    +0.000 A 
ATOM      7  C   UNL     1       5.536   5.697  18.294  0.00  0.00    +0.000 A 
ATOM      8  C   UNL     1       4.494   5.910  19.189  0.00  0.00    +0.000 A 
ATOM      9  C   UNL     1       3.443   6.744  18.819  0.00  0.00    +0.000 A 
ATOM     10  C   UNL     1       3.422   7.400  17.591  0.00  0.00    +0.000 A 
ATOM     11  C   UNL     1       4.463   7.162  16.694  0.00  0.00    +0.000 A 
BRANCH   6  12
ATOM     12  O   UNL     1       6.511   6.200  16.118  0.00  0.00    +0.000 OA
BRANCH  12  13
ATOM     13  C   UNL     1       7.063   4.893  15.879  0.00  0.00    +0.000 C 
BRANCH  13  17
ATOM     14  C   UNL     1       6.397   3.861  11.752  0.00  0.00    +0.000 A 
ATOM     15  C   UNL     1       7.488   4.647  12.115  0.00  0.00    +0.000 A 
ATOM     16  C   UNL     1       7.696   4.970  13.454  0.00  0.00    +0.000 A 
ATOM     17  C   UNL     1       6.814   4.511  14.441  0.00  0.00    +0.000 A 
ATOM     18  C   UNL     1       5.724   3.713  14.069  0.00  0.00    +0.000 A 
ATOM     19  C   UNL     1       5.518   3.389  12.727  0.00  0.00    +0.000 A 
ENDBRANCH  13  17
ENDBRANCH  12  13
ENDBRANCH   6  12
ENDBRANCH   1   9
BRANCH   3  20
ATOM     20  C   UNL     1       0.227   9.209  21.424  0.00  0.00    +0.000 A 
ATOM     21  C   UNL     1      -0.077  10.332  20.627  0.00  0.00    +0.000 A 
ATOM     22  C   UNL     1      -0.778  11.416  21.161  0.00  0.00    +0.000 A 
ATOM     23  C   UNL     1      -1.181  11.397  22.492  0.00  0.00    +0.000 A 
ATOM     24  C   UNL     1      -0.890  10.295  23.293  0.00  0.00    +0.000 A 
ATOM     25  C   UNL     1      -0.193   9.208  22.766  0.00  0.00    +0.000 A 
ENDBRANCH   3  20
BRANCH   5  26
ATOM     26  C   UNL     1       1.631   4.672  20.423  0.00  0.00    +0.000 A 
ATOM     27  C   UNL     1       1.090   3.919  19.383  0.00  0.00    +0.000 A 
ATOM     28  C   UNL     1       1.205   2.530  19.426  0.00  0.00    +0.000 A 
ATOM     29  C   UNL     1       1.841   1.914  20.507  0.00  0.00    +0.000 A 
ATOM     30  C   UNL     1       2.340   2.677  21.562  0.00  0.00    +0.000 A 
ATOM     31  C   UNL     1       2.216   4.065  21.534  0.00  0.00    +0.000 A 
ENDBRANCH   5  26
TORSDOF 6
ENDMDL
MODEL 2
REMARK VINA RESULT:      -8.6      0.144      1.509
REMARK  Name = 
REMARK  6 active torsions:
REMARK  status: ('A' for Active; 'I' for Inactive)
REMARK    1  A    between atoms: C_4  and  C_5
REMARK    2  A    between atoms: C_5  and  O_6
REMARK    3  A    between atoms: O_6  and  C_7
REMARK    4  A    between atoms: C_10  and  N_11
REMARK    5  A    between atoms: C_13  and  C_14
REMARK    6  A    between atoms: N_21  and  C_22
REMARK                            x       y       z     vdW  Elec       q    Type
REMARK                         _______ _______ _______ _____ _____    ______ ____
ROOT
ATOM      1  N   UNL     1       2.490   6.939  19.745  0.00  0.00    +0.000 N 
ATOM      2  N   UNL     1       2.189   8.218  20.144  0.00  0.00    +0.000 NA
ATOM      3  C   UNL     1       1.060   8.036  20.802  0.00  0.00    +0.000 A 
ATOM      4  N   UNL     1       0.624   6.788  20.908  0.00  0.00    +0.000 NA
ATOM      5  N   UNL     1       1.620   6.097  20.250  0.00  0.00    +0.000 N 
ENDROOT
BRANCH   1   9
ATOM      6  C   UNL     1       5.633   6.296  17.001  0.00  0.00    +0.000 A 
ATOM      7  C   UNL     1       5.651   5.691  18.257  0.00  0.00    +0.000 A 
ATOM      8  C   UNL     1       4.601   5.896  19.144  0.00  0.00    +0.000 A 
ATOM      9  C   UNL     1       3.544   6.719  18.765  0.00  0.00    +0.000 A 
ATOM     10  C   UNL     1       3.525   7.372  17.535  0.00  0.00    +0.000 A 
ATOM     11  C   UNL     1       4.576   7.141  16.646  0.00  0.00    +0.000 A 
BRANCH   6  12
ATOM     12  O   UNL     1       6.636   6.198  16.087  0.00  0.00    +0.000 OA
BRANCH  12  13
ATOM     13  C   UNL     1       7.171   4.888  15.822  0.00  0.00    +0.000 C 
BRANCH  13  17
ATOM     14  C   UNL     1       6.187   3.738  11.791  0.00  0.00    +0.000 A 
ATOM     15  C   UNL     1       5.373   3.352  12.853  0.00  0.00    +0.000 A 
ATOM     16  C   UNL     1       5.699   3.734  14.152  0.00  0.00    +0.000 A 
ATOM     17  C   UNL     1       6.842   4.504  14.401  0.00  0.00    +0.000 A 
ATOM     18  C   UNL     1       7.650   4.897  13.326  0.00  0.00    +0.000 A 
ATOM     19  C   UNL     1       7.321   4.514  12.024  0.00  0.00    +0.000 A 
ENDBRANCH  13  17
ENDBRANCH  12  13
ENDBRANCH   6  12
ENDBRANCH   1   9
BRANCH   3  20
ATOM     20  C   UNL     1       0.329   9.170  21.384  0.00  0.00    +0.000 A 
ATOM     21  C   UNL     1      -0.046   9.159  22.743  0.00  0.00    +0.000 A 
ATOM     22  C   UNL     1      -0.744  10.234  23.299  0.00  0.00    +0.000 A 
ATOM     23  C   UNL     1      -1.078  11.329  22.511  0.00  0.00    +0.000 A 
ATOM     24  C   UNL     1      -0.715  11.358  21.166  0.00  0.00    +0.000 A 
ATOM     25  C   UNL     1      -0.016  10.289  20.604  0.00  0.00    +0.000 A 
ENDBRANCH   3  20
BRANCH   5  26
ATOM     26  C   UNL     1       1.686   4.638  20.301  0.00  0.00    +0.000 A 
ATOM     27  C   UNL     1       2.169   4.038  21.463  0.00  0.00    +0.000 A 
ATOM     28  C   UNL     1       2.195   2.645  21.543  0.00  0.00    +0.000 A 
ATOM     29  C   UNL     1       1.753   1.875  20.463  0.00  0.00    +0.000 A 
ATOM     30  C   UNL     1       1.313   2.488  19.291  0.00  0.00    +0.000 A 
ATOM     31  C   UNL     1       1.298   3.879  19.197  0.00  0.00    +0.000 A 
ENDBRANCH   5  26
TORSDOF 6
ENDMDL
MODEL 3
REMARK VINA RESULT:      -8.5      3.841      7.172
REMARK  Name = 
REMARK  6 active torsions:
REMARK  status: ('A' for Active; 'I' for Inactive)
REMARK    1  A    between atoms: C_4  and  C_5
REMARK    2  A    between atoms: C_5  and  O_6
REMARK    3  A    between atoms: O_6  and  C_7
REMARK    4  A    between atoms: C_10  and  N_11
REMARK    5  A    between atoms: C_13  and  C_14
REMARK    6  A    between atoms: N_21  and  C_22
REMARK                            x       y       z     vdW  Elec       q    Type
REMARK                         _______ _______ _______ _____ _____    ______ ____
ROOT
ATOM      1  N   UNL     1      -0.329  10.839  18.886  0.00  0.00    +0.000 N 
ATOM      2  N   UNL     1      -1.650  10.610  18.587  0.00  0.00    +0.000 NA
ATOM      3  C   UNL     1      -2.203  11.765  18.907  0.00  0.00    +0.000 A 
ATOM      4  N   UNL     1      -1.388  12.719  19.336  0.00  0.00    +0.000 NA
ATOM      5  N   UNL     1      -0.164  12.088  19.252  0.00  0.00    +0.000 N 
ENDROOT
BRANCH   1   9
ATOM      6  C   UNL     1       2.421   7.643  19.092  0.00  0.00    +0.000 A 
ATOM      7  C   UNL     1       1.748   8.077  20.234  0.00  0.00    +0.000 A 
ATOM      8  C   UNL     1       0.832   9.118  20.148  0.00  0.00    +0.000 A 
ATOM      9  C   UNL     1       0.607   9.725  18.915  0.00  0.00    +0.000 A 
ATOM     10  C   UNL     1       1.300   9.341  17.770  0.00  0.00    +0.000 A 
ATOM     11  C   UNL     1       2.202   8.281  17.865  0.00  0.00    +0.000 A 
BRANCH   6  12
ATOM     12  O   UNL     1       3.372   6.670  19.084  0.00  0.00    +0.000 OA
BRANCH  12  13
ATOM     13  C   UNL     1       3.176   5.554  18.196  0.00  0.00    +0.000 C 
BRANCH  13  17
ATOM     14  C   UNL     1       0.993   2.510  20.318  0.00  0.00    +0.000 A 
ATOM     15  C   UNL     1       1.785   3.422  21.011  0.00  0.00    +0.000 A 
ATOM     16  C   UNL     1       2.483   4.405  20.314  0.00  0.00    +0.000 A 
ATOM     17  C   UNL     1       2.396   4.485  18.918  0.00  0.00    +0.000 A 
ATOM     18  C   UNL     1       1.589   3.569  18.229  0.00  0.00    +0.000 A 
ATOM     19  C   UNL     1       0.890   2.585  18.930  0.00  0.00    +0.000 A 
ENDBRANCH  13  17
ENDBRANCH  12  13
ENDBRANCH   6  12
ENDBRANCH   1   9
BRANCH   3  20
ATOM     20  C   UNL     1      -3.653  11.970  18.793  0.00  0.00    +0.000 A 
ATOM     21  C   UNL     1      -4.338  11.597  17.618  0.00  0.00    +0.000 A 
ATOM     22  C   UNL     1      -5.717  11.793  17.505  0.00  0.00    +0.000 A 
ATOM     23  C   UNL     1      -6.428  12.362  18.555  0.00  0.00    +0.000 A 
ATOM     24  C   UNL     1      -5.768  12.735  19.724  0.00  0.00    +0.000 A 
ATOM     25  C   UNL     1      -4.391  12.541  19.845  0.00  0.00    +0.000 A 
ENDBRANCH   3  20
BRANCH   5  26
ATOM     26  C   UNL     1       1.082  12.834  19.417  0.00  0.00    +0.000 A 
ATOM     27  C   UNL     1       1.748  13.270  18.272  0.00  0.00    +0.000 A 
ATOM     28  C   UNL     1       2.914  14.022  18.415  0.00  0.00    +0.000 A 
ATOM     29  C   UNL     1       3.405  14.315  19.691  0.00  0.00    +0.000 A 
ATOM     30  C   UNL     1       2.753  13.836  20.826  0.00  0.00    +0.000 A 
ATOM     31  C   UNL     1       1.595  13.071  20.692  0.00  0.00    +0.000 A 
ENDBRANCH   5  26
TORSDOF 6
ENDMDL
MODEL 4
REMARK VINA RESULT:      -8.5      3.893      7.326
REMARK  Name = 
REMARK  6 active torsions:
REMARK  status: ('A' for Active; 'I' for Inactive)
REMARK    1  A    between atoms: C_4  and  C_5
REMARK    2  A    between atoms: C_5  and  O_6
REMARK    3  A    between atoms: O_6  and  C_7
REMARK    4  A    between atoms: C_10  and  N_11
REMARK    5  A    between atoms: C_13  and  C_14
REMARK    6  A    between atoms: N_21  and  C_22
REMARK                            x       y       z     vdW  Elec       q    Type
REMARK                         _______ _______ _______ _____ _____    ______ ____
ROOT
ATOM      1  N   UNL     1      -0.389  10.877  18.912  0.00  0.00    +0.000 N 
ATOM      2  N   UNL     1      -1.712  10.640  18.629  0.00  0.00    +0.000 NA
ATOM      3  C   UNL     1      -2.270  11.786  18.971  0.00  0.00    +0.000 A 
ATOM      4  N   UNL     1      -1.457  12.743  19.398  0.00  0.00    +0.000 NA
ATOM      5  N   UNL     1      -0.229  12.124  19.289  0.00  0.00    +0.000 N 
ENDROOT
BRANCH   1   9
ATOM      6  C   UNL     1       2.393   7.705  19.040  0.00  0.00    +0.000 A 
ATOM      7  C   UNL     1       1.758   8.142  20.202  0.00  0.00    +0.000 A 
ATOM      8  C   UNL     1       0.830   9.175  20.143  0.00  0.00    +0.000 A 
ATOM      9  C   UNL     1       0.556   9.771  18.915  0.00  0.00    +0.000 A 
ATOM     10  C   UNL     1       1.211   9.384  17.748  0.00  0.00    +0.000 A 
ATOM     11  C   UNL     1       2.125   8.332  17.818  0.00  0.00    +0.000 A 
BRANCH   6  12
ATOM     12  O   UNL     1       3.351   6.740  19.005  0.00  0.00    +0.000 OA
BRANCH  12  13
ATOM     13  C   UNL     1       3.058   5.536  18.271  0.00  0.00    +0.000 C 
BRANCH  13  17
ATOM     14  C   UNL     1       1.149   2.753  20.945  0.00  0.00    +0.000 A 
ATOM     15  C   UNL     1       2.104   3.647  21.422  0.00  0.00    +0.000 A 
ATOM     16  C   UNL     1       2.712   4.546  20.549  0.00  0.00    +0.000 A 
ATOM     17  C   UNL     1       2.370   4.558  19.190  0.00  0.00    +0.000 A 
ATOM     18  C   UNL     1       1.401   3.662  18.719  0.00  0.00    +0.000 A 
ATOM     19  C   UNL     1       0.793   2.763  19.597  0.00  0.00    +0.000 A 
ENDBRANCH  13  17
ENDBRANCH  12  13
ENDBRANCH   6  12
ENDBRANCH   1   9
BRANCH   3  20
ATOM     20  C   UNL     1      -3.723  11.981  18.880  0.00  0.00    +0.000 A 
ATOM     21  C   UNL     1      -4.423  12.637  19.914  0.00  0.00    +0.000 A 
ATOM     22  C   UNL     1      -5.806  12.821  19.833  0.00  0.00    +0.000 A 
ATOM     23  C   UNL     1      -6.507  12.354  18.726  0.00  0.00    +0.000 A 
ATOM     24  C   UNL     1      -5.831  11.706  17.696  0.00  0.00    +0.000 A 
ATOM     25  C   UNL     1      -4.451  11.519  17.768  0.00  0.00    +0.000 A 
ENDBRANCH   3  20
BRANCH   5  26
ATOM     26  C   UNL     1       1.013  12.879  19.444  0.00  0.00    +0.000 A 
ATOM     27  C   UNL     1       1.407  13.246  20.729  0.00  0.00    +0.000 A 
ATOM     28  C   UNL     1       2.613  13.927  20.895  0.00  0.00    +0.000 A 
ATOM     29  C   UNL     1       3.397  14.243  19.783  0.00  0.00    +0.000 A 
ATOM     30  C   UNL     1       2.969  13.908  18.499  0.00  0.00    +0.000 A 
ATOM     31  C   UNL     1       1.758  13.241  18.322  0.00  0.00    +0.000 A 
ENDBRANCH   5  26
TORSDOF 6
ENDMDL
MODEL 5
REMARK VINA RESULT:      -8.5      3.894      7.322
REMARK  Name = 
REMARK  6 active torsions:
REMARK  status: ('A' for Active; 'I' for Inactive)
REMARK    1  A    between atoms: C_4  and  C_5
REMARK    2  A    between atoms: C_5  and  O_6
REMARK    3  A    between atoms: O_6  and  C_7
REMARK    4  A    between atoms: C_10  and  N_11
REMARK    5  A    between atoms: C_13  and  C_14
REMARK    6  A    between atoms: N_21  and  C_22
REMARK                            x       y       z     vdW  Elec       q    Type
REMARK                         _______ _______ _______ _____ _____    ______ ____
ROOT
ATOM      1  N   UNL     1      -0.232  10.897  18.879  0.00  0.00    +0.000 N 
ATOM      2  N   UNL     1      -1.547  10.631  18.586  0.00  0.00    +0.000 NA
ATOM      3  C   UNL     1      -2.130  11.772  18.900  0.00  0.00    +0.000 A 
ATOM      4  N   UNL     1      -1.340  12.751  19.321  0.00  0.00    +0.000 NA
ATOM      5  N   UNL     1      -0.100  12.153  19.237  0.00  0.00    +0.000 N 
ENDROOT
BRANCH   1   9
ATOM      6  C   UNL     1       2.533   7.707  18.854  0.00  0.00    +0.000 A 
ATOM      7  C   UNL     1       2.262   8.423  17.689  0.00  0.00    +0.000 A 
ATOM      8  C   UNL     1       1.364   9.483  17.715  0.00  0.00    +0.000 A 
ATOM      9  C   UNL     1       0.734   9.809  18.913  0.00  0.00    +0.000 A 
ATOM     10  C   UNL     1       0.951   9.080  20.080  0.00  0.00    +0.000 A 
ATOM     11  C   UNL     1       1.871   8.031  20.045  0.00  0.00    +0.000 A 
BRANCH   6  12
ATOM     12  O   UNL     1       3.354   6.624  18.918  0.00  0.00    +0.000 OA
BRANCH  12  13
ATOM     13  C   UNL     1       2.964   5.448  18.185  0.00  0.00    +0.000 C 
BRANCH  13  17
ATOM     14  C   UNL     1       1.179   2.668  20.946  0.00  0.00    +0.000 A 
ATOM     15  C   UNL     1       2.150   3.567  21.380  0.00  0.00    +0.000 A 
ATOM     16  C   UNL     1       2.717   4.465  20.478  0.00  0.00    +0.000 A 
ATOM     17  C   UNL     1       2.319   4.471  19.135  0.00  0.00    +0.000 A 
ATOM     18  C   UNL     1       1.334   3.570  18.709  0.00  0.00    +0.000 A 
ATOM     19  C   UNL     1       0.767   2.671  19.614  0.00  0.00    +0.000 A 
ENDBRANCH  13  17
ENDBRANCH  12  13
ENDBRANCH   6  12
ENDBRANCH   1   9
BRANCH   3  20
ATOM     20  C   UNL     1      -3.585  11.938  18.789  0.00  0.00    +0.000 A 
ATOM     21  C   UNL     1      -4.262  11.548  17.614  0.00  0.00    +0.000 A 
ATOM     22  C   UNL     1      -5.646  11.706  17.504  0.00  0.00    +0.000 A 
ATOM     23  C   UNL     1      -6.371  12.253  18.556  0.00  0.00    +0.000 A 
ATOM     24  C   UNL     1      -5.719  12.642  19.724  0.00  0.00    +0.000 A 
ATOM     25  C   UNL     1      -4.337  12.486  19.843  0.00  0.00    +0.000 A 
ENDBRANCH   3  20
BRANCH   5  26
ATOM     26  C   UNL     1       1.126  12.933  19.393  0.00  0.00    +0.000 A 
ATOM     27  C   UNL     1       1.636  13.113  20.678  0.00  0.00    +0.000 A 
ATOM     28  C   UNL     1       2.830  13.817  20.837  0.00  0.00    +0.000 A 
ATOM     29  C   UNL     1       3.487  14.341  19.720  0.00  0.00    +0.000 A 
ATOM     30  C   UNL     1       2.943  14.191  18.446  0.00  0.00    +0.000 A 
ATOM     31  C   UNL     1       1.743  13.502  18.279  0.00  0.00    +0.000 A 
ENDBRANCH   5  26
TORSDOF 6
ENDMDL
MODEL 6
REMARK VINA RESULT:      -8.5      3.852      7.263
REMARK  Name = 
REMARK  6 active torsions:
REMARK  status: ('A' for Active; 'I' for Inactive)
REMARK    1  A    between atoms: C_4  and  C_5
REMARK    2  A    between atoms: C_5  and  O_6
REMARK    3  A    between atoms: O_6  and  C_7
REMARK    4  A    between atoms: C_10  and  N_11
REMARK    5  A    between atoms: C_13  and  C_14
REMARK    6  A    between atoms: N_21  and  C_22
REMARK                            x       y       z     vdW  Elec       q    Type
REMARK                         _______ _______ _______ _____ _____    ______ ____
ROOT
ATOM      1  N   UNL     1      -0.257  10.810  18.821  0.00  0.00    +0.000 N 
ATOM      2  N   UNL     1      -1.578  10.571  18.528  0.00  0.00    +0.000 NA
ATOM      3  C   UNL     1      -2.139  11.718  18.862  0.00  0.00    +0.000 A 
ATOM      4  N   UNL     1      -1.331  12.676  19.295  0.00  0.00    +0.000 NA
ATOM      5  N   UNL     1      -0.102  12.058  19.197  0.00  0.00    +0.000 N 
ENDROOT
BRANCH   1   9
ATOM      6  C   UNL     1       2.521   7.636  18.984  0.00  0.00    +0.000 A 
ATOM      7  C   UNL     1       1.820   8.027  20.124  0.00  0.00    +0.000 A 
ATOM      8  C   UNL     1       0.895   9.062  20.053  0.00  0.00    +0.000 A 
ATOM      9  C   UNL     1       0.689   9.705  18.835  0.00  0.00    +0.000 A 
ATOM     10  C   UNL     1       1.410   9.364  17.693  0.00  0.00    +0.000 A 
ATOM     11  C   UNL     1       2.321   8.311  17.774  0.00  0.00    +0.000 A 
BRANCH   6  12
ATOM     12  O   UNL     1       3.481   6.673  18.965  0.00  0.00    +0.000 OA
BRANCH  12  13
ATOM     13  C   UNL     1       3.183   5.447  18.274  0.00  0.00    +0.000 C 
BRANCH  13  17
ATOM     14  C   UNL     1       1.139   2.757  20.944  0.00  0.00    +0.000 A 
ATOM     15  C   UNL     1       0.728   2.884  19.620  0.00  0.00    +0.000 A 
ATOM     16  C   UNL     1       1.399   3.754  18.764  0.00  0.00    +0.000 A 
ATOM     17  C   UNL     1       2.488   4.505  19.225  0.00  0.00    +0.000 A 
ATOM     18  C   UNL     1       2.903   4.365  20.556  0.00  0.00    +0.000 A 
ATOM     19  C   UNL     1       2.228   3.492  21.412  0.00  0.00    +0.000 A 
ENDBRANCH  13  17
ENDBRANCH  12  13
ENDBRANCH   6  12
ENDBRANCH   1   9
BRANCH   3  20
ATOM     20  C   UNL     1      -3.592  11.910  18.759  0.00  0.00    +0.000 A 
ATOM     21  C   UNL     1      -4.285  11.517  17.594  0.00  0.00    +0.000 A 
ATOM     22  C   UNL     1      -5.666  11.701  17.491  0.00  0.00    +0.000 A 
ATOM     23  C   UNL     1      -6.373  12.278  18.541  0.00  0.00    +0.000 A 
ATOM     24  C   UNL     1      -5.705  12.670  19.698  0.00  0.00    +0.000 A 
ATOM     25  C   UNL     1      -4.326  12.489  19.810  0.00  0.00    +0.000 A 
ENDBRANCH   3  20
BRANCH   5  26
ATOM     26  C   UNL     1       1.138  12.814  19.361  0.00  0.00    +0.000 A 
ATOM     27  C   UNL     1       1.571  13.102  20.655  0.00  0.00    +0.000 A 
ATOM     28  C   UNL     1       2.776  13.783  20.826  0.00  0.00    +0.000 A 
ATOM     29  C   UNL     1       3.521  14.179  19.712  0.00  0.00    +0.000 A 
ATOM     30  C   UNL     1       3.054  13.923  18.424  0.00  0.00    +0.000 A 
ATOM     31  C   UNL     1       1.843  13.256  18.242  0.00  0.00    +0.000 A 
ENDBRANCH   5  26
TORSDOF 6
ENDMDL
MODEL 7
REMARK VINA RESULT:      -8.5      3.708      6.999
REMARK  Name = 
REMARK  6 active torsions:
REMARK  status: ('A' for Active; 'I' for Inactive)
REMARK    1  A    between atoms: C_4  and  C_5
REMARK    2  A    between atoms: C_5  and  O_6
REMARK    3  A    between atoms: O_6  and  C_7
REMARK    4  A    between atoms: C_10  and  N_11
REMARK    5  A    between atoms: C_13  and  C_14
REMARK    6  A    between atoms: N_21  and  C_22
REMARK                            x       y       z     vdW  Elec       q    Type
REMARK                         _______ _______ _______ _____ _____    ______ ____
ROOT
ATOM      1  N   UNL     1      -0.371  10.837  18.958  0.00  0.00    +0.000 N 
ATOM      2  N   UNL     1      -1.696  10.610  18.673  0.00  0.00    +0.000 NA
ATOM      3  C   UNL     1      -2.237  11.778  18.964  0.00  0.00    +0.000 A 
ATOM      4  N   UNL     1      -1.412  12.737  19.362  0.00  0.00    +0.000 NA
ATOM      5  N   UNL     1      -0.194  12.094  19.289  0.00  0.00    +0.000 N 
ENDROOT
BRANCH   1   9
ATOM      6  C   UNL     1       2.351   7.623  19.239  0.00  0.00    +0.000 A 
ATOM      7  C   UNL     1       1.662   8.072  20.366  0.00  0.00    +0.000 A 
ATOM      8  C   UNL     1       0.755   9.119  20.255  0.00  0.00    +0.000 A 
ATOM      9  C   UNL     1       0.555   9.716  19.013  0.00  0.00    +0.000 A 
ATOM     10  C   UNL     1       1.265   9.316  17.884  0.00  0.00    +0.000 A 
ATOM     11  C   UNL     1       2.158   8.251  18.003  0.00  0.00    +0.000 A 
BRANCH   6  12
ATOM     12  O   UNL     1       3.294   6.643  19.256  0.00  0.00    +0.000 OA
BRANCH  12  13
ATOM     13  C   UNL     1       3.390   5.789  18.101  0.00  0.00    +0.000 C 
BRANCH  13  17
ATOM     14  C   UNL     1       1.314   2.089  18.835  0.00  0.00    +0.000 A 
ATOM     15  C   UNL     1       2.252   2.180  17.811  0.00  0.00    +0.000 A 
ATOM     16  C   UNL     1       2.921   3.380  17.586  0.00  0.00    +0.000 A 
ATOM     17  C   UNL     1       2.656   4.502  18.383  0.00  0.00    +0.000 A 
ATOM     18  C   UNL     1       1.718   4.400  19.418  0.00  0.00    +0.000 A 
ATOM     19  C   UNL     1       1.049   3.195  19.642  0.00  0.00    +0.000 A 
ENDBRANCH  13  17
ENDBRANCH  12  13
ENDBRANCH   6  12
ENDBRANCH   1   9
BRANCH   3  20
ATOM     20  C   UNL     1      -3.686  11.992  18.852  0.00  0.00    +0.000 A 
ATOM     21  C   UNL     1      -4.404  12.599  19.904  0.00  0.00    +0.000 A 
ATOM     22  C   UNL     1      -5.782  12.801  19.803  0.00  0.00    +0.000 A 
ATOM     23  C   UNL     1      -6.462  12.403  18.657  0.00  0.00    +0.000 A 
ATOM     24  C   UNL     1      -5.770  11.804  17.608  0.00  0.00    +0.000 A 
ATOM     25  C   UNL     1      -4.393  11.600  17.701  0.00  0.00    +0.000 A 
ENDBRANCH   3  20
BRANCH   5  26
ATOM     26  C   UNL     1       1.059  12.834  19.426  0.00  0.00    +0.000 A 
ATOM     27  C   UNL     1       1.720  13.235  18.266  0.00  0.00    +0.000 A 
ATOM     28  C   UNL     1       2.893  13.981  18.382  0.00  0.00    +0.000 A 
ATOM     29  C   UNL     1       3.395  14.303  19.646  0.00  0.00    +0.000 A 
ATOM     30  C   UNL     1       2.747  13.858  20.798  0.00  0.00    +0.000 A 
ATOM     31  C   UNL     1       1.582  13.099  20.691  0.00  0.00    +0.000 A 
ENDBRANCH   5  26
TORSDOF 6
ENDMDL
MODEL 8
REMARK VINA RESULT:      -8.5      3.714      6.903
REMARK  Name = 
REMARK  6 active torsions:
REMARK  status: ('A' for Active; 'I' for Inactive)
REMARK    1  A    between atoms: C_4  and  C_5
REMARK    2  A    between atoms: C_5  and  O_6
REMARK    3  A    between atoms: O_6  and  C_7
REMARK    4  A    between atoms: C_10  and  N_11
REMARK    5  A    between atoms: C_13  and  C_14
REMARK    6  A    between atoms: N_21  and  C_22
REMARK                            x       y       z     vdW  Elec       q    Type
REMARK                         _______ _______ _______ _____ _____    ______ ____
ROOT
ATOM      1  N   UNL     1      -0.255  10.840  18.958  0.00  0.00    +0.000 N 
ATOM      2  N   UNL     1      -1.575  10.586  18.674  0.00  0.00    +0.000 NA
ATOM      3  C   UNL     1      -2.138  11.747  18.951  0.00  0.00    +0.000 A 
ATOM      4  N   UNL     1      -1.331  12.725  19.339  0.00  0.00    +0.000 NA
ATOM      5  N   UNL     1      -0.102  12.104  19.274  0.00  0.00    +0.000 N 
ENDROOT
BRANCH   1   9
ATOM      6  C   UNL     1       2.456   7.606  19.036  0.00  0.00    +0.000 A 
ATOM      7  C   UNL     1       2.203   8.292  17.849  0.00  0.00    +0.000 A 
ATOM      8  C   UNL     1       1.321   9.368  17.841  0.00  0.00    +0.000 A 
ATOM      9  C   UNL     1       0.692   9.737  19.027  0.00  0.00    +0.000 A 
ATOM     10  C   UNL     1       0.893   9.038  20.215  0.00  0.00    +0.000 A 
ATOM     11  C   UNL     1       1.795   7.974  20.213  0.00  0.00    +0.000 A 
BRANCH   6  12
ATOM     12  O   UNL     1       3.259   6.512  19.133  0.00  0.00    +0.000 OA
BRANCH  12  13
ATOM     13  C   UNL     1       3.504   5.755  17.934  0.00  0.00    +0.000 C 
BRANCH  13  17
ATOM     14  C   UNL     1       1.950   1.765  18.390  0.00  0.00    +0.000 A 
ATOM     15  C   UNL     1       3.282   1.967  18.036  0.00  0.00    +0.000 A 
ATOM     16  C   UNL     1       3.775   3.262  17.896  0.00  0.00    +0.000 A 
ATOM     17  C   UNL     1       2.939   4.367  18.107  0.00  0.00    +0.000 A 
ATOM     18  C   UNL     1       1.603   4.156  18.472  0.00  0.00    +0.000 A 
ATOM     19  C   UNL     1       1.112   2.857  18.613  0.00  0.00    +0.000 A 
ENDBRANCH  13  17
ENDBRANCH  12  13
ENDBRANCH   6  12
ENDBRANCH   1   9
BRANCH   3  20
ATOM     20  C   UNL     1      -3.591  11.933  18.835  0.00  0.00    +0.000 A 
ATOM     21  C   UNL     1      -4.278  11.500  17.682  0.00  0.00    +0.000 A 
ATOM     22  C   UNL     1      -5.659  11.677  17.567  0.00  0.00    +0.000 A 
ATOM     23  C   UNL     1      -6.371  12.287  18.594  0.00  0.00    +0.000 A 
ATOM     24  C   UNL     1      -5.709  12.719  19.740  0.00  0.00    +0.000 A 
ATOM     25  C   UNL     1      -4.330  12.544  19.864  0.00  0.00    +0.000 A 
ENDBRANCH   3  20
BRANCH   5  26
ATOM     26  C   UNL     1       1.137  12.869  19.405  0.00  0.00    +0.000 A 
ATOM     27  C   UNL     1       1.581  13.195  20.685  0.00  0.00    +0.000 A 
ATOM     28  C   UNL     1       2.785  13.885  20.826  0.00  0.00    +0.000 A 
ATOM     29  C   UNL     1       3.519  14.250  19.694  0.00  0.00    +0.000 A 
ATOM     30  C   UNL     1       3.041  13.956  18.418  0.00  0.00    +0.000 A 
ATOM     31  C   UNL     1       1.831  13.280  18.267  0.00  0.00    +0.000 A 
ENDBRANCH   5  26
TORSDOF 6
ENDMDL
MODEL 9
REMARK VINA RESULT:      -8.3      2.531      8.681
REMARK  Name = 
REMARK  6 active torsions:
REMARK  status: ('A' for Active; 'I' for Inactive)
REMARK    1  A    between atoms: C_4  and  C_5
REMARK    2  A    between atoms: C_5  and  O_6
REMARK    3  A    between atoms: O_6  and  C_7
REMARK    4  A    between atoms: C_10  and  N_11
REMARK    5  A    between atoms: C_13  and  C_14
REMARK    6  A    between atoms: N_21  and  C_22
REMARK                            x       y       z     vdW  Elec       q    Type
REMARK                         _______ _______ _______ _____ _____    ______ ____
ROOT
ATOM      1  N   UNL     1       3.188   5.966  17.932  0.00  0.00    +0.000 N 
ATOM      2  N   UNL     1       3.907   6.184  16.782  0.00  0.00    +0.000 NA
ATOM      3  C   UNL     1       4.575   5.052  16.664  0.00  0.00    +0.000 A 
ATOM      4  N   UNL     1       4.339   4.120  17.577  0.00  0.00    +0.000 NA
ATOM      5  N   UNL     1       3.383   4.739  18.355  0.00  0.00    +0.000 N 
ENDROOT
BRANCH   1   9
ATOM      6  C   UNL     1       1.245   9.268  19.704  0.00  0.00    +0.000 A 
ATOM      7  C   UNL     1       1.595   9.289  18.354  0.00  0.00    +0.000 A 
ATOM      8  C   UNL     1       2.218   8.188  17.779  0.00  0.00    +0.000 A 
ATOM      9  C   UNL     1       2.495   7.076  18.570  0.00  0.00    +0.000 A 
ATOM     10  C   UNL     1       2.198   7.048  19.930  0.00  0.00    +0.000 A 
ATOM     11  C   UNL     1       1.554   8.152  20.491  0.00  0.00    +0.000 A 
BRANCH   6  12
ATOM     12  O   UNL     1       0.682  10.313  20.367  0.00  0.00    +0.000 OA
BRANCH  12  13
ATOM     13  C   UNL     1       0.430  11.519  19.622  0.00  0.00    +0.000 C 
BRANCH  13  17
ATOM     14  C   UNL     1      -3.800  11.878  18.903  0.00  0.00    +0.000 A 
ATOM     15  C   UNL     1      -3.006  11.099  18.066  0.00  0.00    +0.000 A 
ATOM     16  C   UNL     1      -1.640  10.986  18.311  0.00  0.00    +0.000 A 
ATOM     17  C   UNL     1      -1.055  11.653  19.395  0.00  0.00    +0.000 A 
ATOM     18  C   UNL     1      -1.862  12.428  20.239  0.00  0.00    +0.000 A 
ATOM     19  C   UNL     1      -3.231  12.538  19.992  0.00  0.00    +0.000 A 
ENDBRANCH  13  17
ENDBRANCH  12  13
ENDBRANCH   6  12
ENDBRANCH   1   9
BRANCH   3  20
ATOM     20  C   UNL     1       5.535   4.848  15.570  0.00  0.00    +0.000 A 
ATOM     21  C   UNL     1       6.826   5.411  15.637  0.00  0.00    +0.000 A 
ATOM     22  C   UNL     1       7.741   5.221  14.597  0.00  0.00    +0.000 A 
ATOM     23  C   UNL     1       7.382   4.473  13.482  0.00  0.00    +0.000 A 
ATOM     24  C   UNL     1       6.111   3.908  13.400  0.00  0.00    +0.000 A 
ATOM     25  C   UNL     1       5.193   4.091  14.435  0.00  0.00    +0.000 A 
ENDBRANCH   3  20
BRANCH   5  26
ATOM     26  C   UNL     1       2.646   3.997  19.376  0.00  0.00    +0.000 A 
ATOM     27  C   UNL     1       3.310   3.655  20.553  0.00  0.00    +0.000 A 
ATOM     28  C   UNL     1       2.606   2.987  21.555  0.00  0.00    +0.000 A 
ATOM     29  C   UNL     1       1.261   2.659  21.365  0.00  0.00    +0.000 A 
ATOM     30  C   UNL     1       0.621   2.969  20.165  0.00  0.00    +0.000 A 
ATOM     31  C   UNL     1       1.321   3.623  19.153  0.00  0.00    +0.000 A 
ENDBRANCH   5  26
TORSDOF 6
ENDMDL
