MODEL 1
REMARK VINA RESULT:      -7.8      0.000      0.000
REMARK  Name = 
REMARK  5 active torsions:
REMARK  status: ('A' for Active; 'I' for Inactive)
REMARK    1  A    between atoms: C_1  and  C_2
REMARK    2  A    between atoms: N_4  and  C_5
REMARK    3  A    between atoms: C_8  and  C_9
REMARK    4  A    between atoms: C_14  and  O_15
REMARK    5  A    between atoms: C_20  and  C_21
REMARK                            x       y       z     vdW  Elec       q    Type
REMARK                         _______ _______ _______ _____ _____    ______ ____
ROOT
ATOM      1  C   UNL     1       0.220   9.717  20.657  0.00  0.00    +0.000 A 
ATOM      2  C   UNL     1       0.793   8.575  21.221  0.00  0.00    +0.000 A 
ATOM      3  C   UNL     1       1.635   7.742  20.485  0.00  0.00    +0.000 A 
ATOM      4  C   UNL     1       1.908   8.005  19.141  0.00  0.00    +0.000 A 
ATOM      5  C   UNL     1       1.330   9.143  18.562  0.00  0.00    +0.000 A 
ATOM      6  C   UNL     1       0.486  10.008  19.303  0.00  0.00    +0.000 A 
ATOM      7  C   UNL     1      -0.079  11.216  18.604  0.00  0.00    +0.000 C 
ENDROOT
BRANCH   4   8
ATOM      8  C   UNL     1       2.795   7.129  18.357  0.00  0.00    +0.000 A 
ATOM      9  N   UNL     1       3.779   7.546  17.588  0.00  0.00    +0.000 NA
ATOM     10  C   UNL     1       4.450   6.462  17.038  0.00  0.00    +0.000 A 
ATOM     11  C   UNL     1       5.586   6.524  16.208  0.00  0.00    +0.000 A 
ATOM     12  C   UNL     1       6.162   5.341  15.726  0.00  0.00    +0.000 A 
ATOM     13  C   UNL     1       5.611   4.114  16.071  0.00  0.00    +0.000 A 
ATOM     14  C   UNL     1       4.492   4.018  16.892  0.00  0.00    +0.000 A 
ATOM     15  C   UNL     1       3.928   5.211  17.366  0.00  0.00    +0.000 A 
ATOM     16  S   UNL     1       2.565   5.419  18.379  0.00  0.00    +0.000 S 
BRANCH  13  17
ATOM     17  O   UNL     1       6.148   2.946  15.616  0.00  0.00    +0.000 OA
ATOM     18  H   UNL     1       5.839   2.785  14.711  0.00  0.00    +0.000 HD
ENDBRANCH  13  17
ENDBRANCH   4   8
BRANCH   1  22
ATOM     19  C   UNL     1      -1.755  11.506  23.331  0.00  0.00    +0.000 C 
ATOM     20  C   UNL     1      -0.676  10.596  22.813  0.00  0.00    +0.000 C 
ATOM     21  O   UNL     1       0.058  10.008  23.599  0.00  0.00    +0.000 OA
ATOM     22  N   UNL     1      -0.622  10.556  21.423  0.00  0.00    +0.000 N 
ATOM     23  H   UNL     1      -1.160  11.250  20.923  0.00  0.00    +0.000 HD
ENDBRANCH   1  22
TORSDOF 3
ENDMDL
MODEL 2
REMARK VINA RESULT:      -7.6      2.073      8.413
REMARK  Name = 
REMARK  5 active torsions:
REMARK  status: ('A' for Active; 'I' for Inactive)
REMARK    1  A    between atoms: C_1  and  C_2
REMARK    2  A    between atoms: N_4  and  C_5
REMARK    3  A    between atoms: C_8  and  C_9
REMARK    4  A    between atoms: C_14  and  O_15
REMARK    5  A    between atoms: C_20  and  C_21
REMARK                            x       y       z     vdW  Elec       q    Type
REMARK                         _______ _______ _______ _____ _____    ______ ____
ROOT
ATOM      1  C   UNL     1       4.148   5.980  17.492  0.00  0.00    +0.000 A 
ATOM      2  C   UNL     1       3.735   7.236  17.040  0.00  0.00    +0.000 A 
ATOM      3  C   UNL     1       2.895   8.045  17.803  0.00  0.00    +0.000 A 
ATOM      4  C   UNL     1       2.407   7.610  19.037  0.00  0.00    +0.000 A 
ATOM      5  C   UNL     1       2.805   6.347  19.496  0.00  0.00    +0.000 A 
ATOM      6  C   UNL     1       3.673   5.520  18.739  0.00  0.00    +0.000 A 
ATOM      7  C   UNL     1       4.062   4.186  19.316  0.00  0.00    +0.000 C 
ENDROOT
BRANCH   4   8
ATOM      8  C   UNL     1       1.517   8.459  19.848  0.00  0.00    +0.000 A 
ATOM      9  N   UNL     1       1.155   8.203  21.088  0.00  0.00    +0.000 NA
ATOM     10  C   UNL     1       0.359   9.231  21.576  0.00  0.00    +0.000 A 
ATOM     11  C   UNL     1      -0.168   9.325  22.878  0.00  0.00    +0.000 A 
ATOM     12  C   UNL     1      -0.957  10.427  23.234  0.00  0.00    +0.000 A 
ATOM     13  C   UNL     1      -1.214  11.421  22.300  0.00  0.00    +0.000 A 
ATOM     14  C   UNL     1      -0.706  11.361  21.007  0.00  0.00    +0.000 A 
ATOM     15  C   UNL     1       0.082  10.252  20.668  0.00  0.00    +0.000 A 
ATOM     16  S   UNL     1       0.838   9.895  19.174  0.00  0.00    +0.000 S 
BRANCH  13  17
ATOM     17  O   UNL     1      -1.980  12.505  22.615  0.00  0.00    +0.000 OA
ATOM     18  H   UNL     1      -2.281  12.424  23.533  0.00  0.00    +0.000 HD
ENDBRANCH  13  17
ENDBRANCH   4   8
BRANCH   1  22
ATOM     19  C   UNL     1       6.909   4.519  15.373  0.00  0.00    +0.000 C 
ATOM     20  C   UNL     1       6.288   5.535  16.291  0.00  0.00    +0.000 C 
ATOM     21  O   UNL     1       6.921   6.535  16.615  0.00  0.00    +0.000 OA
ATOM     22  N   UNL     1       5.011   5.178  16.709  0.00  0.00    +0.000 N 
ATOM     23  H   UNL     1       4.713   4.232  16.516  0.00  0.00    +0.000 HD
ENDBRANCH   1  22
TORSDOF 3
ENDMDL
MODEL 3
REMARK VINA RESULT:      -7.5      2.629      3.666
REMARK  Name = 
REMARK  5 active torsions:
REMARK  status: ('A' for Active; 'I' for Inactive)
REMARK    1  A    between atoms: C_1  and  C_2
REMARK    2  A    between atoms: N_4  and  C_5
REMARK    3  A    between atoms: C_8  and  C_9
REMARK    4  A    between atoms: C_14  and  O_15
REMARK    5  A    between atoms: C_20  and  C_21
REMARK                            x       y       z     vdW  Elec       q    Type
REMARK                         _______ _______ _______ _____ _____    ______ ____
ROOT
ATOM      1  C   UNL     1       1.273  10.674  19.057  0.00  0.00    +0.000 A 
ATOM      2  C   UNL     1       1.922  10.104  17.960  0.00  0.00    +0.000 A 
ATOM      3  C   UNL     1       2.274   8.755  17.941  0.00  0.00    +0.000 A 
ATOM      4  C   UNL     1       2.020   7.933  19.041  0.00  0.00    +0.000 A 
ATOM      5  C   UNL     1       1.379   8.497  20.152  0.00  0.00    +0.000 A 
ATOM      6  C   UNL     1       0.999   9.863  20.178  0.00  0.00    +0.000 A 
ATOM      7  C   UNL     1       0.301  10.380  21.407  0.00  0.00    +0.000 C 
ENDROOT
BRANCH   4   8
ATOM      8  C   UNL     1       2.391   6.507  19.029  0.00  0.00    +0.000 A 
ATOM      9  N   UNL     1       1.884   5.590  19.826  0.00  0.00    +0.000 NA
ATOM     10  C   UNL     1       2.409   4.343  19.515  0.00  0.00    +0.000 A 
ATOM     11  C   UNL     1       2.060   3.121  20.123  0.00  0.00    +0.000 A 
ATOM     12  C   UNL     1       2.673   1.933  19.702  0.00  0.00    +0.000 A 
ATOM     13  C   UNL     1       3.619   1.967  18.687  0.00  0.00    +0.000 A 
ATOM     14  C   UNL     1       3.984   3.155  18.063  0.00  0.00    +0.000 A 
ATOM     15  C   UNL     1       3.361   4.335  18.496  0.00  0.00    +0.000 A 
ATOM     16  S   UNL     1       3.595   5.934  17.934  0.00  0.00    +0.000 S 
BRANCH  13  17
ATOM     17  O   UNL     1       4.235   0.827  18.257  0.00  0.00    +0.000 OA
ATOM     18  H   UNL     1       4.103   0.128  18.916  0.00  0.00    +0.000 HD
ENDBRANCH  13  17
ENDBRANCH   4   8
BRANCH   1  22
ATOM     19  C   UNL     1      -0.316  14.066  18.583  0.00  0.00    +0.000 C 
ATOM     20  C   UNL     1      -0.276  12.563  18.552  0.00  0.00    +0.000 C 
ATOM     21  O   UNL     1      -1.245  11.934  18.141  0.00  0.00    +0.000 OA
ATOM     22  N   UNL     1       0.913  12.042  19.053  0.00  0.00    +0.000 N 
ATOM     23  H   UNL     1       1.526  12.683  19.537  0.00  0.00    +0.000 HD
ENDBRANCH   1  22
TORSDOF 3
ENDMDL
MODEL 4
REMARK VINA RESULT:      -7.5      1.745      2.650
REMARK  Name = 
REMARK  5 active torsions:
REMARK  status: ('A' for Active; 'I' for Inactive)
REMARK    1  A    between atoms: C_1  and  C_2
REMARK    2  A    between atoms: N_4  and  C_5
REMARK    3  A    between atoms: C_8  and  C_9
REMARK    4  A    between atoms: C_14  and  O_15
REMARK    5  A    between atoms: C_20  and  C_21
REMARK                            x       y       z     vdW  Elec       q    Type
REMARK                         _______ _______ _______ _____ _____    ______ ____
ROOT
ATOM      1  C   UNL     1      -0.169  10.638  21.059  0.00  0.00    +0.000 A 
ATOM      2  C   UNL     1       0.211  10.634  19.716  0.00  0.00    +0.000 A 
ATOM      3  C   UNL     1       0.982   9.604  19.179  0.00  0.00    +0.000 A 
ATOM      4  C   UNL     1       1.432   8.552  19.981  0.00  0.00    +0.000 A 
ATOM      5  C   UNL     1       1.066   8.552  21.334  0.00  0.00    +0.000 A 
ATOM      6  C   UNL     1       0.267   9.584  21.889  0.00  0.00    +0.000 A 
ATOM      7  C   UNL     1      -0.092   9.493  23.348  0.00  0.00    +0.000 C 
ENDROOT
BRANCH   4   8
ATOM      8  C   UNL     1       2.248   7.462  19.422  0.00  0.00    +0.000 A 
ATOM      9  N   UNL     1       2.476   6.309  20.017  0.00  0.00    +0.000 NA
ATOM     10  C   UNL     1       3.235   5.488  19.195  0.00  0.00    +0.000 A 
ATOM     11  C   UNL     1       3.627   4.165  19.477  0.00  0.00    +0.000 A 
ATOM     12  C   UNL     1       4.395   3.451  18.547  0.00  0.00    +0.000 A 
ATOM     13  C   UNL     1       4.763   4.051  17.351  0.00  0.00    +0.000 A 
ATOM     14  C   UNL     1       4.390   5.354  17.039  0.00  0.00    +0.000 A 
ATOM     15  C   UNL     1       3.622   6.054  17.980  0.00  0.00    +0.000 A 
ATOM     16  S   UNL     1       3.018   7.653  17.889  0.00  0.00    +0.000 S 
BRANCH  13  17
ATOM     17  O   UNL     1       5.512   3.383  16.427  0.00  0.00    +0.000 OA
ATOM     18  H   UNL     1       6.382   3.185  16.806  0.00  0.00    +0.000 HD
ENDBRANCH  13  17
ENDBRANCH   4   8
BRANCH   1  22
ATOM     19  C   UNL     1      -1.559  13.779  22.627  0.00  0.00    +0.000 C 
ATOM     20  C   UNL     1      -0.488  12.921  22.012  0.00  0.00    +0.000 C 
ATOM     21  O   UNL     1       0.656  13.352  21.908  0.00  0.00    +0.000 OA
ATOM     22  N   UNL     1      -0.962  11.686  21.583  0.00  0.00    +0.000 N 
ATOM     23  H   UNL     1      -1.964  11.564  21.557  0.00  0.00    +0.000 HD
ENDBRANCH   1  22
TORSDOF 3
ENDMDL
MODEL 5
REMARK VINA RESULT:      -7.4      2.860      3.809
REMARK  Name = 
REMARK  5 active torsions:
REMARK  status: ('A' for Active; 'I' for Inactive)
REMARK    1  A    between atoms: C_1  and  C_2
REMARK    2  A    between atoms: N_4  and  C_5
REMARK    3  A    between atoms: C_8  and  C_9
REMARK    4  A    between atoms: C_14  and  O_15
REMARK    5  A    between atoms: C_20  and  C_21
REMARK                            x       y       z     vdW  Elec       q    Type
REMARK                         _______ _______ _______ _____ _____    ______ ____
ROOT
ATOM      1  C   UNL     1       0.554  10.749  19.395  0.00  0.00    +0.000 A 
ATOM      2  C   UNL     1       1.224  10.132  18.336  0.00  0.00    +0.000 A 
ATOM      3  C   UNL     1       1.771   8.856  18.464  0.00  0.00    +0.000 A 
ATOM      4  C   UNL     1       1.696   8.162  19.673  0.00  0.00    +0.000 A 
ATOM      5  C   UNL     1       1.036   8.776  20.746  0.00  0.00    +0.000 A 
ATOM      6  C   UNL     1       0.460  10.066  20.625  0.00  0.00    +0.000 A 
ATOM      7  C   UNL     1      -0.245  10.641  21.825  0.00  0.00    +0.000 C 
ENDROOT
BRANCH   4   8
ATOM      8  C   UNL     1       2.273   6.814  19.816  0.00  0.00    +0.000 A 
ATOM      9  N   UNL     1       1.870   5.910  20.685  0.00  0.00    +0.000 NA
ATOM     10  C   UNL     1       2.586   4.732  20.517  0.00  0.00    +0.000 A 
ATOM     11  C   UNL     1       2.393   3.535  21.232  0.00  0.00    +0.000 A 
ATOM     12  C   UNL     1       3.192   2.418  20.953  0.00  0.00    +0.000 A 
ATOM     13  C   UNL     1       4.169   2.499  19.970  0.00  0.00    +0.000 A 
ATOM     14  C   UNL     1       4.384   3.664  19.242  0.00  0.00    +0.000 A 
ATOM     15  C   UNL     1       3.574   4.772  19.534  0.00  0.00    +0.000 A 
ATOM     16  S   UNL     1       3.597   6.328  18.823  0.00  0.00    +0.000 S 
BRANCH  13  17
ATOM     17  O   UNL     1       4.964   1.429  19.676  0.00  0.00    +0.000 OA
ATOM     18  H   UNL     1       4.405   0.655  19.509  0.00  0.00    +0.000 HD
ENDBRANCH  13  17
ENDBRANCH   4   8
BRANCH   1  22
ATOM     19  C   UNL     1      -0.193  14.446  19.225  0.00  0.00    +0.000 C 
ATOM     20  C   UNL     1       0.699  13.238  19.309  0.00  0.00    +0.000 C 
ATOM     21  O   UNL     1       1.914  13.379  19.395  0.00  0.00    +0.000 OA
ATOM     22  N   UNL     1      -0.005  12.040  19.243  0.00  0.00    +0.000 N 
ATOM     23  H   UNL     1      -0.976  12.093  18.970  0.00  0.00    +0.000 HD
ENDBRANCH   1  22
TORSDOF 3
ENDMDL
MODEL 6
REMARK VINA RESULT:      -7.4      1.373      2.040
REMARK  Name = 
REMARK  5 active torsions:
REMARK  status: ('A' for Active; 'I' for Inactive)
REMARK    1  A    between atoms: C_1  and  C_2
REMARK    2  A    between atoms: N_4  and  C_5
REMARK    3  A    between atoms: C_8  and  C_9
REMARK    4  A    between atoms: C_14  and  O_15
REMARK    5  A    between atoms: C_20  and  C_21
REMARK                            x       y       z     vdW  Elec       q    Type
REMARK                         _______ _______ _______ _____ _____    ______ ____
ROOT
ATOM      1  C   UNL     1      -0.147  10.643  20.873  0.00  0.00    +0.000 A 
ATOM      2  C   UNL     1       0.162  10.785  19.519  0.00  0.00    +0.000 A 
ATOM      3  C   UNL     1       0.960   9.857  18.852  0.00  0.00    +0.000 A 
ATOM      4  C   UNL     1       1.508   8.765  19.528  0.00  0.00    +0.000 A 
ATOM      5  C   UNL     1       1.214   8.618  20.891  0.00  0.00    +0.000 A 
ATOM      6  C   UNL     1       0.389   9.544  21.578  0.00  0.00    +0.000 A 
ATOM      7  C   UNL     1       0.112   9.299  23.037  0.00  0.00    +0.000 C 
ENDROOT
BRANCH   4   8
ATOM      8  C   UNL     1       2.354   7.781  18.831  0.00  0.00    +0.000 A 
ATOM      9  N   UNL     1       3.083   8.037  17.764  0.00  0.00    +0.000 NA
ATOM     10  C   UNL     1       3.800   6.907  17.393  0.00  0.00    +0.000 A 
ATOM     11  C   UNL     1       4.722   6.821  16.332  0.00  0.00    +0.000 A 
ATOM     12  C   UNL     1       5.379   5.610  16.075  0.00  0.00    +0.000 A 
ATOM     13  C   UNL     1       5.117   4.502  16.868  0.00  0.00    +0.000 A 
ATOM     14  C   UNL     1       4.216   4.553  17.926  0.00  0.00    +0.000 A 
ATOM     15  C   UNL     1       3.568   5.773  18.170  0.00  0.00    +0.000 A 
ATOM     16  S   UNL     1       2.418   6.147  19.381  0.00  0.00    +0.000 S 
BRANCH  13  17
ATOM     17  O   UNL     1       5.739   3.308  16.642  0.00  0.00    +0.000 OA
ATOM     18  H   UNL     1       5.076   2.649  16.384  0.00  0.00    +0.000 HD
ENDBRANCH  13  17
ENDBRANCH   4   8
BRANCH   1  22
ATOM     19  C   UNL     1      -1.625  13.530  22.805  0.00  0.00    +0.000 C 
ATOM     20  C   UNL     1      -0.539  12.798  22.067  0.00  0.00    +0.000 C 
ATOM     21  O   UNL     1       0.577  13.297  21.968  0.00  0.00    +0.000 OA
ATOM     22  N   UNL     1      -0.969  11.589  21.530  0.00  0.00    +0.000 N 
ATOM     23  H   UNL     1      -1.964  11.416  21.527  0.00  0.00    +0.000 HD
ENDBRANCH   1  22
TORSDOF 3
ENDMDL
MODEL 7
REMARK VINA RESULT:      -7.4      2.156      2.834
REMARK  Name = 
REMARK  5 active torsions:
REMARK  status: ('A' for Active; 'I' for Inactive)
REMARK    1  A    between atoms: C_1  and  C_2
REMARK    2  A    between atoms: N_4  and  C_5
REMARK    3  A    between atoms: C_8  and  C_9
REMARK    4  A    between atoms: C_14  and  O_15
REMARK    5  A    between atoms: C_20  and  C_21
REMARK                            x       y       z     vdW  Elec       q    Type
REMARK                         _______ _______ _______ _____ _____    ______ ____
ROOT
ATOM      1  C   UNL     1       0.566  10.536  20.732  0.00  0.00    +0.000 A 
ATOM      2  C   UNL     1       1.025  10.319  19.432  0.00  0.00    +0.000 A 
ATOM      3  C   UNL     1       1.518   9.079  19.030  0.00  0.00    +0.000 A 
ATOM      4  C   UNL     1       1.600   8.014  19.929  0.00  0.00    +0.000 A 
ATOM      5  C   UNL     1       1.152   8.223  21.241  0.00  0.00    +0.000 A 
ATOM      6  C   UNL     1       0.633   9.475  21.659  0.00  0.00    +0.000 A 
ATOM      7  C   UNL     1       0.159   9.604  23.082  0.00  0.00    +0.000 C 
ENDROOT
BRANCH   4   8
ATOM      8  C   UNL     1       2.121   6.701  19.512  0.00  0.00    +0.000 A 
ATOM      9  N   UNL     1       2.729   6.460  18.369  0.00  0.00    +0.000 NA
ATOM     10  C   UNL     1       3.142   5.136  18.316  0.00  0.00    +0.000 A 
ATOM     11  C   UNL     1       3.868   4.534  17.271  0.00  0.00    +0.000 A 
ATOM     12  C   UNL     1       4.221   3.181  17.355  0.00  0.00    +0.000 A 
ATOM     13  C   UNL     1       3.854   2.441  18.471  0.00  0.00    +0.000 A 
ATOM     14  C   UNL     1       3.141   3.004  19.523  0.00  0.00    +0.000 A 
ATOM     15  C   UNL     1       2.796   4.360  19.422  0.00  0.00    +0.000 A 
ATOM     16  S   UNL     1       1.928   5.326  20.537  0.00  0.00    +0.000 S 
BRANCH  13  17
ATOM     17  O   UNL     1       4.182   1.120  18.581  0.00  0.00    +0.000 OA
ATOM     18  H   UNL     1       4.195   0.875  19.519  0.00  0.00    +0.000 HD
ENDBRANCH  13  17
ENDBRANCH   4   8
BRANCH   1  22
ATOM     19  C   UNL     1       0.003  14.086  21.886  0.00  0.00    +0.000 C 
ATOM     20  C   UNL     1       0.823  12.930  21.385  0.00  0.00    +0.000 C 
ATOM     21  O   UNL     1       2.032  13.061  21.224  0.00  0.00    +0.000 OA
ATOM     22  N   UNL     1       0.059  11.799  21.119  0.00  0.00    +0.000 N 
ATOM     23  H   UNL     1      -0.945  11.915  21.110  0.00  0.00    +0.000 HD
ENDBRANCH   1  22
TORSDOF 3
ENDMDL
MODEL 8
REMARK VINA RESULT:      -7.3      2.099      2.803
REMARK  Name = 
REMARK  5 active torsions:
REMARK  status: ('A' for Active; 'I' for Inactive)
REMARK    1  A    between atoms: C_1  and  C_2
REMARK    2  A    between atoms: N_4  and  C_5
REMARK    3  A    between atoms: C_8  and  C_9
REMARK    4  A    between atoms: C_14  and  O_15
REMARK    5  A    between atoms: C_20  and  C_21
REMARK                            x       y       z     vdW  Elec       q    Type
REMARK                         _______ _______ _______ _____ _____    ______ ____
ROOT
ATOM      1  C   UNL     1       0.561  10.530  20.871  0.00  0.00    +0.000 A 
ATOM      2  C   UNL     1       1.052  10.350  19.576  0.00  0.00    +0.000 A 
ATOM      3  C   UNL     1       1.538   9.116  19.146  0.00  0.00    +0.000 A 
ATOM      4  C   UNL     1       1.582   8.021  20.012  0.00  0.00    +0.000 A 
ATOM      5  C   UNL     1       1.103   8.194  21.318  0.00  0.00    +0.000 A 
ATOM      6  C   UNL     1       0.589   9.438  21.764  0.00  0.00    +0.000 A 
ATOM      7  C   UNL     1       0.080   9.528  23.177  0.00  0.00    +0.000 C 
ENDROOT
BRANCH   4   8
ATOM      8  C   UNL     1       2.096   6.715  19.566  0.00  0.00    +0.000 A 
ATOM      9  N   UNL     1       2.704   6.497  18.418  0.00  0.00    +0.000 NA
ATOM     10  C   UNL     1       3.110   5.172  18.335  0.00  0.00    +0.000 A 
ATOM     11  C   UNL     1       3.834   4.591  17.277  0.00  0.00    +0.000 A 
ATOM     12  C   UNL     1       4.179   3.233  17.330  0.00  0.00    +0.000 A 
ATOM     13  C   UNL     1       3.807   2.470  18.429  0.00  0.00    +0.000 A 
ATOM     14  C   UNL     1       3.096   3.013  19.493  0.00  0.00    +0.000 A 
ATOM     15  C   UNL     1       2.758   4.373  19.423  0.00  0.00    +0.000 A 
ATOM     16  S   UNL     1       1.895   5.318  20.559  0.00  0.00    +0.000 S 
BRANCH  13  17
ATOM     17  O   UNL     1       4.128   1.146  18.509  0.00  0.00    +0.000 OA
ATOM     18  H   UNL     1       3.642   0.747  19.248  0.00  0.00    +0.000 HD
ENDBRANCH  13  17
ENDBRANCH   4   8
BRANCH   1  22
ATOM     19  C   UNL     1      -1.334  13.753  21.393  0.00  0.00    +0.000 C 
ATOM     20  C   UNL     1      -1.136  12.359  20.867  0.00  0.00    +0.000 C 
ATOM     21  O   UNL     1      -2.001  11.838  20.172  0.00  0.00    +0.000 OA
ATOM     22  N   UNL     1       0.061  11.787  21.286  0.00  0.00    +0.000 N 
ATOM     23  H   UNL     1       0.568  12.267  22.016  0.00  0.00    +0.000 HD
ENDBRANCH   1  22
TORSDOF 3
ENDMDL
MODEL 9
REMARK VINA RESULT:      -7.3      2.787      8.395
REMARK  Name = 
REMARK  5 active torsions:
REMARK  status: ('A' for Active; 'I' for Inactive)
REMARK    1  A    between atoms: C_1  and  C_2
REMARK    2  A    between atoms: N_4  and  C_5
REMARK    3  A    between atoms: C_8  and  C_9
REMARK    4  A    between atoms: C_14  and  O_15
REMARK    5  A    between atoms: C_20  and  C_21
REMARK                            x       y       z     vdW  Elec       q    Type
REMARK                         _______ _______ _______ _____ _____    ______ ____
ROOT
ATOM      1  C   UNL     1       2.943   4.735  19.443  0.00  0.00    +0.000 A 
ATOM      2  C   UNL     1       3.129   5.910  18.711  0.00  0.00    +0.000 A 
ATOM      3  C   UNL     1       2.525   7.108  19.089  0.00  0.00    +0.000 A 
ATOM      4  C   UNL     1       1.682   7.166  20.201  0.00  0.00    +0.000 A 
ATOM      5  C   UNL     1       1.480   5.991  20.938  0.00  0.00    +0.000 A 
ATOM      6  C   UNL     1       2.102   4.769  20.575  0.00  0.00    +0.000 A 
ATOM      7  C   UNL     1       1.841   3.561  21.433  0.00  0.00    +0.000 C 
ENDROOT
BRANCH   4   8
ATOM      8  C   UNL     1       1.040   8.428  20.606  0.00  0.00    +0.000 A 
ATOM      9  N   UNL     1       0.420   8.625  21.751  0.00  0.00    +0.000 NA
ATOM     10  C   UNL     1      -0.021   9.939  21.837  0.00  0.00    +0.000 A 
ATOM     11  C   UNL     1      -0.678  10.523  22.937  0.00  0.00    +0.000 A 
ATOM     12  C   UNL     1      -1.065  11.869  22.884  0.00  0.00    +0.000 A 
ATOM     13  C   UNL     1      -0.798  12.619  21.748  0.00  0.00    +0.000 A 
ATOM     14  C   UNL     1      -0.148  12.075  20.645  0.00  0.00    +0.000 A 
ATOM     15  C   UNL     1       0.233  10.727  20.715  0.00  0.00    +0.000 A 
ATOM     16  S   UNL     1       1.036   9.782  19.536  0.00  0.00    +0.000 S 
BRANCH  13  17
ATOM     17  O   UNL     1      -1.164  13.931  21.665  0.00  0.00    +0.000 OA
ATOM     18  H   UNL     1      -1.960  14.004  21.117  0.00  0.00    +0.000 HD
ENDBRANCH  13  17
ENDBRANCH   4   8
BRANCH   1  22
ATOM     19  C   UNL     1       3.892   1.347  18.073  0.00  0.00    +0.000 C 
ATOM     20  C   UNL     1       3.026   2.570  18.207  0.00  0.00    +0.000 C 
ATOM     21  O   UNL     1       1.975   2.648  17.580  0.00  0.00    +0.000 OA
ATOM     22  N   UNL     1       3.574   3.531  19.050  0.00  0.00    +0.000 N 
ATOM     23  H   UNL     1       4.536   3.402  19.329  0.00  0.00    +0.000 HD
ENDBRANCH   1  22
TORSDOF 3
ENDMDL
