MODEL 1
REMARK VINA RESULT:      -8.2      0.000      0.000
REMARK  Name = 
REMARK  5 active torsions:
REMARK  status: ('A' for Active; 'I' for Inactive)
REMARK    1  A    between atoms: C_2  and  C_3
REMARK    2  A    between atoms: C_2  and  C_17
REMARK    3  A    between atoms: C_3  and  C_4
REMARK    4  A    between atoms: N_8  and  C_9
REMARK    5  A    between atoms: C_9  and  C_10
REMARK                            x       y       z     vdW  Elec       q    Type
REMARK                         _______ _______ _______ _____ _____    ______ ____
ROOT
ATOM      1  C   UNL     1       3.932   3.474  18.561  0.00  0.00    +0.000 C 
ATOM      2  C   UNL     1       2.917   2.355  18.840  0.00  0.00    +0.000 C 
ATOM      3  C   UNL     1       1.485   2.871  18.778  0.00  0.00    +0.000 C 
ATOM      4  C   UNL     1       1.292   4.081  19.691  0.00  0.00    +0.000 C 
ATOM      5  N   UNL     1       2.251   5.162  19.394  0.00  0.00    +0.000 NA
ATOM      6  C   UNL     1       3.640   4.663  19.497  0.00  0.00    +0.000 C 
ENDROOT
BRANCH   1   7
ATOM      7  C   UNL     1       3.943   3.924  17.086  0.00  0.00    +0.000 C 
BRANCH   7   9
ATOM      8  O   UNL     1       5.815   3.371  15.659  0.00  0.00    +0.000 OA
ATOM      9  C   UNL     1       5.347   4.105  16.528  0.00  0.00    +0.000 C 
BRANCH   9  10
ATOM     10  C   UNL     1       6.220   5.166  17.112  0.00  0.00    +0.000 A 
ATOM     11  C   UNL     1       6.099   6.519  16.770  0.00  0.00    +0.000 A 
ATOM     12  C   UNL     1       6.939   7.467  17.363  0.00  0.00    +0.000 A 
ATOM     13  C   UNL     1       7.889   7.061  18.293  0.00  0.00    +0.000 A 
ATOM     14  F   UNL     1       8.689   7.976  18.862  0.00  0.00    +0.000 F 
ATOM     15  C   UNL     1       8.027   5.723  18.638  0.00  0.00    +0.000 A 
ATOM     16  C   UNL     1       7.196   4.773  18.044  0.00  0.00    +0.000 A 
ENDBRANCH   9  10
ENDBRANCH   7   9
ENDBRANCH   1   7
BRANCH   5  17
ATOM     17  C   UNL     1       2.087   6.288  20.340  0.00  0.00    +0.000 C 
BRANCH  17  18
ATOM     18  C   UNL     1       1.867   7.643  19.702  0.00  0.00    +0.000 A 
ATOM     19  C   UNL     1       2.332   7.896  18.401  0.00  0.00    +0.000 A 
ATOM     20  C   UNL     1       2.092   9.125  17.785  0.00  0.00    +0.000 A 
ATOM     21  C   UNL     1       1.382  10.115  18.460  0.00  0.00    +0.000 A 
ATOM     22  C   UNL     1       0.920   9.881  19.755  0.00  0.00    +0.000 A 
ATOM     23  C   UNL     1       1.160   8.652  20.374  0.00  0.00    +0.000 A 
ENDBRANCH  17  18
ENDBRANCH   5  17
TORSDOF 5
ENDMDL
MODEL 2
REMARK VINA RESULT:      -8.0      2.304      5.393
REMARK  Name = 
REMARK  5 active torsions:
REMARK  status: ('A' for Active; 'I' for Inactive)
REMARK    1  A    between atoms: C_2  and  C_3
REMARK    2  A    between atoms: C_2  and  C_17
REMARK    3  A    between atoms: C_3  and  C_4
REMARK    4  A    between atoms: N_8  and  C_9
REMARK    5  A    between atoms: C_9  and  C_10
REMARK                            x       y       z     vdW  Elec       q    Type
REMARK                         _______ _______ _______ _____ _____    ______ ____
ROOT
ATOM      1  C   UNL     1       1.357   4.048  18.537  0.00  0.00    +0.000 C 
ATOM      2  C   UNL     1       1.008   2.558  18.669  0.00  0.00    +0.000 C 
ATOM      3  C   UNL     1       2.240   1.721  18.986  0.00  0.00    +0.000 C 
ATOM      4  C   UNL     1       3.358   1.976  17.975  0.00  0.00    +0.000 C 
ATOM      5  N   UNL     1       3.707   3.406  17.879  0.00  0.00    +0.000 NA
ATOM      6  C   UNL     1       2.513   4.207  17.530  0.00  0.00    +0.000 C 
ENDROOT
BRANCH   1   7
ATOM      7  C   UNL     1       1.709   4.707  19.886  0.00  0.00    +0.000 C 
BRANCH   7   9
ATOM      8  O   UNL     1       3.911   5.703  19.969  0.00  0.00    +0.000 OA
ATOM      9  C   UNL     1       2.710   5.846  19.751  0.00  0.00    +0.000 C 
BRANCH   9  10
ATOM     10  C   UNL     1       2.203   7.210  19.417  0.00  0.00    +0.000 A 
ATOM     11  C   UNL     1       2.361   7.787  18.150  0.00  0.00    +0.000 A 
ATOM     12  C   UNL     1       1.852   9.065  17.896  0.00  0.00    +0.000 A 
ATOM     13  C   UNL     1       1.187   9.755  18.904  0.00  0.00    +0.000 A 
ATOM     14  F   UNL     1       0.696  10.979  18.652  0.00  0.00    +0.000 F 
ATOM     15  C   UNL     1       1.028   9.201  20.167  0.00  0.00    +0.000 A 
ATOM     16  C   UNL     1       1.541   7.930  20.427  0.00  0.00    +0.000 A 
ENDBRANCH   9  10
ENDBRANCH   7   9
ENDBRANCH   1   7
BRANCH   5  17
ATOM     17  C   UNL     1       4.739   3.628  16.841  0.00  0.00    +0.000 C 
BRANCH  17  18
ATOM     18  C   UNL     1       5.692   4.774  17.110  0.00  0.00    +0.000 A 
ATOM     19  C   UNL     1       5.400   6.063  16.634  0.00  0.00    +0.000 A 
ATOM     20  C   UNL     1       6.246   7.136  16.918  0.00  0.00    +0.000 A 
ATOM     21  C   UNL     1       7.392   6.935  17.684  0.00  0.00    +0.000 A 
ATOM     22  C   UNL     1       7.698   5.659  18.158  0.00  0.00    +0.000 A 
ATOM     23  C   UNL     1       6.853   4.584  17.873  0.00  0.00    +0.000 A 
ENDBRANCH  17  18
ENDBRANCH   5  17
TORSDOF 5
ENDMDL
MODEL 3
REMARK VINA RESULT:      -7.9      2.291      5.416
REMARK  Name = 
REMARK  5 active torsions:
REMARK  status: ('A' for Active; 'I' for Inactive)
REMARK    1  A    between atoms: C_2  and  C_3
REMARK    2  A    between atoms: C_2  and  C_17
REMARK    3  A    between atoms: C_3  and  C_4
REMARK    4  A    between atoms: N_8  and  C_9
REMARK    5  A    between atoms: C_9  and  C_10
REMARK                            x       y       z     vdW  Elec       q    Type
REMARK                         _______ _______ _______ _____ _____    ______ ____
ROOT
ATOM      1  C   UNL     1       1.359   4.067  18.517  0.00  0.00    +0.000 C 
ATOM      2  C   UNL     1       0.982   2.580  18.605  0.00  0.00    +0.000 C 
ATOM      3  C   UNL     1       2.192   1.717  18.938  0.00  0.00    +0.000 C 
ATOM      4  C   UNL     1       3.343   1.976  17.966  0.00  0.00    +0.000 C 
ATOM      5  N   UNL     1       3.717   3.402  17.912  0.00  0.00    +0.000 NA
ATOM      6  C   UNL     1       2.546   4.230  17.548  0.00  0.00    +0.000 C 
ENDROOT
BRANCH   1   7
ATOM      7  C   UNL     1       1.681   4.690  19.890  0.00  0.00    +0.000 C 
BRANCH   7   9
ATOM      8  O   UNL     1       3.868   5.711  20.039  0.00  0.00    +0.000 OA
ATOM      9  C   UNL     1       2.669   5.845  19.804  0.00  0.00    +0.000 C 
BRANCH   9  10
ATOM     10  C   UNL     1       2.150   7.211  19.500  0.00  0.00    +0.000 A 
ATOM     11  C   UNL     1       1.464   7.989  20.443  0.00  0.00    +0.000 A 
ATOM     12  C   UNL     1       1.014   9.267  20.100  0.00  0.00    +0.000 A 
ATOM     13  C   UNL     1       1.253   9.763  18.823  0.00  0.00    +0.000 A 
ATOM     14  F   UNL     1       0.823  10.993  18.501  0.00  0.00    +0.000 F 
ATOM     15  C   UNL     1       1.924   9.003  17.874  0.00  0.00    +0.000 A 
ATOM     16  C   UNL     1       2.369   7.724  18.209  0.00  0.00    +0.000 A 
ENDBRANCH   9  10
ENDBRANCH   7   9
ENDBRANCH   1   7
BRANCH   5  17
ATOM     17  C   UNL     1       4.782   3.630  16.911  0.00  0.00    +0.000 C 
BRANCH  17  18
ATOM     18  C   UNL     1       5.693   4.807  17.191  0.00  0.00    +0.000 A 
ATOM     19  C   UNL     1       6.797   4.658  18.047  0.00  0.00    +0.000 A 
ATOM     20  C   UNL     1       7.670   5.723  18.274  0.00  0.00    +0.000 A 
ATOM     21  C   UNL     1       7.454   6.947  17.645  0.00  0.00    +0.000 A 
ATOM     22  C   UNL     1       6.358   7.111  16.798  0.00  0.00    +0.000 A 
ATOM     23  C   UNL     1       5.481   6.048  16.572  0.00  0.00    +0.000 A 
ENDBRANCH  17  18
ENDBRANCH   5  17
TORSDOF 5
ENDMDL
MODEL 4
REMARK VINA RESULT:      -7.9      0.262      1.040
REMARK  Name = 
REMARK  5 active torsions:
REMARK  status: ('A' for Active; 'I' for Inactive)
REMARK    1  A    between atoms: C_2  and  C_3
REMARK    2  A    between atoms: C_2  and  C_17
REMARK    3  A    between atoms: C_3  and  C_4
REMARK    4  A    between atoms: N_8  and  C_9
REMARK    5  A    between atoms: C_9  and  C_10
REMARK                            x       y       z     vdW  Elec       q    Type
REMARK                         _______ _______ _______ _____ _____    ______ ____
ROOT
ATOM      1  C   UNL     1       4.063   3.673  18.577  0.00  0.00    +0.000 C 
ATOM      2  C   UNL     1       3.053   2.535  18.794  0.00  0.00    +0.000 C 
ATOM      3  C   UNL     1       1.619   3.030  18.665  0.00  0.00    +0.000 C 
ATOM      4  C   UNL     1       1.361   4.227  19.580  0.00  0.00    +0.000 C 
ATOM      5  N   UNL     1       2.316   5.325  19.342  0.00  0.00    +0.000 NA
ATOM      6  C   UNL     1       3.706   4.847  19.509  0.00  0.00    +0.000 C 
ENDROOT
BRANCH   1   7
ATOM      7  C   UNL     1       4.140   4.139  17.110  0.00  0.00    +0.000 C 
BRANCH   7   9
ATOM      8  O   UNL     1       6.074   3.551  15.782  0.00  0.00    +0.000 OA
ATOM      9  C   UNL     1       5.569   4.305  16.611  0.00  0.00    +0.000 C 
BRANCH   9  10
ATOM     10  C   UNL     1       6.416   5.379  17.208  0.00  0.00    +0.000 A 
ATOM     11  C   UNL     1       6.391   6.705  16.754  0.00  0.00    +0.000 A 
ATOM     12  C   UNL     1       7.201   7.668  17.364  0.00  0.00    +0.000 A 
ATOM     13  C   UNL     1       8.025   7.305  18.424  0.00  0.00    +0.000 A 
ATOM     14  F   UNL     1       8.795   8.235  19.009  0.00  0.00    +0.000 F 
ATOM     15  C   UNL     1       8.067   5.995  18.882  0.00  0.00    +0.000 A 
ATOM     16  C   UNL     1       7.267   5.029  18.271  0.00  0.00    +0.000 A 
ENDBRANCH   9  10
ENDBRANCH   7   9
ENDBRANCH   1   7
BRANCH   5  17
ATOM     17  C   UNL     1       2.087   6.439  20.290  0.00  0.00    +0.000 C 
BRANCH  17  18
ATOM     18  C   UNL     1       1.799   7.782  19.654  0.00  0.00    +0.000 A 
ATOM     19  C   UNL     1       1.098   8.767  20.369  0.00  0.00    +0.000 A 
ATOM     20  C   UNL     1       0.870  10.026  19.811  0.00  0.00    +0.000 A 
ATOM     21  C   UNL     1       1.342  10.316  18.533  0.00  0.00    +0.000 A 
ATOM     22  C   UNL     1       2.033   9.346  17.808  0.00  0.00    +0.000 A 
ATOM     23  C   UNL     1       2.261   8.085  18.365  0.00  0.00    +0.000 A 
ENDBRANCH  17  18
ENDBRANCH   5  17
TORSDOF 5
ENDMDL
MODEL 5
REMARK VINA RESULT:      -7.9      2.292      5.394
REMARK  Name = 
REMARK  5 active torsions:
REMARK  status: ('A' for Active; 'I' for Inactive)
REMARK    1  A    between atoms: C_2  and  C_3
REMARK    2  A    between atoms: C_2  and  C_17
REMARK    3  A    between atoms: C_3  and  C_4
REMARK    4  A    between atoms: N_8  and  C_9
REMARK    5  A    between atoms: C_9  and  C_10
REMARK                            x       y       z     vdW  Elec       q    Type
REMARK                         _______ _______ _______ _____ _____    ______ ____
ROOT
ATOM      1  C   UNL     1       1.340   4.055  18.450  0.00  0.00    +0.000 C 
ATOM      2  C   UNL     1       1.022   2.554  18.530  0.00  0.00    +0.000 C 
ATOM      3  C   UNL     1       2.262   1.738  18.872  0.00  0.00    +0.000 C 
ATOM      4  C   UNL     1       3.410   2.046  17.911  0.00  0.00    +0.000 C 
ATOM      5  N   UNL     1       3.727   3.485  17.865  0.00  0.00    +0.000 NA
ATOM      6  C   UNL     1       2.528   4.267  17.492  0.00  0.00    +0.000 C 
ENDROOT
BRANCH   1   7
ATOM      7  C   UNL     1       1.625   4.686  19.827  0.00  0.00    +0.000 C 
BRANCH   7   9
ATOM      8  O   UNL     1       3.830   5.656  20.043  0.00  0.00    +0.000 OA
ATOM      9  C   UNL     1       2.642   5.817  19.767  0.00  0.00    +0.000 C 
BRANCH   9  10
ATOM     10  C   UNL     1       2.166   7.192  19.437  0.00  0.00    +0.000 A 
ATOM     11  C   UNL     1       2.340   7.771  18.172  0.00  0.00    +0.000 A 
ATOM     12  C   UNL     1       1.860   9.060  17.921  0.00  0.00    +0.000 A 
ATOM     13  C   UNL     1       1.207   9.761  18.930  0.00  0.00    +0.000 A 
ATOM     14  F   UNL     1       0.744  10.995  18.681  0.00  0.00    +0.000 F 
ATOM     15  C   UNL     1       1.032   9.206  20.190  0.00  0.00    +0.000 A 
ATOM     16  C   UNL     1       1.517   7.923  20.447  0.00  0.00    +0.000 A 
ENDBRANCH   9  10
ENDBRANCH   7   9
ENDBRANCH   1   7
BRANCH   5  17
ATOM     17  C   UNL     1       4.792   3.759  16.873  0.00  0.00    +0.000 C 
BRANCH  17  18
ATOM     18  C   UNL     1       5.729   4.895  17.226  0.00  0.00    +0.000 A 
ATOM     19  C   UNL     1       6.844   4.663  18.047  0.00  0.00    +0.000 A 
ATOM     20  C   UNL     1       7.741   5.691  18.338  0.00  0.00    +0.000 A 
ATOM     21  C   UNL     1       7.536   6.964  17.810  0.00  0.00    +0.000 A 
ATOM     22  C   UNL     1       6.429   7.211  16.998  0.00  0.00    +0.000 A 
ATOM     23  C   UNL     1       5.529   6.183  16.707  0.00  0.00    +0.000 A 
ENDBRANCH  17  18
ENDBRANCH   5  17
TORSDOF 5
ENDMDL
MODEL 6
REMARK VINA RESULT:      -7.8      3.528      5.572
REMARK  Name = 
REMARK  5 active torsions:
REMARK  status: ('A' for Active; 'I' for Inactive)
REMARK    1  A    between atoms: C_2  and  C_3
REMARK    2  A    between atoms: C_2  and  C_17
REMARK    3  A    between atoms: C_3  and  C_4
REMARK    4  A    between atoms: N_8  and  C_9
REMARK    5  A    between atoms: C_9  and  C_10
REMARK                            x       y       z     vdW  Elec       q    Type
REMARK                         _______ _______ _______ _____ _____    ______ ____
ROOT
ATOM      1  C   UNL     1       6.775   6.098  16.647  0.00  0.00    +0.000 C 
ATOM      2  C   UNL     1       7.474   6.152  18.014  0.00  0.00    +0.000 C 
ATOM      3  C   UNL     1       6.781   5.255  19.032  0.00  0.00    +0.000 C 
ATOM      4  C   UNL     1       5.288   5.569  19.121  0.00  0.00    +0.000 C 
ATOM      5  N   UNL     1       4.621   5.483  17.809  0.00  0.00    +0.000 NA
ATOM      6  C   UNL     1       5.273   6.388  16.837  0.00  0.00    +0.000 C 
ENDROOT
BRANCH   1   7
ATOM      7  C   UNL     1       6.987   4.758  15.914  0.00  0.00    +0.000 C 
BRANCH   7   9
ATOM      8  O   UNL     1       8.246   5.705  14.079  0.00  0.00    +0.000 OA
ATOM      9  C   UNL     1       7.364   4.933  14.450  0.00  0.00    +0.000 C 
BRANCH   9  10
ATOM     10  C   UNL     1       6.580   4.196  13.415  0.00  0.00    +0.000 A 
ATOM     11  C   UNL     1       7.178   3.577  12.309  0.00  0.00    +0.000 A 
ATOM     12  C   UNL     1       6.390   2.890  11.381  0.00  0.00    +0.000 A 
ATOM     13  C   UNL     1       5.012   2.823  11.562  0.00  0.00    +0.000 A 
ATOM     14  F   UNL     1       4.261   2.158  10.671  0.00  0.00    +0.000 F 
ATOM     15  C   UNL     1       4.402   3.437  12.648  0.00  0.00    +0.000 A 
ATOM     16  C   UNL     1       5.185   4.129  13.573  0.00  0.00    +0.000 A 
ENDBRANCH   9  10
ENDBRANCH   7   9
ENDBRANCH   1   7
BRANCH   5  17
ATOM     17  C   UNL     1       3.194   5.863  17.916  0.00  0.00    +0.000 C 
BRANCH  17  18
ATOM     18  C   UNL     1       2.306   4.854  18.614  0.00  0.00    +0.000 A 
ATOM     19  C   UNL     1       1.873   3.704  17.933  0.00  0.00    +0.000 A 
ATOM     20  C   UNL     1       1.095   2.743  18.582  0.00  0.00    +0.000 A 
ATOM     21  C   UNL     1       0.743   2.919  19.918  0.00  0.00    +0.000 A 
ATOM     22  C   UNL     1       1.160   4.060  20.604  0.00  0.00    +0.000 A 
ATOM     23  C   UNL     1       1.937   5.023  19.956  0.00  0.00    +0.000 A 
ENDBRANCH  17  18
ENDBRANCH   5  17
TORSDOF 5
ENDMDL
MODEL 7
REMARK VINA RESULT:      -7.8      0.434      1.486
REMARK  Name = 
REMARK  5 active torsions:
REMARK  status: ('A' for Active; 'I' for Inactive)
REMARK    1  A    between atoms: C_2  and  C_3
REMARK    2  A    between atoms: C_2  and  C_17
REMARK    3  A    between atoms: C_3  and  C_4
REMARK    4  A    between atoms: N_8  and  C_9
REMARK    5  A    between atoms: C_9  and  C_10
REMARK                            x       y       z     vdW  Elec       q    Type
REMARK                         _______ _______ _______ _____ _____    ______ ____
ROOT
ATOM      1  C   UNL     1       3.949   3.859  19.016  0.00  0.00    +0.000 C 
ATOM      2  C   UNL     1       3.089   2.683  19.505  0.00  0.00    +0.000 C 
ATOM      3  C   UNL     1       1.607   3.037  19.502  0.00  0.00    +0.000 C 
ATOM      4  C   UNL     1       1.342   4.324  20.281  0.00  0.00    +0.000 C 
ATOM      5  N   UNL     1       2.150   5.453  19.783  0.00  0.00    +0.000 NA
ATOM      6  C   UNL     1       3.590   5.118  19.828  0.00  0.00    +0.000 C 
ENDROOT
BRANCH   1   7
ATOM      7  C   UNL     1       3.807   4.121  17.503  0.00  0.00    +0.000 C 
BRANCH   7   9
ATOM      8  O   UNL     1       5.475   3.650  15.817  0.00  0.00    +0.000 OA
ATOM      9  C   UNL     1       5.145   4.307  16.802  0.00  0.00    +0.000 C 
BRANCH   9  10
ATOM     10  C   UNL     1       6.129   5.271  17.379  0.00  0.00    +0.000 A 
ATOM     11  C   UNL     1       7.019   4.923  18.403  0.00  0.00    +0.000 A 
ATOM     12  C   UNL     1       7.926   5.868  18.893  0.00  0.00    +0.000 A 
ATOM     13  C   UNL     1       7.941   7.151  18.357  0.00  0.00    +0.000 A 
ATOM     14  F   UNL     1       8.817   8.052  18.827  0.00  0.00    +0.000 F 
ATOM     15  C   UNL     1       7.060   7.516  17.346  0.00  0.00    +0.000 A 
ATOM     16  C   UNL     1       6.149   6.578  16.860  0.00  0.00    +0.000 A 
ENDBRANCH   9  10
ENDBRANCH   7   9
ENDBRANCH   1   7
BRANCH   5  17
ATOM     17  C   UNL     1       1.925   6.665  20.602  0.00  0.00    +0.000 C 
BRANCH  17  18
ATOM     18  C   UNL     1       1.690   7.941  19.821  0.00  0.00    +0.000 A 
ATOM     19  C   UNL     1       0.986   9.007  20.404  0.00  0.00    +0.000 A 
ATOM     20  C   UNL     1       0.806  10.205  19.712  0.00  0.00    +0.000 A 
ATOM     21  C   UNL     1       1.331  10.354  18.430  0.00  0.00    +0.000 A 
ATOM     22  C   UNL     1       2.026   9.301  17.835  0.00  0.00    +0.000 A 
ATOM     23  C   UNL     1       2.206   8.100  18.526  0.00  0.00    +0.000 A 
ENDBRANCH  17  18
ENDBRANCH   5  17
TORSDOF 5
ENDMDL
MODEL 8
REMARK VINA RESULT:      -7.7      0.534      1.145
REMARK  Name = 
REMARK  5 active torsions:
REMARK  status: ('A' for Active; 'I' for Inactive)
REMARK    1  A    between atoms: C_2  and  C_3
REMARK    2  A    between atoms: C_2  and  C_17
REMARK    3  A    between atoms: C_3  and  C_4
REMARK    4  A    between atoms: N_8  and  C_9
REMARK    5  A    between atoms: C_9  and  C_10
REMARK                            x       y       z     vdW  Elec       q    Type
REMARK                         _______ _______ _______ _____ _____    ______ ____
ROOT
ATOM      1  C   UNL     1       4.456   3.583  19.041  0.00  0.00    +0.000 C 
ATOM      2  C   UNL     1       3.799   2.303  19.580  0.00  0.00    +0.000 C 
ATOM      3  C   UNL     1       2.280   2.415  19.587  0.00  0.00    +0.000 C 
ATOM      4  C   UNL     1       1.821   3.669  20.329  0.00  0.00    +0.000 C 
ATOM      5  N   UNL     1       2.433   4.895  19.784  0.00  0.00    +0.000 NA
ATOM      6  C   UNL     1       3.908   4.795  19.819  0.00  0.00    +0.000 C 
ENDROOT
BRANCH   1   7
ATOM      7  C   UNL     1       4.260   3.769  17.523  0.00  0.00    +0.000 C 
BRANCH   7   9
ATOM      8  O   UNL     1       5.937   3.536  15.796  0.00  0.00    +0.000 OA
ATOM      9  C   UNL     1       5.545   4.136  16.796  0.00  0.00    +0.000 C 
BRANCH   9  10
ATOM     10  C   UNL     1       6.405   5.216  17.362  0.00  0.00    +0.000 A 
ATOM     11  C   UNL     1       7.335   4.986  18.385  0.00  0.00    +0.000 A 
ATOM     12  C   UNL     1       8.121   6.039  18.864  0.00  0.00    +0.000 A 
ATOM     13  C   UNL     1       7.978   7.310  18.319  0.00  0.00    +0.000 A 
ATOM     14  F   UNL     1       8.739   8.315  18.779  0.00  0.00    +0.000 F 
ATOM     15  C   UNL     1       7.056   7.557  17.310  0.00  0.00    +0.000 A 
ATOM     16  C   UNL     1       6.265   6.512  16.834  0.00  0.00    +0.000 A 
ENDBRANCH   9  10
ENDBRANCH   7   9
ENDBRANCH   1   7
BRANCH   5  17
ATOM     17  C   UNL     1       2.026   6.082  20.568  0.00  0.00    +0.000 C 
BRANCH  17  18
ATOM     18  C   UNL     1       1.904   7.369  19.780  0.00  0.00    +0.000 A 
ATOM     19  C   UNL     1       2.383   7.439  18.461  0.00  0.00    +0.000 A 
ATOM     20  C   UNL     1       2.232   8.604  17.709  0.00  0.00    +0.000 A 
ATOM     21  C   UNL     1       1.598   9.714  18.264  0.00  0.00    +0.000 A 
ATOM     22  C   UNL     1       1.124   9.662  19.575  0.00  0.00    +0.000 A 
ATOM     23  C   UNL     1       1.275   8.496  20.330  0.00  0.00    +0.000 A 
ENDBRANCH  17  18
ENDBRANCH   5  17
TORSDOF 5
ENDMDL
MODEL 9
REMARK VINA RESULT:      -7.5      3.054      6.373
REMARK  Name = 
REMARK  5 active torsions:
REMARK  status: ('A' for Active; 'I' for Inactive)
REMARK    1  A    between atoms: C_2  and  C_3
REMARK    2  A    between atoms: C_2  and  C_17
REMARK    3  A    between atoms: C_3  and  C_4
REMARK    4  A    between atoms: N_8  and  C_9
REMARK    5  A    between atoms: C_9  and  C_10
REMARK                            x       y       z     vdW  Elec       q    Type
REMARK                         _______ _______ _______ _____ _____    ______ ____
ROOT
ATOM      1  C   UNL     1       4.222   6.988  17.820  0.00  0.00    +0.000 C 
ATOM      2  C   UNL     1       5.311   7.041  16.738  0.00  0.00    +0.000 C 
ATOM      3  C   UNL     1       5.116   5.948  15.695  0.00  0.00    +0.000 C 
ATOM      4  C   UNL     1       5.003   4.572  16.349  0.00  0.00    +0.000 C 
ATOM      5  N   UNL     1       3.934   4.524  17.364  0.00  0.00    +0.000 NA
ATOM      6  C   UNL     1       4.153   5.561  18.396  0.00  0.00    +0.000 C 
ENDROOT
BRANCH   1   7
ATOM      7  C   UNL     1       2.840   7.442  17.307  0.00  0.00    +0.000 C 
BRANCH   7   9
ATOM      8  O   UNL     1       2.693   9.852  17.449  0.00  0.00    +0.000 OA
ATOM      9  C   UNL     1       2.380   8.758  17.917  0.00  0.00    +0.000 C 
BRANCH   9  10
ATOM     10  C   UNL     1       1.583   8.724  19.179  0.00  0.00    +0.000 A 
ATOM     11  C   UNL     1       1.801   7.776  20.187  0.00  0.00    +0.000 A 
ATOM     12  C   UNL     1       1.028   7.804  21.352  0.00  0.00    +0.000 A 
ATOM     13  C   UNL     1       0.047   8.778  21.505  0.00  0.00    +0.000 A 
ATOM     14  F   UNL     1      -0.688   8.803  22.627  0.00  0.00    +0.000 F 
ATOM     15  C   UNL     1      -0.188   9.720  20.512  0.00  0.00    +0.000 A 
ATOM     16  C   UNL     1       0.576   9.691  19.345  0.00  0.00    +0.000 A 
ENDBRANCH   9  10
ENDBRANCH   7   9
ENDBRANCH   1   7
BRANCH   5  17
ATOM     17  C   UNL     1       3.897   3.202  18.029  0.00  0.00    +0.000 C 
BRANCH  17  18
ATOM     18  C   UNL     1       2.975   3.104  19.226  0.00  0.00    +0.000 A 
ATOM     19  C   UNL     1       1.603   3.371  19.085  0.00  0.00    +0.000 A 
ATOM     20  C   UNL     1       0.736   3.237  20.170  0.00  0.00    +0.000 A 
ATOM     21  C   UNL     1       1.228   2.831  21.409  0.00  0.00    +0.000 A 
ATOM     22  C   UNL     1       2.590   2.569  21.565  0.00  0.00    +0.000 A 
ATOM     23  C   UNL     1       3.459   2.705  20.481  0.00  0.00    +0.000 A 
ENDBRANCH  17  18
ENDBRANCH   5  17
TORSDOF 5
ENDMDL
