MODEL 1
REMARK VINA RESULT:      -8.5      0.000      0.000
REMARK  Name = 
REMARK  5 active torsions:
REMARK  status: ('A' for Active; 'I' for Inactive)
REMARK    1  A    between atoms: C_2  and  C_3
REMARK    2  A    between atoms: C_6  and  N_7
REMARK    3  A    between atoms: C_9  and  C_10
REMARK    4  A    between atoms: C_16  and  C_17
REMARK    5  A    between atoms: C_17  and  C_18
REMARK                            x       y       z     vdW  Elec       q    Type
REMARK                         _______ _______ _______ _____ _____    ______ ____
ROOT
ATOM      1  N   UNL     1       3.477   5.829  17.599  0.00  0.00    +0.000 N 
ATOM      2  N   UNL     1       4.515   6.022  16.725  0.00  0.00    +0.000 NA
ATOM      3  C   UNL     1       4.873   4.767  16.412  0.00  0.00    +0.000 A 
ATOM      4  N   UNL     1       4.051   3.803  16.919  0.00  0.00    +0.000 NA
ATOM      5  C   UNL     1       3.152   4.474  17.611  0.00  0.00    +0.000 A 
ENDROOT
BRANCH   1   9
ATOM      6  C   UNL     1       1.340   8.912  19.605  0.00  0.00    +0.000 A 
ATOM      7  C   UNL     1       1.727   9.075  18.271  0.00  0.00    +0.000 A 
ATOM      8  C   UNL     1       2.497   8.092  17.616  0.00  0.00    +0.000 A 
ATOM      9  C   UNL     1       2.848   6.914  18.288  0.00  0.00    +0.000 A 
ATOM     10  C   UNL     1       2.532   6.807  19.651  0.00  0.00    +0.000 A 
ATOM     11  C   UNL     1       1.780   7.789  20.305  0.00  0.00    +0.000 A 
BRANCH   6  13
ATOM     12  N   UNL     1      -0.246  10.620  20.752  0.00  0.00    +0.000 NA
ATOM     13  C   UNL     1       0.473   9.861  20.255  0.00  0.00    +0.000 C 
ENDBRANCH   6  13
ENDBRANCH   1   9
BRANCH   3  14
ATOM     14  C   UNL     1       5.996   4.378  15.504  0.00  0.00    +0.000 C 
ATOM     15  C   UNL     1       5.662   4.241  14.034  0.00  0.00    +0.000 C 
ATOM     16  C   UNL     1       7.000   4.445  13.351  0.00  0.00    +0.000 C 
ATOM     17  O   UNL     1       7.799   5.268  14.206  0.00  0.00    +0.000 OA
ATOM     18  C   UNL     1       7.112   5.420  15.458  0.00  0.00    +0.000 C 
ENDBRANCH   3  14
BRANCH   5  19
ATOM     19  C   UNL     1       1.876   3.874  18.123  0.00  0.00    +0.000 C 
BRANCH  19  20
ATOM     20  C   UNL     1       1.831   3.373  19.540  0.00  0.00    +0.000 C 
ATOM     21  C   UNL     1       0.785   3.276  20.371  0.00  0.00    +0.000 C 
ATOM     22  C   UNL     1       1.165   2.758  21.715  0.00  0.00    +0.000 C 
ATOM     23  C   UNL     1       2.662   2.477  21.597  0.00  0.00    +0.000 C 
ATOM     24  C   UNL     1       3.094   2.895  20.190  0.00  0.00    +0.000 C 
ENDBRANCH  19  20
ENDBRANCH   5  19
TORSDOF 5
ENDMDL
MODEL 2
REMARK VINA RESULT:      -8.3      0.287      1.022
REMARK  Name = 
REMARK  5 active torsions:
REMARK  status: ('A' for Active; 'I' for Inactive)
REMARK    1  A    between atoms: C_2  and  C_3
REMARK    2  A    between atoms: C_6  and  N_7
REMARK    3  A    between atoms: C_9  and  C_10
REMARK    4  A    between atoms: C_16  and  C_17
REMARK    5  A    between atoms: C_17  and  C_18
REMARK                            x       y       z     vdW  Elec       q    Type
REMARK                         _______ _______ _______ _____ _____    ______ ____
ROOT
ATOM      1  N   UNL     1       3.402   5.705  17.600  0.00  0.00    +0.000 N 
ATOM      2  N   UNL     1       4.448   5.978  16.757  0.00  0.00    +0.000 NA
ATOM      3  C   UNL     1       4.914   4.754  16.461  0.00  0.00    +0.000 A 
ATOM      4  N   UNL     1       4.155   3.730  16.947  0.00  0.00    +0.000 NA
ATOM      5  C   UNL     1       3.184   4.329  17.607  0.00  0.00    +0.000 A 
ENDROOT
BRANCH   1   9
ATOM      6  C   UNL     1       1.481   8.934  19.597  0.00  0.00    +0.000 A 
ATOM      7  C   UNL     1       1.832   7.777  20.301  0.00  0.00    +0.000 A 
ATOM      8  C   UNL     1       2.404   6.672  19.638  0.00  0.00    +0.000 A 
ATOM      9  C   UNL     1       2.667   6.739  18.264  0.00  0.00    +0.000 A 
ATOM     10  C   UNL     1       2.226   7.867  17.557  0.00  0.00    +0.000 A 
ATOM     11  C   UNL     1       1.645   8.958  18.212  0.00  0.00    +0.000 A 
BRANCH   6  13
ATOM     12  N   UNL     1       0.621  11.048  20.837  0.00  0.00    +0.000 NA
ATOM     13  C   UNL     1       0.988  10.104  20.276  0.00  0.00    +0.000 C 
ENDBRANCH   6  13
ENDBRANCH   1   9
BRANCH   3  14
ATOM     14  C   UNL     1       6.092   4.454  15.591  0.00  0.00    +0.000 C 
ATOM     15  C   UNL     1       5.819   4.299  14.110  0.00  0.00    +0.000 C 
ATOM     16  C   UNL     1       7.160   4.605  13.474  0.00  0.00    +0.000 C 
ATOM     17  O   UNL     1       7.867   5.481  14.356  0.00  0.00    +0.000 OA
ATOM     18  C   UNL     1       7.129   5.575  15.585  0.00  0.00    +0.000 C 
ENDBRANCH   3  14
BRANCH   5  19
ATOM     19  C   UNL     1       1.943   3.631  18.081  0.00  0.00    +0.000 C 
BRANCH  19  20
ATOM     20  C   UNL     1       1.849   3.227  19.526  0.00  0.00    +0.000 C 
ATOM     21  C   UNL     1       0.777   3.196  20.328  0.00  0.00    +0.000 C 
ATOM     22  C   UNL     1       1.110   2.766  21.716  0.00  0.00    +0.000 C 
ATOM     23  C   UNL     1       2.607   2.465  21.664  0.00  0.00    +0.000 C 
ATOM     24  C   UNL     1       3.086   2.783  20.246  0.00  0.00    +0.000 C 
ENDBRANCH  19  20
ENDBRANCH   5  19
TORSDOF 5
ENDMDL
MODEL 3
REMARK VINA RESULT:      -7.8      1.012      1.639
REMARK  Name = 
REMARK  5 active torsions:
REMARK  status: ('A' for Active; 'I' for Inactive)
REMARK    1  A    between atoms: C_2  and  C_3
REMARK    2  A    between atoms: C_6  and  N_7
REMARK    3  A    between atoms: C_9  and  C_10
REMARK    4  A    between atoms: C_16  and  C_17
REMARK    5  A    between atoms: C_17  and  C_18
REMARK                            x       y       z     vdW  Elec       q    Type
REMARK                         _______ _______ _______ _____ _____    ______ ____
ROOT
ATOM      1  N   UNL     1       2.955   6.661  18.097  0.00  0.00    +0.000 N 
ATOM      2  N   UNL     1       3.933   7.129  17.259  0.00  0.00    +0.000 NA
ATOM      3  C   UNL     1       4.467   5.998  16.770  0.00  0.00    +0.000 A 
ATOM      4  N   UNL     1       3.809   4.860  17.136  0.00  0.00    +0.000 NA
ATOM      5  C   UNL     1       2.835   5.285  17.916  0.00  0.00    +0.000 A 
ENDROOT
BRANCH   1   9
ATOM      6  C   UNL     1       0.924   9.413  20.628  0.00  0.00    +0.000 A 
ATOM      7  C   UNL     1       1.351   8.178  21.127  0.00  0.00    +0.000 A 
ATOM      8  C   UNL     1       1.961   7.228  20.283  0.00  0.00    +0.000 A 
ATOM      9  C   UNL     1       2.186   7.532  18.934  0.00  0.00    +0.000 A 
ATOM     10  C   UNL     1       1.671   8.734  18.428  0.00  0.00    +0.000 A 
ATOM     11  C   UNL     1       1.052   9.671  19.263  0.00  0.00    +0.000 A 
BRANCH   6  13
ATOM     12  N   UNL     1      -0.027  11.269  22.176  0.00  0.00    +0.000 NA
ATOM     13  C   UNL     1       0.390  10.429  21.497  0.00  0.00    +0.000 C 
ENDBRANCH   6  13
ENDBRANCH   1   9
BRANCH   3  14
ATOM     14  C   UNL     1       5.615   5.915  15.817  0.00  0.00    +0.000 C 
ATOM     15  C   UNL     1       6.959   5.541  16.406  0.00  0.00    +0.000 C 
ATOM     16  C   UNL     1       7.712   4.968  15.221  0.00  0.00    +0.000 C 
ATOM     17  O   UNL     1       6.745   4.436  14.311  0.00  0.00    +0.000 OA
ATOM     18  C   UNL     1       5.438   4.821  14.766  0.00  0.00    +0.000 C 
ENDBRANCH   3  14
BRANCH   5  19
ATOM     19  C   UNL     1       1.674   4.433  18.338  0.00  0.00    +0.000 C 
BRANCH  19  20
ATOM     20  C   UNL     1       1.755   3.699  19.648  0.00  0.00    +0.000 C 
ATOM     21  C   UNL     1       0.767   3.325  20.471  0.00  0.00    +0.000 C 
ATOM     22  C   UNL     1       1.269   2.642  21.697  0.00  0.00    +0.000 C 
ATOM     23  C   UNL     1       2.783   2.586  21.500  0.00  0.00    +0.000 C 
ATOM     24  C   UNL     1       3.096   3.290  20.179  0.00  0.00    +0.000 C 
ENDBRANCH  19  20
ENDBRANCH   5  19
TORSDOF 5
ENDMDL
MODEL 4
REMARK VINA RESULT:      -7.5      3.331      6.788
REMARK  Name = 
REMARK  5 active torsions:
REMARK  status: ('A' for Active; 'I' for Inactive)
REMARK    1  A    between atoms: C_2  and  C_3
REMARK    2  A    between atoms: C_6  and  N_7
REMARK    3  A    between atoms: C_9  and  C_10
REMARK    4  A    between atoms: C_16  and  C_17
REMARK    5  A    between atoms: C_17  and  C_18
REMARK                            x       y       z     vdW  Elec       q    Type
REMARK                         _______ _______ _______ _____ _____    ______ ____
ROOT
ATOM      1  N   UNL     1       2.751   6.245  19.726  0.00  0.00    +0.000 N 
ATOM      2  N   UNL     1       2.584   7.581  19.983  0.00  0.00    +0.000 NA
ATOM      3  C   UNL     1       1.501   7.594  20.778  0.00  0.00    +0.000 A 
ATOM      4  N   UNL     1       1.058   6.357  21.146  0.00  0.00    +0.000 NA
ATOM      5  C   UNL     1       1.875   5.523  20.533  0.00  0.00    +0.000 A 
ENDROOT
BRANCH   1   9
ATOM      6  C   UNL     1       5.797   5.100  16.985  0.00  0.00    +0.000 A 
ATOM      7  C   UNL     1       4.484   5.292  16.541  0.00  0.00    +0.000 A 
ATOM      8  C   UNL     1       3.451   5.601  17.450  0.00  0.00    +0.000 A 
ATOM      9  C   UNL     1       3.741   5.763  18.811  0.00  0.00    +0.000 A 
ATOM     10  C   UNL     1       5.041   5.478  19.253  0.00  0.00    +0.000 A 
ATOM     11  C   UNL     1       6.063   5.156  18.353  0.00  0.00    +0.000 A 
BRANCH   6  13
ATOM     12  N   UNL     1       7.736   4.731  15.297  0.00  0.00    +0.000 NA
ATOM     13  C   UNL     1       6.877   4.880  16.058  0.00  0.00    +0.000 C 
ENDBRANCH   6  13
ENDBRANCH   1   9
BRANCH   3  14
ATOM     14  C   UNL     1       0.844   8.813  21.341  0.00  0.00    +0.000 C 
ATOM     15  C   UNL     1      -0.600   8.666  21.772  0.00  0.00    +0.000 C 
ATOM     16  C   UNL     1      -0.776   9.777  22.788  0.00  0.00    +0.000 C 
ATOM     17  O   UNL     1       0.505  10.037  23.370  0.00  0.00    +0.000 OA
ATOM     18  C   UNL     1       1.492   9.294  22.637  0.00  0.00    +0.000 C 
ENDBRANCH   3  14
BRANCH   5  19
ATOM     19  C   UNL     1       1.966   4.060  20.851  0.00  0.00    +0.000 C 
BRANCH  19  20
ATOM     20  C   UNL     1       2.308   3.100  19.745  0.00  0.00    +0.000 C 
ATOM     21  C   UNL     1       1.614   2.802  18.640  0.00  0.00    +0.000 C 
ATOM     22  C   UNL     1       2.284   1.766  17.803  0.00  0.00    +0.000 C 
ATOM     23  C   UNL     1       3.588   1.474  18.544  0.00  0.00    +0.000 C 
ATOM     24  C   UNL     1       3.590   2.328  19.813  0.00  0.00    +0.000 C 
ENDBRANCH  19  20
ENDBRANCH   5  19
TORSDOF 5
ENDMDL
MODEL 5
REMARK VINA RESULT:      -7.5      1.178      1.633
REMARK  Name = 
REMARK  5 active torsions:
REMARK  status: ('A' for Active; 'I' for Inactive)
REMARK    1  A    between atoms: C_2  and  C_3
REMARK    2  A    between atoms: C_6  and  N_7
REMARK    3  A    between atoms: C_9  and  C_10
REMARK    4  A    between atoms: C_16  and  C_17
REMARK    5  A    between atoms: C_17  and  C_18
REMARK                            x       y       z     vdW  Elec       q    Type
REMARK                         _______ _______ _______ _____ _____    ______ ____
ROOT
ATOM      1  N   UNL     1       2.949   7.070  17.987  0.00  0.00    +0.000 N 
ATOM      2  N   UNL     1       3.962   7.389  17.120  0.00  0.00    +0.000 NA
ATOM      3  C   UNL     1       4.460   6.185  16.795  0.00  0.00    +0.000 A 
ATOM      4  N   UNL     1       3.749   5.130  17.287  0.00  0.00    +0.000 NA
ATOM      5  C   UNL     1       2.777   5.687  17.981  0.00  0.00    +0.000 A 
ENDROOT
BRANCH   1   9
ATOM      6  C   UNL     1       0.474   9.865  20.028  0.00  0.00    +0.000 A 
ATOM      7  C   UNL     1       0.796  10.060  18.681  0.00  0.00    +0.000 A 
ATOM      8  C   UNL     1       1.672   9.181  18.012  0.00  0.00    +0.000 A 
ATOM      9  C   UNL     1       2.199   8.070  18.685  0.00  0.00    +0.000 A 
ATOM     10  C   UNL     1       1.941   7.940  20.057  0.00  0.00    +0.000 A 
ATOM     11  C   UNL     1       1.083   8.821  20.725  0.00  0.00    +0.000 A 
BRANCH   6  13
ATOM     12  N   UNL     1      -1.287  11.337  21.244  0.00  0.00    +0.000 NA
ATOM     13  C   UNL     1      -0.493  10.696  20.696  0.00  0.00    +0.000 C 
ENDBRANCH   6  13
ENDBRANCH   1   9
BRANCH   3  14
ATOM     14  C   UNL     1       5.622   5.935  15.889  0.00  0.00    +0.000 C 
ATOM     15  C   UNL     1       6.914   5.503  16.549  0.00  0.00    +0.000 C 
ATOM     16  C   UNL     1       7.650   4.780  15.437  0.00  0.00    +0.000 C 
ATOM     17  O   UNL     1       6.668   4.257  14.539  0.00  0.00    +0.000 OA
ATOM     18  C   UNL     1       5.385   4.780  14.919  0.00  0.00    +0.000 C 
ENDBRANCH   3  14
BRANCH   5  19
ATOM     19  C   UNL     1       1.574   4.942  18.480  0.00  0.00    +0.000 C 
BRANCH  19  20
ATOM     20  C   UNL     1       1.678   4.187  19.776  0.00  0.00    +0.000 C 
ATOM     21  C   UNL     1       2.446   4.440  20.843  0.00  0.00    +0.000 C 
ATOM     22  C   UNL     1       2.281   3.426  21.923  0.00  0.00    +0.000 C 
ATOM     23  C   UNL     1       1.212   2.478  21.384  0.00  0.00    +0.000 C 
ATOM     24  C   UNL     1       0.837   2.964  19.983  0.00  0.00    +0.000 C 
ENDBRANCH  19  20
ENDBRANCH   5  19
TORSDOF 5
ENDMDL
MODEL 6
REMARK VINA RESULT:      -7.5      2.927      6.529
REMARK  Name = 
REMARK  5 active torsions:
REMARK  status: ('A' for Active; 'I' for Inactive)
REMARK    1  A    between atoms: C_2  and  C_3
REMARK    2  A    between atoms: C_6  and  N_7
REMARK    3  A    between atoms: C_9  and  C_10
REMARK    4  A    between atoms: C_16  and  C_17
REMARK    5  A    between atoms: C_17  and  C_18
REMARK                            x       y       z     vdW  Elec       q    Type
REMARK                         _______ _______ _______ _____ _____    ______ ____
ROOT
ATOM      1  N   UNL     1       3.225   6.983  18.021  0.00  0.00    +0.000 N 
ATOM      2  N   UNL     1       2.819   8.261  17.738  0.00  0.00    +0.000 NA
ATOM      3  C   UNL     1       1.987   8.537  18.755  0.00  0.00    +0.000 A 
ATOM      4  N   UNL     1       1.947   7.578  19.725  0.00  0.00    +0.000 NA
ATOM      5  C   UNL     1       2.763   6.640  19.289  0.00  0.00    +0.000 A 
ENDROOT
BRANCH   1   9
ATOM      6  C   UNL     1       5.459   4.779  15.148  0.00  0.00    +0.000 A 
ATOM      7  C   UNL     1       4.716   4.112  16.127  0.00  0.00    +0.000 A 
ATOM      8  C   UNL     1       4.029   4.829  17.128  0.00  0.00    +0.000 A 
ATOM      9  C   UNL     1       4.050   6.229  17.125  0.00  0.00    +0.000 A 
ATOM     10  C   UNL     1       4.873   6.881  16.195  0.00  0.00    +0.000 A 
ATOM     11  C   UNL     1       5.567   6.169  15.210  0.00  0.00    +0.000 A 
BRANCH   6  13
ATOM     12  N   UNL     1       6.592   3.521  13.177  0.00  0.00    +0.000 NA
ATOM     13  C   UNL     1       6.084   4.066  14.064  0.00  0.00    +0.000 C 
ENDBRANCH   6  13
ENDBRANCH   1   9
BRANCH   3  14
ATOM     14  C   UNL     1       1.219   9.806  18.938  0.00  0.00    +0.000 C 
ATOM     15  C   UNL     1      -0.032   9.967  18.102  0.00  0.00    +0.000 C 
ATOM     16  C   UNL     1      -0.856  10.964  18.893  0.00  0.00    +0.000 C 
ATOM     17  O   UNL     1      -0.484  10.836  20.268  0.00  0.00    +0.000 OA
ATOM     18  C   UNL     1       0.655   9.964  20.348  0.00  0.00    +0.000 C 
ENDBRANCH   3  14
BRANCH   5  19
ATOM     19  C   UNL     1       3.266   5.511  20.140  0.00  0.00    +0.000 C 
BRANCH  19  20
ATOM     20  C   UNL     1       2.374   4.321  20.362  0.00  0.00    +0.000 C 
ATOM     21  C   UNL     1       1.549   3.710  19.502  0.00  0.00    +0.000 C 
ATOM     22  C   UNL     1       0.807   2.577  20.124  0.00  0.00    +0.000 C 
ATOM     23  C   UNL     1       1.343   2.520  21.554  0.00  0.00    +0.000 C 
ATOM     24  C   UNL     1       2.346   3.665  21.709  0.00  0.00    +0.000 C 
ENDBRANCH  19  20
ENDBRANCH   5  19
TORSDOF 5
ENDMDL
MODEL 7
REMARK VINA RESULT:      -7.5      1.764      2.626
REMARK  Name = 
REMARK  5 active torsions:
REMARK  status: ('A' for Active; 'I' for Inactive)
REMARK    1  A    between atoms: C_2  and  C_3
REMARK    2  A    between atoms: C_6  and  N_7
REMARK    3  A    between atoms: C_9  and  C_10
REMARK    4  A    between atoms: C_16  and  C_17
REMARK    5  A    between atoms: C_17  and  C_18
REMARK                            x       y       z     vdW  Elec       q    Type
REMARK                         _______ _______ _______ _____ _____    ______ ____
ROOT
ATOM      1  N   UNL     1       2.404   7.804  18.735  0.00  0.00    +0.000 N 
ATOM      2  N   UNL     1       3.145   7.777  17.582  0.00  0.00    +0.000 NA
ATOM      3  C   UNL     1       3.928   6.701  17.761  0.00  0.00    +0.000 A 
ATOM      4  N   UNL     1       3.638   5.974  18.879  0.00  0.00    +0.000 NA
ATOM      5  C   UNL     1       2.652   6.635  19.450  0.00  0.00    +0.000 A 
ENDROOT
BRANCH   1   9
ATOM      6  C   UNL     1      -0.512  10.761  19.657  0.00  0.00    +0.000 A 
ATOM      7  C   UNL     1      -0.163  10.505  18.327  0.00  0.00    +0.000 A 
ATOM      8  C   UNL     1       0.852   9.580  18.010  0.00  0.00    +0.000 A 
ATOM      9  C   UNL     1       1.496   8.870  19.033  0.00  0.00    +0.000 A 
ATOM     10  C   UNL     1       1.200   9.204  20.362  0.00  0.00    +0.000 A 
ATOM     11  C   UNL     1       0.203  10.133  20.677  0.00  0.00    +0.000 A 
BRANCH   6  13
ATOM     12  N   UNL     1      -2.487  12.348  20.232  0.00  0.00    +0.000 NA
ATOM     13  C   UNL     1      -1.612  11.629  19.990  0.00  0.00    +0.000 C 
ENDBRANCH   6  13
ENDBRANCH   1   9
BRANCH   3  14
ATOM     14  C   UNL     1       4.974   6.213  16.812  0.00  0.00    +0.000 C 
ATOM     15  C   UNL     1       6.409   6.285  17.289  0.00  0.00    +0.000 C 
ATOM     16  C   UNL     1       7.110   5.234  16.450  0.00  0.00    +0.000 C 
ATOM     17  O   UNL     1       6.138   4.247  16.095  0.00  0.00    +0.000 OA
ATOM     18  C   UNL     1       4.843   4.725  16.494  0.00  0.00    +0.000 C 
ENDBRANCH   3  14
BRANCH   5  19
ATOM     19  C   UNL     1       1.806   6.078  20.557  0.00  0.00    +0.000 C 
BRANCH  19  20
ATOM     20  C   UNL     1       1.712   4.585  20.713  0.00  0.00    +0.000 C 
ATOM     21  C   UNL     1       2.200   3.803  21.685  0.00  0.00    +0.000 C 
ATOM     22  C   UNL     1       1.919   2.358  21.454  0.00  0.00    +0.000 C 
ATOM     23  C   UNL     1       1.100   2.338  20.164  0.00  0.00    +0.000 C 
ATOM     24  C   UNL     1       0.984   3.783  19.677  0.00  0.00    +0.000 C 
ENDBRANCH  19  20
ENDBRANCH   5  19
TORSDOF 5
ENDMDL
MODEL 8
REMARK VINA RESULT:      -7.4      3.290      6.891
REMARK  Name = 
REMARK  5 active torsions:
REMARK  status: ('A' for Active; 'I' for Inactive)
REMARK    1  A    between atoms: C_2  and  C_3
REMARK    2  A    between atoms: C_6  and  N_7
REMARK    3  A    between atoms: C_9  and  C_10
REMARK    4  A    between atoms: C_16  and  C_17
REMARK    5  A    between atoms: C_17  and  C_18
REMARK                            x       y       z     vdW  Elec       q    Type
REMARK                         _______ _______ _______ _____ _____    ______ ____
ROOT
ATOM      1  N   UNL     1       2.635   6.665  19.734  0.00  0.00    +0.000 N 
ATOM      2  N   UNL     1       2.230   7.958  19.936  0.00  0.00    +0.000 NA
ATOM      3  C   UNL     1       1.110   7.805  20.661  0.00  0.00    +0.000 A 
ATOM      4  N   UNL     1       0.857   6.519  21.042  0.00  0.00    +0.000 NA
ATOM      5  C   UNL     1       1.841   5.823  20.510  0.00  0.00    +0.000 A 
ENDROOT
BRANCH   1   9
ATOM      6  C   UNL     1       5.812   5.426  17.189  0.00  0.00    +0.000 A 
ATOM      7  C   UNL     1       5.929   5.298  18.577  0.00  0.00    +0.000 A 
ATOM      8  C   UNL     1       4.915   5.769  19.435  0.00  0.00    +0.000 A 
ATOM      9  C   UNL     1       3.751   6.337  18.899  0.00  0.00    +0.000 A 
ATOM     10  C   UNL     1       3.689   6.542  17.513  0.00  0.00    +0.000 A 
ATOM     11  C   UNL     1       4.702   6.088  16.662  0.00  0.00    +0.000 A 
BRANCH   6  13
ATOM     12  N   UNL     1       7.583   4.438  15.566  0.00  0.00    +0.000 NA
ATOM     13  C   UNL     1       6.793   4.863  16.298  0.00  0.00    +0.000 C 
ENDBRANCH   6  13
ENDBRANCH   1   9
BRANCH   3  14
ATOM     14  C   UNL     1       0.221   8.907  21.141  0.00  0.00    +0.000 C 
ATOM     15  C   UNL     1      -0.383   8.739  22.519  0.00  0.00    +0.000 C 
ATOM     16  C   UNL     1      -0.686  10.162  22.944  0.00  0.00    +0.000 C 
ATOM     17  O   UNL     1       0.235  11.021  22.265  0.00  0.00    +0.000 OA
ATOM     18  C   UNL     1       0.955  10.237  21.300  0.00  0.00    +0.000 C 
ENDBRANCH   3  14
BRANCH   5  19
ATOM     19  C   UNL     1       2.154   4.403  20.881  0.00  0.00    +0.000 C 
BRANCH  19  20
ATOM     20  C   UNL     1       2.481   3.425  19.787  0.00  0.00    +0.000 C 
ATOM     21  C   UNL     1       3.446   2.498  19.741  0.00  0.00    +0.000 C 
ATOM     22  C   UNL     1       3.460   1.747  18.454  0.00  0.00    +0.000 C 
ATOM     23  C   UNL     1       2.279   2.321  17.674  0.00  0.00    +0.000 C 
ATOM     24  C   UNL     1       1.658   3.423  18.534  0.00  0.00    +0.000 C 
ENDBRANCH  19  20
ENDBRANCH   5  19
TORSDOF 5
ENDMDL
MODEL 9
REMARK VINA RESULT:      -7.4      2.739      6.481
REMARK  Name = 
REMARK  5 active torsions:
REMARK  status: ('A' for Active; 'I' for Inactive)
REMARK    1  A    between atoms: C_2  and  C_3
REMARK    2  A    between atoms: C_6  and  N_7
REMARK    3  A    between atoms: C_9  and  C_10
REMARK    4  A    between atoms: C_16  and  C_17
REMARK    5  A    between atoms: C_17  and  C_18
REMARK                            x       y       z     vdW  Elec       q    Type
REMARK                         _______ _______ _______ _____ _____    ______ ____
ROOT
ATOM      1  N   UNL     1       3.214   6.958  17.987  0.00  0.00    +0.000 N 
ATOM      2  N   UNL     1       2.768   8.217  17.679  0.00  0.00    +0.000 NA
ATOM      3  C   UNL     1       1.939   8.493  18.699  0.00  0.00    +0.000 A 
ATOM      4  N   UNL     1       1.936   7.556  19.691  0.00  0.00    +0.000 NA
ATOM      5  C   UNL     1       2.774   6.631  19.268  0.00  0.00    +0.000 A 
ENDROOT
BRANCH   1   9
ATOM      6  C   UNL     1       5.484   4.759  15.139  0.00  0.00    +0.000 A 
ATOM      7  C   UNL     1       4.743   4.090  16.119  0.00  0.00    +0.000 A 
ATOM      8  C   UNL     1       4.044   4.806  17.112  0.00  0.00    +0.000 A 
ATOM      9  C   UNL     1       4.051   6.207  17.100  0.00  0.00    +0.000 A 
ATOM     10  C   UNL     1       4.870   6.861  16.169  0.00  0.00    +0.000 A 
ATOM     11  C   UNL     1       5.576   6.150  15.192  0.00  0.00    +0.000 A 
BRANCH   6  13
ATOM     12  N   UNL     1       6.615   3.488  13.176  0.00  0.00    +0.000 NA
ATOM     13  C   UNL     1       6.122   4.045  14.063  0.00  0.00    +0.000 C 
ENDBRANCH   6  13
ENDBRANCH   1   9
BRANCH   3  14
ATOM     14  C   UNL     1       1.137   9.744  18.860  0.00  0.00    +0.000 C 
ATOM     15  C   UNL     1       0.770  10.135  20.276  0.00  0.00    +0.000 C 
ATOM     16  C   UNL     1       0.535  11.630  20.175  0.00  0.00    +0.000 C 
ATOM     17  O   UNL     1       1.327  12.119  19.090  0.00  0.00    +0.000 OA
ATOM     18  C   UNL     1       1.881  10.993  18.391  0.00  0.00    +0.000 C 
ENDBRANCH   3  14
BRANCH   5  19
ATOM     19  C   UNL     1       3.318   5.537  20.139  0.00  0.00    +0.000 C 
BRANCH  19  20
ATOM     20  C   UNL     1       2.422   4.382  20.491  0.00  0.00    +0.000 C 
ATOM     21  C   UNL     1       2.335   3.699  21.640  0.00  0.00    +0.000 C 
ATOM     22  C   UNL     1       1.338   2.592  21.575  0.00  0.00    +0.000 C 
ATOM     23  C   UNL     1       0.740   2.710  20.175  0.00  0.00    +0.000 C 
ATOM     24  C   UNL     1       1.459   3.861  19.468  0.00  0.00    +0.000 C 
ENDBRANCH  19  20
ENDBRANCH   5  19
TORSDOF 5
ENDMDL
