MODEL 1
REMARK VINA RESULT:      -9.3      0.000      0.000
REMARK  Name = 
REMARK  4 active torsions:
REMARK  status: ('A' for Active; 'I' for Inactive)
REMARK    1  A    between atoms: C_1  and  C_2
REMARK    2  A    between atoms: C_6  and  N_7
REMARK    3  A    between atoms: N_10  and  C_11
REMARK    4  A    between atoms: C_14  and  C_15
REMARK                            x       y       z     vdW  Elec       q    Type
REMARK                         _______ _______ _______ _____ _____    ______ ____
ROOT
ATOM      1  C   UNL     1       1.404   9.616  19.457  0.00  0.00    +0.000 A 
ATOM      2  C   UNL     1       1.747   9.559  18.106  0.00  0.00    +0.000 A 
ATOM      3  C   UNL     1       2.335   8.409  17.563  0.00  0.00    +0.000 A 
ATOM      4  C   UNL     1       2.569   7.256  18.329  0.00  0.00    +0.000 A 
ATOM      5  C   UNL     1       2.193   7.327  19.687  0.00  0.00    +0.000 A 
ATOM      6  C   UNL     1       1.656   8.497  20.251  0.00  0.00    +0.000 A 
ATOM      7 CL   UNL     1       1.273   8.503  21.938  0.00  0.00    +0.000 Cl
ENDROOT
BRANCH   4   8
ATOM      8  C   UNL     1       3.300   6.081  17.771  0.00  0.00    +0.000 A 
ATOM      9  C   UNL     1       2.660   4.814  17.723  0.00  0.00    +0.000 A 
ATOM     10  C   UNL     1       3.327   3.626  17.364  0.00  0.00    +0.000 A 
ATOM     11  C   UNL     1       4.681   3.646  17.065  0.00  0.00    +0.000 A 
ATOM     12  C   UNL     1       5.295   4.881  17.058  0.00  0.00    +0.000 A 
ATOM     13  C   UNL     1       4.637   6.088  17.353  0.00  0.00    +0.000 A 
ATOM     14  C   UNL     1       5.600   7.211  17.108  0.00  0.00    +0.000 C 
ATOM     15  N   UNL     1       6.803   6.537  16.678  0.00  0.00    +0.000 N 
ATOM     16  C   UNL     1       6.695   5.170  16.738  0.00  0.00    +0.000 C 
ATOM     17  O   UNL     1       7.582   4.356  16.587  0.00  0.00    +0.000 OA
ATOM     18  H   UNL     1       7.698   6.978  16.517  0.00  0.00    +0.000 HD
ENDBRANCH   4   8
BRANCH   1  22
ATOM     19  N   UNL     1      -0.949  12.087  20.712  0.00  0.00    +0.000 N 
ATOM     20  C   UNL     1      -0.562  10.899  20.118  0.00  0.00    +0.000 C 
ATOM     21  O   UNL     1      -1.328  10.018  19.748  0.00  0.00    +0.000 OA
ATOM     22  N   UNL     1       0.815  10.785  20.012  0.00  0.00    +0.000 N 
ATOM     23  H   UNL     1      -0.275  12.838  20.692  0.00  0.00    +0.000 HD
ATOM     24  H   UNL     1       1.334  11.216  20.765  0.00  0.00    +0.000 HD
BRANCH  19  30
ATOM     25  C   UNL     1      -4.158  12.542  24.446  0.00  0.00    +0.000 C 
ATOM     26  C   UNL     1      -3.850  12.618  22.980  0.00  0.00    +0.000 A 
ATOM     27  C   UNL     1      -4.852  12.975  22.073  0.00  0.00    +0.000 A 
ATOM     28  C   UNL     1      -4.572  13.039  20.715  0.00  0.00    +0.000 A 
ATOM     29  C   UNL     1      -3.288  12.751  20.251  0.00  0.00    +0.000 A 
ATOM     30  C   UNL     1      -2.261  12.403  21.135  0.00  0.00    +0.000 A 
ATOM     31  C   UNL     1      -2.554  12.334  22.504  0.00  0.00    +0.000 A 
ENDBRANCH  19  30
ENDBRANCH   1  22
TORSDOF 3
ENDMDL
MODEL 2
REMARK VINA RESULT:      -9.0      0.548      1.456
REMARK  Name = 
REMARK  4 active torsions:
REMARK  status: ('A' for Active; 'I' for Inactive)
REMARK    1  A    between atoms: C_1  and  C_2
REMARK    2  A    between atoms: C_6  and  N_7
REMARK    3  A    between atoms: N_10  and  C_11
REMARK    4  A    between atoms: C_14  and  C_15
REMARK                            x       y       z     vdW  Elec       q    Type
REMARK                         _______ _______ _______ _____ _____    ______ ____
ROOT
ATOM      1  C   UNL     1       1.431   9.549  19.306  0.00  0.00    +0.000 A 
ATOM      2  C   UNL     1       1.828   9.487  17.970  0.00  0.00    +0.000 A 
ATOM      3  C   UNL     1       2.458   8.344  17.460  0.00  0.00    +0.000 A 
ATOM      4  C   UNL     1       2.685   7.202  18.246  0.00  0.00    +0.000 A 
ATOM      5  C   UNL     1       2.254   7.277  19.587  0.00  0.00    +0.000 A 
ATOM      6  C   UNL     1       1.673   8.441  20.119  0.00  0.00    +0.000 A 
ATOM      7 CL   UNL     1       1.225   8.455  21.790  0.00  0.00    +0.000 Cl
ENDROOT
BRANCH   4   8
ATOM      8  C   UNL     1       3.458   6.037  17.728  0.00  0.00    +0.000 A 
ATOM      9  C   UNL     1       2.844   4.758  17.663  0.00  0.00    +0.000 A 
ATOM     10  C   UNL     1       3.547   3.579  17.341  0.00  0.00    +0.000 A 
ATOM     11  C   UNL     1       4.912   3.623  17.099  0.00  0.00    +0.000 A 
ATOM     12  C   UNL     1       5.503   4.868  17.108  0.00  0.00    +0.000 A 
ATOM     13  C   UNL     1       4.812   6.065  17.366  0.00  0.00    +0.000 A 
ATOM     14  C   UNL     1       5.764   7.204  17.153  0.00  0.00    +0.000 C 
ATOM     15  N   UNL     1       6.995   6.549  16.778  0.00  0.00    +0.000 N 
ATOM     16  C   UNL     1       6.910   5.181  16.845  0.00  0.00    +0.000 C 
ATOM     17  O   UNL     1       7.817   4.382  16.736  0.00  0.00    +0.000 OA
ATOM     18  H   UNL     1       7.889   7.005  16.651  0.00  0.00    +0.000 HD
ENDBRANCH   4   8
BRANCH   1  22
ATOM     19  N   UNL     1      -1.017  11.999  20.412  0.00  0.00    +0.000 N 
ATOM     20  C   UNL     1      -0.584  10.816  19.838  0.00  0.00    +0.000 C 
ATOM     21  O   UNL     1      -1.317   9.934  19.411  0.00  0.00    +0.000 OA
ATOM     22  N   UNL     1       0.798  10.711  19.826  0.00  0.00    +0.000 N 
ATOM     23  H   UNL     1      -0.348  12.752  20.444  0.00  0.00    +0.000 HD
ATOM     24  H   UNL     1       1.262  11.138  20.617  0.00  0.00    +0.000 HD
BRANCH  19  30
ATOM     25  C   UNL     1      -5.663  12.716  18.881  0.00  0.00    +0.000 C 
ATOM     26  C   UNL     1      -4.652  12.668  19.987  0.00  0.00    +0.000 A 
ATOM     27  C   UNL     1      -5.041  12.941  21.302  0.00  0.00    +0.000 A 
ATOM     28  C   UNL     1      -4.106  12.905  22.327  0.00  0.00    +0.000 A 
ATOM     29  C   UNL     1      -2.775  12.594  22.049  0.00  0.00    +0.000 A 
ATOM     30  C   UNL     1      -2.357  12.304  20.746  0.00  0.00    +0.000 A 
ATOM     31  C   UNL     1      -3.306  12.349  19.716  0.00  0.00    +0.000 A 
ENDBRANCH  19  30
ENDBRANCH   1  22
TORSDOF 3
ENDMDL
MODEL 3
REMARK VINA RESULT:      -8.8      1.639      2.201
REMARK  Name = 
REMARK  4 active torsions:
REMARK  status: ('A' for Active; 'I' for Inactive)
REMARK    1  A    between atoms: C_1  and  C_2
REMARK    2  A    between atoms: C_6  and  N_7
REMARK    3  A    between atoms: N_10  and  C_11
REMARK    4  A    between atoms: C_14  and  C_15
REMARK                            x       y       z     vdW  Elec       q    Type
REMARK                         _______ _______ _______ _____ _____    ______ ____
ROOT
ATOM      1  C   UNL     1       1.264   9.796  19.502  0.00  0.00    +0.000 A 
ATOM      2  C   UNL     1       1.611   9.669  18.157  0.00  0.00    +0.000 A 
ATOM      3  C   UNL     1       2.246   8.512  17.686  0.00  0.00    +0.000 A 
ATOM      4  C   UNL     1       2.527   7.420  18.522  0.00  0.00    +0.000 A 
ATOM      5  C   UNL     1       2.145   7.560  19.873  0.00  0.00    +0.000 A 
ATOM      6  C   UNL     1       1.560   8.740  20.364  0.00  0.00    +0.000 A 
ATOM      7 CL   UNL     1       1.175   8.836  22.047  0.00  0.00    +0.000 Cl
ENDROOT
BRANCH   4   8
ATOM      8  C   UNL     1       3.305   6.244  18.038  0.00  0.00    +0.000 A 
ATOM      9  C   UNL     1       4.313   6.424  17.053  0.00  0.00    +0.000 A 
ATOM     10  C   UNL     1       4.982   5.353  16.427  0.00  0.00    +0.000 A 
ATOM     11  C   UNL     1       4.648   4.044  16.736  0.00  0.00    +0.000 A 
ATOM     12  C   UNL     1       3.708   3.861  17.729  0.00  0.00    +0.000 A 
ATOM     13  C   UNL     1       3.072   4.913  18.411  0.00  0.00    +0.000 A 
ATOM     14  C   UNL     1       2.228   4.316  19.499  0.00  0.00    +0.000 C 
ATOM     15  N   UNL     1       2.444   2.896  19.351  0.00  0.00    +0.000 N 
ATOM     16  C   UNL     1       3.219   2.587  18.260  0.00  0.00    +0.000 C 
ATOM     17  O   UNL     1       3.438   1.485  17.803  0.00  0.00    +0.000 OA
ATOM     18  H   UNL     1       1.954   2.171  19.858  0.00  0.00    +0.000 HD
ENDBRANCH   4   8
BRANCH   1  22
ATOM     19  N   UNL     1      -1.185  12.224  20.655  0.00  0.00    +0.000 N 
ATOM     20  C   UNL     1      -0.750  11.013  20.146  0.00  0.00    +0.000 C 
ATOM     21  O   UNL     1      -1.473  10.059  19.890  0.00  0.00    +0.000 OA
ATOM     22  N   UNL     1       0.626  10.972  19.983  0.00  0.00    +0.000 N 
ATOM     23  H   UNL     1      -0.561  13.008  20.539  0.00  0.00    +0.000 HD
ATOM     24  H   UNL     1       1.149  11.497  20.671  0.00  0.00    +0.000 HD
BRANCH  19  30
ATOM     25  C   UNL     1      -4.302  12.594  24.475  0.00  0.00    +0.000 C 
ATOM     26  C   UNL     1      -4.038  12.670  23.001  0.00  0.00    +0.000 A 
ATOM     27  C   UNL     1      -5.077  12.985  22.120  0.00  0.00    +0.000 A 
ATOM     28  C   UNL     1      -4.837  13.049  20.754  0.00  0.00    +0.000 A 
ATOM     29  C   UNL     1      -3.557  12.802  20.256  0.00  0.00    +0.000 A 
ATOM     30  C   UNL     1      -2.495  12.497  21.113  0.00  0.00    +0.000 A 
ATOM     31  C   UNL     1      -2.747  12.428  22.490  0.00  0.00    +0.000 A 
ENDBRANCH  19  30
ENDBRANCH   1  22
TORSDOF 3
ENDMDL
MODEL 4
REMARK VINA RESULT:      -8.7      1.176      1.482
REMARK  Name = 
REMARK  4 active torsions:
REMARK  status: ('A' for Active; 'I' for Inactive)
REMARK    1  A    between atoms: C_1  and  C_2
REMARK    2  A    between atoms: C_6  and  N_7
REMARK    3  A    between atoms: N_10  and  C_11
REMARK    4  A    between atoms: C_14  and  C_15
REMARK                            x       y       z     vdW  Elec       q    Type
REMARK                         _______ _______ _______ _____ _____    ______ ____
ROOT
ATOM      1  C   UNL     1       1.454   9.172  20.177  0.00  0.00    +0.000 A 
ATOM      2  C   UNL     1       1.541   7.914  20.771  0.00  0.00    +0.000 A 
ATOM      3  C   UNL     1       2.041   6.816  20.058  0.00  0.00    +0.000 A 
ATOM      4  C   UNL     1       2.512   6.932  18.741  0.00  0.00    +0.000 A 
ATOM      5  C   UNL     1       2.438   8.219  18.167  0.00  0.00    +0.000 A 
ATOM      6  C   UNL     1       1.884   9.311  18.857  0.00  0.00    +0.000 A 
ATOM      7 CL   UNL     1       1.789  10.839  18.051  0.00  0.00    +0.000 Cl
ENDROOT
BRANCH   4   8
ATOM      8  C   UNL     1       2.934   5.739  17.952  0.00  0.00    +0.000 A 
ATOM      9  C   UNL     1       2.172   4.542  18.027  0.00  0.00    +0.000 A 
ATOM     10  C   UNL     1       2.586   3.327  17.445  0.00  0.00    +0.000 A 
ATOM     11  C   UNL     1       3.802   3.244  16.786  0.00  0.00    +0.000 A 
ATOM     12  C   UNL     1       4.522   4.415  16.665  0.00  0.00    +0.000 A 
ATOM     13  C   UNL     1       4.102   5.652  17.183  0.00  0.00    +0.000 A 
ATOM     14  C   UNL     1       5.079   6.698  16.731  0.00  0.00    +0.000 C 
ATOM     15  N   UNL     1       6.040   5.949  15.957  0.00  0.00    +0.000 N 
ATOM     16  C   UNL     1       5.806   4.597  15.984  0.00  0.00    +0.000 C 
ATOM     17  O   UNL     1       6.526   3.718  15.558  0.00  0.00    +0.000 OA
ATOM     18  H   UNL     1       6.901   6.316  15.575  0.00  0.00    +0.000 HD
ENDBRANCH   4   8
BRANCH   1  22
ATOM     19  N   UNL     1      -0.716  11.736  21.569  0.00  0.00    +0.000 N 
ATOM     20  C   UNL     1      -0.390  10.655  20.769  0.00  0.00    +0.000 C 
ATOM     21  O   UNL     1      -1.176  10.055  20.046  0.00  0.00    +0.000 OA
ATOM     22  N   UNL     1       0.939  10.285  20.897  0.00  0.00    +0.000 N 
ATOM     23  H   UNL     1       0.051  12.316  21.872  0.00  0.00    +0.000 HD
ATOM     24  H   UNL     1       1.329  10.422  21.820  0.00  0.00    +0.000 HD
BRANCH  19  30
ATOM     25  C   UNL     1      -4.423  12.403  24.773  0.00  0.00    +0.000 C 
ATOM     26  C   UNL     1      -3.862  12.535  23.388  0.00  0.00    +0.000 A 
ATOM     27  C   UNL     1      -4.637  13.100  22.371  0.00  0.00    +0.000 A 
ATOM     28  C   UNL     1      -4.123  13.217  21.087  0.00  0.00    +0.000 A 
ATOM     29  C   UNL     1      -2.830  12.773  20.807  0.00  0.00    +0.000 A 
ATOM     30  C   UNL     1      -2.026  12.214  21.807  0.00  0.00    +0.000 A 
ATOM     31  C   UNL     1      -2.555  12.094  23.099  0.00  0.00    +0.000 A 
ENDBRANCH  19  30
ENDBRANCH   1  22
TORSDOF 3
ENDMDL
MODEL 5
REMARK VINA RESULT:      -8.6      1.891      2.867
REMARK  Name = 
REMARK  4 active torsions:
REMARK  status: ('A' for Active; 'I' for Inactive)
REMARK    1  A    between atoms: C_1  and  C_2
REMARK    2  A    between atoms: C_6  and  N_7
REMARK    3  A    between atoms: N_10  and  C_11
REMARK    4  A    between atoms: C_14  and  C_15
REMARK                            x       y       z     vdW  Elec       q    Type
REMARK                         _______ _______ _______ _____ _____    ______ ____
ROOT
ATOM      1  C   UNL     1       1.100   9.662  19.259  0.00  0.00    +0.000 A 
ATOM      2  C   UNL     1       1.564   9.479  17.957  0.00  0.00    +0.000 A 
ATOM      3  C   UNL     1       2.287   8.331  17.607  0.00  0.00    +0.000 A 
ATOM      4  C   UNL     1       2.545   7.301  18.525  0.00  0.00    +0.000 A 
ATOM      5  C   UNL     1       2.046   7.496  19.831  0.00  0.00    +0.000 A 
ATOM      6  C   UNL     1       1.370   8.670  20.202  0.00  0.00    +0.000 A 
ATOM      7 CL   UNL     1       0.841   8.840  21.841  0.00  0.00    +0.000 Cl
ENDROOT
BRANCH   4   8
ATOM      8  C   UNL     1       3.414   6.140  18.176  0.00  0.00    +0.000 A 
ATOM      9  C   UNL     1       4.578   6.345  17.389  0.00  0.00    +0.000 A 
ATOM     10  C   UNL     1       5.362   5.290  16.881  0.00  0.00    +0.000 A 
ATOM     11  C   UNL     1       4.997   3.973  17.112  0.00  0.00    +0.000 A 
ATOM     12  C   UNL     1       3.898   3.767  17.919  0.00  0.00    +0.000 A 
ATOM     13  C   UNL     1       3.136   4.803  18.488  0.00  0.00    +0.000 A 
ATOM     14  C   UNL     1       2.120   4.182  19.402  0.00  0.00    +0.000 C 
ATOM     15  N   UNL     1       2.379   2.767  19.280  0.00  0.00    +0.000 N 
ATOM     16  C   UNL     1       3.339   2.481  18.342  0.00  0.00    +0.000 C 
ATOM     17  O   UNL     1       3.651   1.387  17.920  0.00  0.00    +0.000 OA
ATOM     18  H   UNL     1       1.816   2.030  19.684  0.00  0.00    +0.000 HD
ENDBRANCH   4   8
BRANCH   1  22
ATOM     19  N   UNL     1      -1.535  12.099  19.842  0.00  0.00    +0.000 N 
ATOM     20  C   UNL     1      -0.995  10.904  19.399  0.00  0.00    +0.000 C 
ATOM     21  O   UNL     1      -1.635   9.988  18.898  0.00  0.00    +0.000 OA
ATOM     22  N   UNL     1       0.372  10.830  19.617  0.00  0.00    +0.000 N 
ATOM     23  H   UNL     1      -0.892  12.869  19.948  0.00  0.00    +0.000 HD
ATOM     24  H   UNL     1       0.693  11.301  20.453  0.00  0.00    +0.000 HD
BRANCH  19  30
ATOM     25  C   UNL     1      -6.017  11.914  17.761  0.00  0.00    +0.000 C 
ATOM     26  C   UNL     1      -5.130  12.305  18.905  0.00  0.00    +0.000 A 
ATOM     27  C   UNL     1      -5.672  12.952  20.019  0.00  0.00    +0.000 A 
ATOM     28  C   UNL     1      -4.853  13.322  21.078  0.00  0.00    +0.000 A 
ATOM     29  C   UNL     1      -3.486  13.045  21.034  0.00  0.00    +0.000 A 
ATOM     30  C   UNL     1      -2.917  12.388  19.939  0.00  0.00    +0.000 A 
ATOM     31  C   UNL     1      -3.749  12.024  18.872  0.00  0.00    +0.000 A 
ENDBRANCH  19  30
ENDBRANCH   1  22
TORSDOF 3
ENDMDL
MODEL 6
REMARK VINA RESULT:      -8.5      1.291      1.554
REMARK  Name = 
REMARK  4 active torsions:
REMARK  status: ('A' for Active; 'I' for Inactive)
REMARK    1  A    between atoms: C_1  and  C_2
REMARK    2  A    between atoms: C_6  and  N_7
REMARK    3  A    between atoms: N_10  and  C_11
REMARK    4  A    between atoms: C_14  and  C_15
REMARK                            x       y       z     vdW  Elec       q    Type
REMARK                         _______ _______ _______ _____ _____    ______ ____
ROOT
ATOM      1  C   UNL     1       0.989   9.606  19.111  0.00  0.00    +0.000 A 
ATOM      2  C   UNL     1       1.524   9.285  17.864  0.00  0.00    +0.000 A 
ATOM      3  C   UNL     1       2.308   8.136  17.692  0.00  0.00    +0.000 A 
ATOM      4  C   UNL     1       2.559   7.239  18.742  0.00  0.00    +0.000 A 
ATOM      5  C   UNL     1       1.988   7.569  19.989  0.00  0.00    +0.000 A 
ATOM      6  C   UNL     1       1.250   8.749  20.182  0.00  0.00    +0.000 A 
ATOM      7 CL   UNL     1       0.634   9.094  21.761  0.00  0.00    +0.000 Cl
ENDROOT
BRANCH   4   8
ATOM      8  C   UNL     1       3.487   6.083  18.578  0.00  0.00    +0.000 A 
ATOM      9  C   UNL     1       3.337   4.938  19.405  0.00  0.00    +0.000 A 
ATOM     10  C   UNL     1       4.262   3.875  19.428  0.00  0.00    +0.000 A 
ATOM     11  C   UNL     1       5.404   3.925  18.644  0.00  0.00    +0.000 A 
ATOM     12  C   UNL     1       5.530   5.009  17.800  0.00  0.00    +0.000 A 
ATOM     13  C   UNL     1       4.589   6.051  17.714  0.00  0.00    +0.000 A 
ATOM     14  C   UNL     1       5.009   6.961  16.598  0.00  0.00    +0.000 C 
ATOM     15  N   UNL     1       6.222   6.353  16.105  0.00  0.00    +0.000 N 
ATOM     16  C   UNL     1       6.614   5.270  16.851  0.00  0.00    +0.000 C 
ATOM     17  O   UNL     1       7.661   4.661  16.769  0.00  0.00    +0.000 OA
ATOM     18  H   UNL     1       6.839   6.751  15.409  0.00  0.00    +0.000 HD
ENDBRANCH   4   8
BRANCH   1  22
ATOM     19  N   UNL     1      -1.771  11.963  19.324  0.00  0.00    +0.000 N 
ATOM     20  C   UNL     1      -1.168  10.744  19.068  0.00  0.00    +0.000 C 
ATOM     21  O   UNL     1      -1.757   9.730  18.716  0.00  0.00    +0.000 OA
ATOM     22  N   UNL     1       0.200  10.775  19.289  0.00  0.00    +0.000 N 
ATOM     23  H   UNL     1      -1.169  12.772  19.308  0.00  0.00    +0.000 HD
ATOM     24  H   UNL     1       0.494  11.385  20.041  0.00  0.00    +0.000 HD
BRANCH  19  30
ATOM     25  C   UNL     1      -5.660  13.536  21.940  0.00  0.00    +0.000 C 
ATOM     26  C   UNL     1      -5.089  12.960  20.679  0.00  0.00    +0.000 A 
ATOM     27  C   UNL     1      -5.933  12.646  19.610  0.00  0.00    +0.000 A 
ATOM     28  C   UNL     1      -5.409  12.105  18.443  0.00  0.00    +0.000 A 
ATOM     29  C   UNL     1      -4.037  11.876  18.334  0.00  0.00    +0.000 A 
ATOM     30  C   UNL     1      -3.166  12.191  19.381  0.00  0.00    +0.000 A 
ATOM     31  C   UNL     1      -3.704  12.730  20.558  0.00  0.00    +0.000 A 
ENDBRANCH  19  30
ENDBRANCH   1  22
TORSDOF 3
ENDMDL
MODEL 7
REMARK VINA RESULT:      -8.5      2.732      3.399
REMARK  Name = 
REMARK  4 active torsions:
REMARK  status: ('A' for Active; 'I' for Inactive)
REMARK    1  A    between atoms: C_1  and  C_2
REMARK    2  A    between atoms: C_6  and  N_7
REMARK    3  A    between atoms: N_10  and  C_11
REMARK    4  A    between atoms: C_14  and  C_15
REMARK                            x       y       z     vdW  Elec       q    Type
REMARK                         _______ _______ _______ _____ _____    ______ ____
ROOT
ATOM      1  C   UNL     1       1.112   9.616  19.369  0.00  0.00    +0.000 A 
ATOM      2  C   UNL     1       1.365   9.470  18.005  0.00  0.00    +0.000 A 
ATOM      3  C   UNL     1       2.014   8.329  17.514  0.00  0.00    +0.000 A 
ATOM      4  C   UNL     1       2.402   7.271  18.351  0.00  0.00    +0.000 A 
ATOM      5  C   UNL     1       2.114   7.428  19.723  0.00  0.00    +0.000 A 
ATOM      6  C   UNL     1       1.516   8.595  20.230  0.00  0.00    +0.000 A 
ATOM      7 CL   UNL     1       1.251   8.717  21.935  0.00  0.00    +0.000 Cl
ENDROOT
BRANCH   4   8
ATOM      8  C   UNL     1       3.193   6.116  17.836  0.00  0.00    +0.000 A 
ATOM      9  C   UNL     1       2.629   4.813  17.855  0.00  0.00    +0.000 A 
ATOM     10  C   UNL     1       3.361   3.650  17.540  0.00  0.00    +0.000 A 
ATOM     11  C   UNL     1       4.707   3.736  17.222  0.00  0.00    +0.000 A 
ATOM     12  C   UNL     1       5.248   5.002  17.151  0.00  0.00    +0.000 A 
ATOM     13  C   UNL     1       4.523   6.181  17.400  0.00  0.00    +0.000 A 
ATOM     14  C   UNL     1       5.416   7.347  17.091  0.00  0.00    +0.000 C 
ATOM     15  N   UNL     1       6.651   6.725  16.674  0.00  0.00    +0.000 N 
ATOM     16  C   UNL     1       6.624   5.358  16.798  0.00  0.00    +0.000 C 
ATOM     17  O   UNL     1       7.556   4.591  16.671  0.00  0.00    +0.000 OA
ATOM     18  H   UNL     1       7.517   7.209  16.481  0.00  0.00    +0.000 HD
ENDBRANCH   4   8
BRANCH   1  22
ATOM     19  N   UNL     1       0.269  13.032  20.287  0.00  0.00    +0.000 N 
ATOM     20  C   UNL     1       1.065  12.020  19.779  0.00  0.00    +0.000 C 
ATOM     21  O   UNL     1       2.168  12.183  19.272  0.00  0.00    +0.000 OA
ATOM     22  N   UNL     1       0.461  10.776  19.870  0.00  0.00    +0.000 N 
ATOM     23  H   UNL     1      -0.454  12.751  20.932  0.00  0.00    +0.000 HD
ATOM     24  H   UNL     1      -0.545  10.787  19.767  0.00  0.00    +0.000 HD
BRANCH  19  30
ATOM     25  C   UNL     1      -0.596  17.242  17.843  0.00  0.00    +0.000 C 
ATOM     26  C   UNL     1       0.101  16.497  18.941  0.00  0.00    +0.000 A 
ATOM     27  C   UNL     1       0.987  17.168  19.788  0.00  0.00    +0.000 A 
ATOM     28  C   UNL     1       1.640  16.479  20.801  0.00  0.00    +0.000 A 
ATOM     29  C   UNL     1       1.412  15.115  20.979  0.00  0.00    +0.000 A 
ATOM     30  C   UNL     1       0.522  14.418  20.156  0.00  0.00    +0.000 A 
ATOM     31  C   UNL     1      -0.128  15.118  19.131  0.00  0.00    +0.000 A 
ENDBRANCH  19  30
ENDBRANCH   1  22
TORSDOF 3
ENDMDL
MODEL 8
REMARK VINA RESULT:      -8.4      3.111      4.002
REMARK  Name = 
REMARK  4 active torsions:
REMARK  status: ('A' for Active; 'I' for Inactive)
REMARK    1  A    between atoms: C_1  and  C_2
REMARK    2  A    between atoms: C_6  and  N_7
REMARK    3  A    between atoms: N_10  and  C_11
REMARK    4  A    between atoms: C_14  and  C_15
REMARK                            x       y       z     vdW  Elec       q    Type
REMARK                         _______ _______ _______ _____ _____    ______ ____
ROOT
ATOM      1  C   UNL     1       0.817   9.896  19.491  0.00  0.00    +0.000 A 
ATOM      2  C   UNL     1       1.131   9.712  18.145  0.00  0.00    +0.000 A 
ATOM      3  C   UNL     1       1.858   8.590  17.723  0.00  0.00    +0.000 A 
ATOM      4  C   UNL     1       2.267   7.586  18.616  0.00  0.00    +0.000 A 
ATOM      5  C   UNL     1       1.917   7.780  19.969  0.00  0.00    +0.000 A 
ATOM      6  C   UNL     1       1.239   8.930  20.406  0.00  0.00    +0.000 A 
ATOM      7 CL   UNL     1       0.900   9.102  22.094  0.00  0.00    +0.000 Cl
ENDROOT
BRANCH   4   8
ATOM      8  C   UNL     1       3.138   6.458  18.178  0.00  0.00    +0.000 A 
ATOM      9  C   UNL     1       4.252   6.715  17.336  0.00  0.00    +0.000 A 
ATOM     10  C   UNL     1       5.028   5.696  16.748  0.00  0.00    +0.000 A 
ATOM     11  C   UNL     1       4.702   4.364  16.951  0.00  0.00    +0.000 A 
ATOM     12  C   UNL     1       3.654   4.106  17.810  0.00  0.00    +0.000 A 
ATOM     13  C   UNL     1       2.904   5.105  18.456  0.00  0.00    +0.000 A 
ATOM     14  C   UNL     1       1.954   4.430  19.401  0.00  0.00    +0.000 C 
ATOM     15  N   UNL     1       2.233   3.025  19.215  0.00  0.00    +0.000 N 
ATOM     16  C   UNL     1       3.146   2.794  18.216  0.00  0.00    +0.000 C 
ATOM     17  O   UNL     1       3.456   1.722  17.739  0.00  0.00    +0.000 OA
ATOM     18  H   UNL     1       1.709   2.263  19.623  0.00  0.00    +0.000 HD
ENDBRANCH   4   8
BRANCH   1  22
ATOM     19  N   UNL     1      -0.197  13.282  20.341  0.00  0.00    +0.000 N 
ATOM     20  C   UNL     1       0.675  12.292  19.926  0.00  0.00    +0.000 C 
ATOM     21  O   UNL     1       1.831  12.480  19.567  0.00  0.00    +0.000 OA
ATOM     22  N   UNL     1       0.086  11.037  19.921  0.00  0.00    +0.000 N 
ATOM     23  H   UNL     1      -0.991  12.980  20.884  0.00  0.00    +0.000 HD
ATOM     24  H   UNL     1      -0.898  11.033  19.689  0.00  0.00    +0.000 HD
BRANCH  19  30
ATOM     25  C   UNL     1      -0.501  17.453  17.703  0.00  0.00    +0.000 C 
ATOM     26  C   UNL     1      -0.096  16.733  18.955  0.00  0.00    +0.000 A 
ATOM     27  C   UNL     1       0.521  17.434  19.996  0.00  0.00    +0.000 A 
ATOM     28  C   UNL     1       0.904  16.769  21.153  0.00  0.00    +0.000 A 
ATOM     29  C   UNL     1       0.672  15.400  21.282  0.00  0.00    +0.000 A 
ATOM     30  C   UNL     1       0.046  14.674  20.264  0.00  0.00    +0.000 A 
ATOM     31  C   UNL     1      -0.332  15.350  19.096  0.00  0.00    +0.000 A 
ENDBRANCH  19  30
ENDBRANCH   1  22
TORSDOF 3
ENDMDL
MODEL 9
REMARK VINA RESULT:      -8.4      2.289      2.943
REMARK  Name = 
REMARK  4 active torsions:
REMARK  status: ('A' for Active; 'I' for Inactive)
REMARK    1  A    between atoms: C_1  and  C_2
REMARK    2  A    between atoms: C_6  and  N_7
REMARK    3  A    between atoms: N_10  and  C_11
REMARK    4  A    between atoms: C_14  and  C_15
REMARK                            x       y       z     vdW  Elec       q    Type
REMARK                         _______ _______ _______ _____ _____    ______ ____
ROOT
ATOM      1  C   UNL     1       0.735   9.698  19.040  0.00  0.00    +0.000 A 
ATOM      2  C   UNL     1       1.320   9.359  17.820  0.00  0.00    +0.000 A 
ATOM      3  C   UNL     1       2.188   8.263  17.720  0.00  0.00    +0.000 A 
ATOM      4  C   UNL     1       2.479   7.438  18.817  0.00  0.00    +0.000 A 
ATOM      5  C   UNL     1       1.858   7.784  20.036  0.00  0.00    +0.000 A 
ATOM      6  C   UNL     1       1.032   8.915  20.156  0.00  0.00    +0.000 A 
ATOM      7 CL   UNL     1       0.357   9.288  21.704  0.00  0.00    +0.000 Cl
ENDROOT
BRANCH   4   8
ATOM      8  C   UNL     1       3.492   6.346  18.728  0.00  0.00    +0.000 A 
ATOM      9  C   UNL     1       4.592   6.479  17.840  0.00  0.00    +0.000 A 
ATOM     10  C   UNL     1       5.502   5.436  17.577  0.00  0.00    +0.000 A 
ATOM     11  C   UNL     1       5.333   4.194  18.169  0.00  0.00    +0.000 A 
ATOM     12  C   UNL     1       4.298   4.074  19.072  0.00  0.00    +0.000 A 
ATOM     13  C   UNL     1       3.414   5.118  19.398  0.00  0.00    +0.000 A 
ATOM     14  C   UNL     1       2.523   4.641  20.507  0.00  0.00    +0.000 C 
ATOM     15  N   UNL     1       2.975   3.290  20.744  0.00  0.00    +0.000 N 
ATOM     16  C   UNL     1       3.938   2.888  19.853  0.00  0.00    +0.000 C 
ATOM     17  O   UNL     1       4.389   1.770  19.713  0.00  0.00    +0.000 OA
ATOM     18  H   UNL     1       2.534   2.623  21.364  0.00  0.00    +0.000 HD
ENDBRANCH   4   8
BRANCH   1  22
ATOM     19  N   UNL     1      -2.171  11.882  18.969  0.00  0.00    +0.000 N 
ATOM     20  C   UNL     1      -1.468  10.708  18.764  0.00  0.00    +0.000 C 
ATOM     21  O   UNL     1      -1.949   9.669  18.327  0.00  0.00    +0.000 OA
ATOM     22  N   UNL     1      -0.140  10.814  19.145  0.00  0.00    +0.000 N 
ATOM     23  H   UNL     1      -1.623  12.725  19.039  0.00  0.00    +0.000 HD
ATOM     24  H   UNL     1       0.026  11.421  19.937  0.00  0.00    +0.000 HD
BRANCH  19  30
ATOM     25  C   UNL     1      -6.453  12.955  21.197  0.00  0.00    +0.000 C 
ATOM     26  C   UNL     1      -5.692  12.546  19.971  0.00  0.00    +0.000 A 
ATOM     27  C   UNL     1      -6.374  12.300  18.776  0.00  0.00    +0.000 A 
ATOM     28  C   UNL     1      -5.673  11.914  17.641  0.00  0.00    +0.000 A 
ATOM     29  C   UNL     1      -4.286  11.774  17.689  0.00  0.00    +0.000 A 
ATOM     30  C   UNL     1      -3.575  12.025  18.867  0.00  0.00    +0.000 A 
ATOM     31  C   UNL     1      -4.290  12.408  20.010  0.00  0.00    +0.000 A 
ENDBRANCH  19  30
ENDBRANCH   1  22
TORSDOF 3
ENDMDL
