MODEL 1
REMARK VINA RESULT:      -7.5      0.000      0.000
REMARK  Name = 
REMARK  4 active torsions:
REMARK  status: ('A' for Active; 'I' for Inactive)
REMARK    1  A    between atoms: C_2  and  C_11
REMARK    2  A    between atoms: N_3  and  C_4
REMARK    3  A    between atoms: C_9  and  O_10
REMARK    4  A    between atoms: C_21  and  C_23
REMARK                            x       y       z     vdW  Elec       q    Type
REMARK                         _______ _______ _______ _____ _____    ______ ____
ROOT
ATOM      1  C   UNL     1      -0.921  11.385  19.099  0.00  0.00    +0.000 C 
ATOM      2  C   UNL     1      -2.422  11.276  18.843  0.00  0.00    +0.000 C 
ATOM      3  C   UNL     1      -3.173  12.331  19.618  0.00  0.00    +0.000 C 
ATOM      4  C   UNL     1      -2.606  12.542  20.998  0.00  0.00    +0.000 A 
ATOM      5  C   UNL     1      -3.361  13.364  21.855  0.00  0.00    +0.000 A 
ATOM      6  C   UNL     1      -2.914  13.649  23.138  0.00  0.00    +0.000 A 
ATOM      7  C   UNL     1      -1.709  13.116  23.571  0.00  0.00    +0.000 A 
ATOM      8  C   UNL     1      -0.953  12.288  22.729  0.00  0.00    +0.000 A 
ATOM      9  C   UNL     1      -1.376  11.982  21.429  0.00  0.00    +0.000 A 
ATOM     10  N   UNL     1      -0.585  11.167  20.517  0.00  0.00    +0.000 N 
ATOM     11  C   UNL     1       0.413  10.264  20.961  0.00  0.00    +0.000 C 
ATOM     12  O   UNL     1       0.695  10.074  22.147  0.00  0.00    +0.000 OA
ENDROOT
BRANCH  11  13
ATOM     13  C   UNL     1       1.165   9.372  20.006  0.00  0.00    +0.000 A 
ATOM     14  C   UNL     1       1.564   9.729  18.710  0.00  0.00    +0.000 A 
ATOM     15  C   UNL     1       2.126   8.792  17.840  0.00  0.00    +0.000 A 
ATOM     16  C   UNL     1       2.419   7.513  18.295  0.00  0.00    +0.000 A 
ATOM     17  C   UNL     1       2.160   7.186  19.624  0.00  0.00    +0.000 A 
ATOM     18 CL   UNL     1       2.629   5.641  20.218  0.00  0.00    +0.000 Cl
ATOM     19  C   UNL     1       1.525   8.096  20.471  0.00  0.00    +0.000 A 
ENDBRANCH  11  13
BRANCH   1  21
ATOM     20  O   UNL     1      -0.731  13.235  17.553  0.00  0.00    +0.000 OA
ATOM     21  C   UNL     1      -0.307  12.719  18.588  0.00  0.00    +0.000 C 
ATOM     22  N   UNL     1       0.834  13.131  19.252  0.00  0.00    +0.000 N 
ATOM     23  H   UNL     1       1.181  12.567  20.019  0.00  0.00    +0.000 HD
BRANCH  22  24
ATOM     24  C   UNL     1       1.661  14.232  18.939  0.00  0.00    +0.000 A 
ATOM     25  C   UNL     1       1.494  15.494  19.508  0.00  0.00    +0.000 A 
ATOM     26  C   UNL     1       2.354  16.540  19.167  0.00  0.00    +0.000 A 
ATOM     27  C   UNL     1       3.382  16.338  18.247  0.00  0.00    +0.000 A 
ATOM     28  C   UNL     1       3.563  15.083  17.669  0.00  0.00    +0.000 A 
ATOM     29  C   UNL     1       2.708  14.038  18.022  0.00  0.00    +0.000 A 
BRANCH  29  30
ATOM     30  O   UNL     1       2.853  12.801  17.441  0.00  0.00    +0.000 OA
ATOM     31  H   UNL     1       3.417  12.901  16.653  0.00  0.00    +0.000 HD
ENDBRANCH  29  30
ENDBRANCH  22  24
ENDBRANCH   1  21
TORSDOF 4
ENDMDL
MODEL 2
REMARK VINA RESULT:      -7.5      2.935      5.683
REMARK  Name = 
REMARK  4 active torsions:
REMARK  status: ('A' for Active; 'I' for Inactive)
REMARK    1  A    between atoms: C_2  and  C_11
REMARK    2  A    between atoms: N_3  and  C_4
REMARK    3  A    between atoms: C_9  and  O_10
REMARK    4  A    between atoms: C_21  and  C_23
REMARK                            x       y       z     vdW  Elec       q    Type
REMARK                         _______ _______ _______ _____ _____    ______ ____
ROOT
ATOM      1  C   UNL     1      -1.416  12.116  20.050  0.00  0.00    +0.000 C 
ATOM      2  C   UNL     1      -0.814  10.719  20.172  0.00  0.00    +0.000 C 
ATOM      3  C   UNL     1      -0.640  10.093  18.810  0.00  0.00    +0.000 C 
ATOM      4  C   UNL     1      -1.793  10.392  17.889  0.00  0.00    +0.000 A 
ATOM      5  C   UNL     1      -1.807   9.690  16.669  0.00  0.00    +0.000 A 
ATOM      6  C   UNL     1      -2.808   9.915  15.734  0.00  0.00    +0.000 A 
ATOM      7  C   UNL     1      -3.801  10.843  16.012  0.00  0.00    +0.000 A 
ATOM      8  C   UNL     1      -3.803  11.542  17.227  0.00  0.00    +0.000 A 
ATOM      9  C   UNL     1      -2.807  11.339  18.192  0.00  0.00    +0.000 A 
ATOM     10  N   UNL     1      -2.757  12.087  19.439  0.00  0.00    +0.000 N 
ATOM     11  C   UNL     1      -3.891  12.730  19.996  0.00  0.00    +0.000 C 
ATOM     12  O   UNL     1      -5.017  12.706  19.491  0.00  0.00    +0.000 OA
ENDROOT
BRANCH  11  13
ATOM     13  C   UNL     1      -3.836  13.433  21.329  0.00  0.00    +0.000 A 
ATOM     14  C   UNL     1      -3.486  14.778  21.520  0.00  0.00    +0.000 A 
ATOM     15  C   UNL     1      -3.318  15.309  22.801  0.00  0.00    +0.000 A 
ATOM     16  C   UNL     1      -3.624  14.538  23.915  0.00  0.00    +0.000 A 
ATOM     17  C   UNL     1      -4.110  13.245  23.739  0.00  0.00    +0.000 A 
ATOM     18 CL   UNL     1      -4.598  12.332  25.112  0.00  0.00    +0.000 Cl
ATOM     19  C   UNL     1      -4.203  12.687  22.462  0.00  0.00    +0.000 A 
ENDBRANCH  11  13
BRANCH   1  21
ATOM     20  O   UNL     1      -0.794  13.506  18.172  0.00  0.00    +0.000 OA
ATOM     21  C   UNL     1      -0.494  13.119  19.303  0.00  0.00    +0.000 C 
ATOM     22  N   UNL     1       0.728  13.353  19.906  0.00  0.00    +0.000 N 
ATOM     23  H   UNL     1       0.936  12.887  20.782  0.00  0.00    +0.000 HD
BRANCH  22  24
ATOM     24  C   UNL     1       1.801  14.123  19.405  0.00  0.00    +0.000 A 
ATOM     25  C   UNL     1       2.109  15.397  19.878  0.00  0.00    +0.000 A 
ATOM     26  C   UNL     1       3.192  16.103  19.351  0.00  0.00    +0.000 A 
ATOM     27  C   UNL     1       3.973  15.545  18.339  0.00  0.00    +0.000 A 
ATOM     28  C   UNL     1       3.679  14.272  17.854  0.00  0.00    +0.000 A 
ATOM     29  C   UNL     1       2.602  13.566  18.393  0.00  0.00    +0.000 A 
BRANCH  29  30
ATOM     30  O   UNL     1       2.281  12.322  17.909  0.00  0.00    +0.000 OA
ATOM     31  H   UNL     1       2.123  12.400  16.952  0.00  0.00    +0.000 HD
ENDBRANCH  29  30
ENDBRANCH  22  24
ENDBRANCH   1  21
TORSDOF 4
ENDMDL
MODEL 3
REMARK VINA RESULT:      -7.5      3.171      6.096
REMARK  Name = 
REMARK  4 active torsions:
REMARK  status: ('A' for Active; 'I' for Inactive)
REMARK    1  A    between atoms: C_2  and  C_11
REMARK    2  A    between atoms: N_3  and  C_4
REMARK    3  A    between atoms: C_9  and  O_10
REMARK    4  A    between atoms: C_21  and  C_23
REMARK                            x       y       z     vdW  Elec       q    Type
REMARK                         _______ _______ _______ _____ _____    ______ ____
ROOT
ATOM      1  C   UNL     1      -1.620  12.308  19.871  0.00  0.00    +0.000 C 
ATOM      2  C   UNL     1      -0.914  10.961  19.998  0.00  0.00    +0.000 C 
ATOM      3  C   UNL     1      -0.739  10.321  18.642  0.00  0.00    +0.000 C 
ATOM      4  C   UNL     1      -1.940  10.518  17.755  0.00  0.00    +0.000 A 
ATOM      5  C   UNL     1      -1.942   9.791  16.550  0.00  0.00    +0.000 A 
ATOM      6  C   UNL     1      -2.985   9.923  15.645  0.00  0.00    +0.000 A 
ATOM      7  C   UNL     1      -4.034  10.783  15.939  0.00  0.00    +0.000 A 
ATOM      8  C   UNL     1      -4.048  11.504  17.141  0.00  0.00    +0.000 A 
ATOM      9  C   UNL     1      -3.009  11.394  18.075  0.00  0.00    +0.000 A 
ATOM     10  N   UNL     1      -2.975  12.170  19.306  0.00  0.00    +0.000 N 
ATOM     11  C   UNL     1      -4.134  12.740  19.889  0.00  0.00    +0.000 C 
ATOM     12  O   UNL     1      -5.270  12.624  19.423  0.00  0.00    +0.000 OA
ENDROOT
BRANCH  11  13
ATOM     13  C   UNL     1      -4.088  13.473  21.206  0.00  0.00    +0.000 A 
ATOM     14  C   UNL     1      -3.905  14.855  21.357  0.00  0.00    +0.000 A 
ATOM     15  C   UNL     1      -3.727  15.430  22.617  0.00  0.00    +0.000 A 
ATOM     16  C   UNL     1      -3.859  14.650  23.759  0.00  0.00    +0.000 A 
ATOM     17  C   UNL     1      -4.182  13.302  23.631  0.00  0.00    +0.000 A 
ATOM     18 CL   UNL     1      -4.458  12.363  25.045  0.00  0.00    +0.000 Cl
ATOM     19  C   UNL     1      -4.281  12.709  22.370  0.00  0.00    +0.000 A 
ENDBRANCH  11  13
BRANCH   1  21
ATOM     20  O   UNL     1       0.062  12.990  18.273  0.00  0.00    +0.000 OA
ATOM     21  C   UNL     1      -0.798  13.360  19.075  0.00  0.00    +0.000 C 
ATOM     22  N   UNL     1      -0.967  14.669  19.486  0.00  0.00    +0.000 N 
ATOM     23  H   UNL     1      -1.609  14.862  20.246  0.00  0.00    +0.000 HD
BRANCH  22  24
ATOM     24  C   UNL     1      -0.274  15.811  19.026  0.00  0.00    +0.000 A 
ATOM     25  C   UNL     1       1.094  15.814  18.760  0.00  0.00    +0.000 A 
ATOM     26  C   UNL     1       1.720  16.973  18.295  0.00  0.00    +0.000 A 
ATOM     27  C   UNL     1       0.986  18.142  18.101  0.00  0.00    +0.000 A 
ATOM     28  C   UNL     1      -0.383  18.156  18.362  0.00  0.00    +0.000 A 
ATOM     29  C   UNL     1      -1.005  16.992  18.816  0.00  0.00    +0.000 A 
BRANCH  29  30
ATOM     30  O   UNL     1      -2.348  16.995  19.106  0.00  0.00    +0.000 OA
ATOM     31  H   UNL     1      -2.625  17.918  19.250  0.00  0.00    +0.000 HD
ENDBRANCH  29  30
ENDBRANCH  22  24
ENDBRANCH   1  21
TORSDOF 4
ENDMDL
MODEL 4
REMARK VINA RESULT:      -7.5      2.998      5.752
REMARK  Name = 
REMARK  4 active torsions:
REMARK  status: ('A' for Active; 'I' for Inactive)
REMARK    1  A    between atoms: C_2  and  C_11
REMARK    2  A    between atoms: N_3  and  C_4
REMARK    3  A    between atoms: C_9  and  O_10
REMARK    4  A    between atoms: C_21  and  C_23
REMARK                            x       y       z     vdW  Elec       q    Type
REMARK                         _______ _______ _______ _____ _____    ______ ____
ROOT
ATOM      1  C   UNL     1      -1.311  12.072  19.870  0.00  0.00    +0.000 C 
ATOM      2  C   UNL     1      -0.699  10.676  19.951  0.00  0.00    +0.000 C 
ATOM      3  C   UNL     1      -0.603  10.055  18.579  0.00  0.00    +0.000 C 
ATOM      4  C   UNL     1      -1.809  10.355  17.728  0.00  0.00    +0.000 A 
ATOM      5  C   UNL     1      -1.892   9.658  16.508  0.00  0.00    +0.000 A 
ATOM      6  C   UNL     1      -2.946   9.883  15.634  0.00  0.00    +0.000 A 
ATOM      7  C   UNL     1      -3.923  10.808  15.972  0.00  0.00    +0.000 A 
ATOM      8  C   UNL     1      -3.856  11.502  17.189  0.00  0.00    +0.000 A 
ATOM      9  C   UNL     1      -2.805  11.298  18.093  0.00  0.00    +0.000 A 
ATOM     10  N   UNL     1      -2.685  12.042  19.337  0.00  0.00    +0.000 N 
ATOM     11  C   UNL     1      -3.786  12.680  19.962  0.00  0.00    +0.000 C 
ATOM     12  O   UNL     1      -4.939  12.655  19.524  0.00  0.00    +0.000 OA
ENDROOT
BRANCH  11  13
ATOM     13  C   UNL     1      -3.655  13.379  21.292  0.00  0.00    +0.000 A 
ATOM     14  C   UNL     1      -3.177  14.684  21.476  0.00  0.00    +0.000 A 
ATOM     15  C   UNL     1      -2.951  15.200  22.754  0.00  0.00    +0.000 A 
ATOM     16  C   UNL     1      -3.321  14.465  23.873  0.00  0.00    +0.000 A 
ATOM     17  C   UNL     1      -3.929  13.224  23.704  0.00  0.00    +0.000 A 
ATOM     18 CL   UNL     1      -4.491  12.365  25.084  0.00  0.00    +0.000 Cl
ATOM     19  C   UNL     1      -4.083  12.674  22.430  0.00  0.00    +0.000 A 
ENDBRANCH  11  13
BRANCH   1  21
ATOM     20  O   UNL     1      -0.721  13.355  17.907  0.00  0.00    +0.000 OA
ATOM     21  C   UNL     1      -0.435  13.080  19.074  0.00  0.00    +0.000 C 
ATOM     22  N   UNL     1       0.744  13.450  19.694  0.00  0.00    +0.000 N 
ATOM     23  H   UNL     1       0.953  13.069  20.610  0.00  0.00    +0.000 HD
BRANCH  22  24
ATOM     24  C   UNL     1       1.777  14.256  19.167  0.00  0.00    +0.000 A 
ATOM     25  C   UNL     1       2.895  13.731  18.521  0.00  0.00    +0.000 A 
ATOM     26  C   UNL     1       3.878  14.582  18.009  0.00  0.00    +0.000 A 
ATOM     27  C   UNL     1       3.757  15.964  18.147  0.00  0.00    +0.000 A 
ATOM     28  C   UNL     1       2.645  16.505  18.790  0.00  0.00    +0.000 A 
ATOM     29  C   UNL     1       1.660  15.651  19.289  0.00  0.00    +0.000 A 
BRANCH  29  30
ATOM     30  O   UNL     1       0.572  16.165  19.951  0.00  0.00    +0.000 OA
ATOM     31  H   UNL     1       0.066  15.422  20.325  0.00  0.00    +0.000 HD
ENDBRANCH  29  30
ENDBRANCH  22  24
ENDBRANCH   1  21
TORSDOF 4
ENDMDL
MODEL 5
REMARK VINA RESULT:      -7.5      3.154      5.917
REMARK  Name = 
REMARK  4 active torsions:
REMARK  status: ('A' for Active; 'I' for Inactive)
REMARK    1  A    between atoms: C_2  and  C_11
REMARK    2  A    between atoms: N_3  and  C_4
REMARK    3  A    between atoms: C_9  and  O_10
REMARK    4  A    between atoms: C_21  and  C_23
REMARK                            x       y       z     vdW  Elec       q    Type
REMARK                         _______ _______ _______ _____ _____    ______ ____
ROOT
ATOM      1  C   UNL     1      -1.576  12.265  19.842  0.00  0.00    +0.000 C 
ATOM      2  C   UNL     1      -0.901  10.902  19.962  0.00  0.00    +0.000 C 
ATOM      3  C   UNL     1      -0.744  10.262  18.605  0.00  0.00    +0.000 C 
ATOM      4  C   UNL     1      -1.942  10.490  17.721  0.00  0.00    +0.000 A 
ATOM      5  C   UNL     1      -1.963   9.768  16.513  0.00  0.00    +0.000 A 
ATOM      6  C   UNL     1      -3.005   9.928  15.611  0.00  0.00    +0.000 A 
ATOM      7  C   UNL     1      -4.033  10.811  15.910  0.00  0.00    +0.000 A 
ATOM      8  C   UNL     1      -4.027  11.529  17.114  0.00  0.00    +0.000 A 
ATOM      9  C   UNL     1      -2.989  11.391  18.045  0.00  0.00    +0.000 A 
ATOM     10  N   UNL     1      -2.934  12.161  19.279  0.00  0.00    +0.000 N 
ATOM     11  C   UNL     1      -4.078  12.757  19.866  0.00  0.00    +0.000 C 
ATOM     12  O   UNL     1      -5.218  12.670  19.402  0.00  0.00    +0.000 OA
ENDROOT
BRANCH  11  13
ATOM     13  C   UNL     1      -4.012  13.484  21.186  0.00  0.00    +0.000 A 
ATOM     14  C   UNL     1      -3.788  14.860  21.341  0.00  0.00    +0.000 A 
ATOM     15  C   UNL     1      -3.596  15.426  22.603  0.00  0.00    +0.000 A 
ATOM     16  C   UNL     1      -3.752  14.647  23.742  0.00  0.00    +0.000 A 
ATOM     17  C   UNL     1      -4.115  13.309  23.610  0.00  0.00    +0.000 A 
ATOM     18 CL   UNL     1      -4.421  12.374  25.021  0.00  0.00    +0.000 Cl
ATOM     19  C   UNL     1      -4.229  12.723  22.347  0.00  0.00    +0.000 A 
ENDBRANCH  11  13
BRANCH   1  21
ATOM     20  O   UNL     1       0.139  12.913  18.264  0.00  0.00    +0.000 OA
ATOM     21  C   UNL     1      -0.730  13.300  19.047  0.00  0.00    +0.000 C 
ATOM     22  N   UNL     1      -0.892  14.615  19.441  0.00  0.00    +0.000 N 
ATOM     23  H   UNL     1      -1.545  14.823  20.188  0.00  0.00    +0.000 HD
BRANCH  22  24
ATOM     24  C   UNL     1      -0.181  15.745  18.980  0.00  0.00    +0.000 A 
ATOM     25  C   UNL     1      -0.760  16.739  18.193  0.00  0.00    +0.000 A 
ATOM     26  C   UNL     1      -0.007  17.840  17.779  0.00  0.00    +0.000 A 
ATOM     27  C   UNL     1       1.336  17.953  18.140  0.00  0.00    +0.000 A 
ATOM     28  C   UNL     1       1.930  16.968  18.927  0.00  0.00    +0.000 A 
ATOM     29  C   UNL     1       1.170  15.876  19.347  0.00  0.00    +0.000 A 
BRANCH  29  30
ATOM     30  O   UNL     1       1.746  14.882  20.099  0.00  0.00    +0.000 OA
ATOM     31  H   UNL     1       2.181  15.295  20.866  0.00  0.00    +0.000 HD
ENDBRANCH  29  30
ENDBRANCH  22  24
ENDBRANCH   1  21
TORSDOF 4
ENDMDL
MODEL 6
REMARK VINA RESULT:      -7.4      4.711      8.017
REMARK  Name = 
REMARK  4 active torsions:
REMARK  status: ('A' for Active; 'I' for Inactive)
REMARK    1  A    between atoms: C_2  and  C_11
REMARK    2  A    between atoms: N_3  and  C_4
REMARK    3  A    between atoms: C_9  and  O_10
REMARK    4  A    between atoms: C_21  and  C_23
REMARK                            x       y       z     vdW  Elec       q    Type
REMARK                         _______ _______ _______ _____ _____    ______ ____
ROOT
ATOM      1  C   UNL     1       3.012   5.220  17.923  0.00  0.00    +0.000 C 
ATOM      2  C   UNL     1       1.640   4.755  17.442  0.00  0.00    +0.000 C 
ATOM      3  C   UNL     1       0.767   4.373  18.612  0.00  0.00    +0.000 C 
ATOM      4  C   UNL     1       1.531   3.644  19.685  0.00  0.00    +0.000 A 
ATOM      5  C   UNL     1       0.759   3.081  20.718  0.00  0.00    +0.000 A 
ATOM      6  C   UNL     1       1.366   2.415  21.774  0.00  0.00    +0.000 A 
ATOM      7  C   UNL     1       2.749   2.308  21.803  0.00  0.00    +0.000 A 
ATOM      8  C   UNL     1       3.528   2.855  20.775  0.00  0.00    +0.000 A 
ATOM      9  C   UNL     1       2.946   3.535  19.696  0.00  0.00    +0.000 A 
ATOM     10  N   UNL     1       3.735   4.156  18.643  0.00  0.00    +0.000 N 
ATOM     11  C   UNL     1       5.069   3.775  18.353  0.00  0.00    +0.000 C 
ATOM     12  O   UNL     1       5.677   2.882  18.949  0.00  0.00    +0.000 OA
ENDROOT
BRANCH  11  13
ATOM     13  C   UNL     1       5.841   4.377  17.206  0.00  0.00    +0.000 A 
ATOM     14  C   UNL     1       6.769   5.423  17.316  0.00  0.00    +0.000 A 
ATOM     15  C   UNL     1       7.329   6.018  16.183  0.00  0.00    +0.000 A 
ATOM     16  C   UNL     1       7.068   5.492  14.924  0.00  0.00    +0.000 A 
ATOM     17  C   UNL     1       6.260   4.364  14.810  0.00  0.00    +0.000 A 
ATOM     18 CL   UNL     1       6.030   3.645  13.264  0.00  0.00    +0.000 Cl
ATOM     19  C   UNL     1       5.636   3.817  15.933  0.00  0.00    +0.000 A 
ENDBRANCH  11  13
BRANCH   1  21
ATOM     20  O   UNL     1       3.713   6.657  19.737  0.00  0.00    +0.000 OA
ATOM     21  C   UNL     1       2.955   6.519  18.776  0.00  0.00    +0.000 C 
ATOM     22  N   UNL     1       1.892   7.357  18.497  0.00  0.00    +0.000 N 
ATOM     23  H   UNL     1       1.243   7.094  17.764  0.00  0.00    +0.000 HD
BRANCH  22  24
ATOM     24  C   UNL     1       1.526   8.539  19.179  0.00  0.00    +0.000 A 
ATOM     25  C   UNL     1       1.121   8.552  20.512  0.00  0.00    +0.000 A 
ATOM     26  C   UNL     1       0.784   9.756  21.135  0.00  0.00    +0.000 A 
ATOM     27  C   UNL     1       0.840  10.957  20.428  0.00  0.00    +0.000 A 
ATOM     28  C   UNL     1       1.243  10.961  19.094  0.00  0.00    +0.000 A 
ATOM     29  C   UNL     1       1.590   9.757  18.480  0.00  0.00    +0.000 A 
BRANCH  29  30
ATOM     30  O   UNL     1       1.962   9.739  17.158  0.00  0.00    +0.000 OA
ATOM     31  H   UNL     1       2.097   8.811  16.894  0.00  0.00    +0.000 HD
ENDBRANCH  29  30
ENDBRANCH  22  24
ENDBRANCH   1  21
TORSDOF 4
ENDMDL
MODEL 7
REMARK VINA RESULT:      -7.4      3.869      7.164
REMARK  Name = 
REMARK  4 active torsions:
REMARK  status: ('A' for Active; 'I' for Inactive)
REMARK    1  A    between atoms: C_2  and  C_11
REMARK    2  A    between atoms: N_3  and  C_4
REMARK    3  A    between atoms: C_9  and  O_10
REMARK    4  A    between atoms: C_21  and  C_23
REMARK                            x       y       z     vdW  Elec       q    Type
REMARK                         _______ _______ _______ _____ _____    ______ ____
ROOT
ATOM      1  C   UNL     1      -1.273  12.381  18.995  0.00  0.00    +0.000 C 
ATOM      2  C   UNL     1      -0.294  11.425  18.320  0.00  0.00    +0.000 C 
ATOM      3  C   UNL     1      -0.290  10.086  19.016  0.00  0.00    +0.000 C 
ATOM      4  C   UNL     1      -0.379  10.218  20.514  0.00  0.00    +0.000 A 
ATOM      5  C   UNL     1      -0.186   9.035  21.250  0.00  0.00    +0.000 A 
ATOM      6  C   UNL     1      -0.278   9.038  22.635  0.00  0.00    +0.000 A 
ATOM      7  C   UNL     1      -0.566  10.226  23.293  0.00  0.00    +0.000 A 
ATOM      8  C   UNL     1      -0.750  11.413  22.571  0.00  0.00    +0.000 A 
ATOM      9  C   UNL     1      -0.665  11.442  21.172  0.00  0.00    +0.000 A 
ATOM     10  N   UNL     1      -0.903  12.651  20.397  0.00  0.00    +0.000 N 
ATOM     11  C   UNL     1      -0.797  13.952  20.948  0.00  0.00    +0.000 C 
ATOM     12  O   UNL     1      -0.483  14.184  22.118  0.00  0.00    +0.000 OA
ENDROOT
BRANCH  11  13
ATOM     13  C   UNL     1      -0.970  15.192  20.107  0.00  0.00    +0.000 A 
ATOM     14  C   UNL     1      -0.172  15.542  19.008  0.00  0.00    +0.000 A 
ATOM     15  C   UNL     1      -0.309  16.781  18.377  0.00  0.00    +0.000 A 
ATOM     16  C   UNL     1      -1.335  17.639  18.752  0.00  0.00    +0.000 A 
ATOM     17  C   UNL     1      -2.226  17.244  19.747  0.00  0.00    +0.000 A 
ATOM     18 CL   UNL     1      -3.563  18.255  20.131  0.00  0.00    +0.000 Cl
ATOM     19  C   UNL     1      -2.041  16.042  20.432  0.00  0.00    +0.000 A 
ENDBRANCH  11  13
BRANCH   1  21
ATOM     20  O   UNL     1      -3.066  11.022  18.110  0.00  0.00    +0.000 OA
ATOM     21  C   UNL     1      -2.752  11.915  18.899  0.00  0.00    +0.000 C 
ATOM     22  N   UNL     1      -3.660  12.700  19.586  0.00  0.00    +0.000 N 
ATOM     23  H   UNL     1      -3.317  13.496  20.110  0.00  0.00    +0.000 HD
BRANCH  22  24
ATOM     24  C   UNL     1      -5.068  12.585  19.588  0.00  0.00    +0.000 A 
ATOM     25  C   UNL     1      -5.840  12.681  18.432  0.00  0.00    +0.000 A 
ATOM     26  C   UNL     1      -7.229  12.545  18.498  0.00  0.00    +0.000 A 
ATOM     27  C   UNL     1      -7.859  12.322  19.722  0.00  0.00    +0.000 A 
ATOM     28  C   UNL     1      -7.102  12.222  20.887  0.00  0.00    +0.000 A 
ATOM     29  C   UNL     1      -5.714  12.347  20.814  0.00  0.00    +0.000 A 
BRANCH  29  30
ATOM     30  O   UNL     1      -4.953  12.280  21.956  0.00  0.00    +0.000 OA
ATOM     31  H   UNL     1      -5.517  12.527  22.710  0.00  0.00    +0.000 HD
ENDBRANCH  29  30
ENDBRANCH  22  24
ENDBRANCH   1  21
TORSDOF 4
ENDMDL
MODEL 8
REMARK VINA RESULT:      -7.4      3.143      5.772
REMARK  Name = 
REMARK  4 active torsions:
REMARK  status: ('A' for Active; 'I' for Inactive)
REMARK    1  A    between atoms: C_2  and  C_11
REMARK    2  A    between atoms: N_3  and  C_4
REMARK    3  A    between atoms: C_9  and  O_10
REMARK    4  A    between atoms: C_21  and  C_23
REMARK                            x       y       z     vdW  Elec       q    Type
REMARK                         _______ _______ _______ _____ _____    ______ ____
ROOT
ATOM      1  C   UNL     1      -1.175  12.153  20.099  0.00  0.00    +0.000 C 
ATOM      2  C   UNL     1      -0.482  10.793  20.084  0.00  0.00    +0.000 C 
ATOM      3  C   UNL     1      -0.439  10.232  18.684  0.00  0.00    +0.000 C 
ATOM      4  C   UNL     1      -1.711  10.493  17.922  0.00  0.00    +0.000 A 
ATOM      5  C   UNL     1      -1.832   9.838  16.682  0.00  0.00    +0.000 A 
ATOM      6  C   UNL     1      -2.950  10.034  15.884  0.00  0.00    +0.000 A 
ATOM      7  C   UNL     1      -3.954  10.886  16.319  0.00  0.00    +0.000 A 
ATOM      8  C   UNL     1      -3.849  11.537  17.557  0.00  0.00    +0.000 A 
ATOM      9  C   UNL     1      -2.733  11.361  18.386  0.00  0.00    +0.000 A 
ATOM     10  N   UNL     1      -2.576  12.063  19.650  0.00  0.00    +0.000 N 
ATOM     11  C   UNL     1      -3.669  12.612  20.367  0.00  0.00    +0.000 C 
ATOM     12  O   UNL     1      -4.845  12.535  20.000  0.00  0.00    +0.000 OA
ENDROOT
BRANCH  11  13
ATOM     13  C   UNL     1      -3.494  13.266  21.714  0.00  0.00    +0.000 A 
ATOM     14  C   UNL     1      -3.516  12.598  22.947  0.00  0.00    +0.000 A 
ATOM     15  C   UNL     1      -3.493  13.301  24.154  0.00  0.00    +0.000 A 
ATOM     16  C   UNL     1      -3.316  14.678  24.149  0.00  0.00    +0.000 A 
ATOM     17  C   UNL     1      -3.149  15.341  22.936  0.00  0.00    +0.000 A 
ATOM     18 CL   UNL     1      -2.815  17.028  22.936  0.00  0.00    +0.000 Cl
ATOM     19  C   UNL     1      -3.252  14.650  21.727  0.00  0.00    +0.000 A 
ENDBRANCH  11  13
BRANCH   1  21
ATOM     20  O   UNL     1      -0.868  13.651  18.225  0.00  0.00    +0.000 OA
ATOM     21  C   UNL     1      -0.410  13.240  19.293  0.00  0.00    +0.000 C 
ATOM     22  N   UNL     1       0.861  13.527  19.755  0.00  0.00    +0.000 N 
ATOM     23  H   UNL     1       1.202  13.041  20.576  0.00  0.00    +0.000 HD
BRANCH  22  24
ATOM     24  C   UNL     1       1.819  14.381  19.165  0.00  0.00    +0.000 A 
ATOM     25  C   UNL     1       1.990  15.710  19.546  0.00  0.00    +0.000 A 
ATOM     26  C   UNL     1       2.965  16.501  18.933  0.00  0.00    +0.000 A 
ATOM     27  C   UNL     1       3.771  15.972  17.925  0.00  0.00    +0.000 A 
ATOM     28  C   UNL     1       3.613  14.644  17.532  0.00  0.00    +0.000 A 
ATOM     29  C   UNL     1       2.646  13.856  18.156  0.00  0.00    +0.000 A 
BRANCH  29  30
ATOM     30  O   UNL     1       2.457  12.554  17.762  0.00  0.00    +0.000 OA
ATOM     31  H   UNL     1       2.715  11.973  18.501  0.00  0.00    +0.000 HD
ENDBRANCH  29  30
ENDBRANCH  22  24
ENDBRANCH   1  21
TORSDOF 4
ENDMDL
MODEL 9
REMARK VINA RESULT:      -7.4      3.503      6.943
REMARK  Name = 
REMARK  4 active torsions:
REMARK  status: ('A' for Active; 'I' for Inactive)
REMARK    1  A    between atoms: C_2  and  C_11
REMARK    2  A    between atoms: N_3  and  C_4
REMARK    3  A    between atoms: C_9  and  O_10
REMARK    4  A    between atoms: C_21  and  C_23
REMARK                            x       y       z     vdW  Elec       q    Type
REMARK                         _______ _______ _______ _____ _____    ______ ____
ROOT
ATOM      1  C   UNL     1      -1.030  12.474  19.064  0.00  0.00    +0.000 C 
ATOM      2  C   UNL     1       0.004  11.554  18.419  0.00  0.00    +0.000 C 
ATOM      3  C   UNL     1      -0.044  10.180  19.040  0.00  0.00    +0.000 C 
ATOM      4  C   UNL     1      -0.255  10.230  20.530  0.00  0.00    +0.000 A 
ATOM      5  C   UNL     1      -0.118   9.007  21.214  0.00  0.00    +0.000 A 
ATOM      6  C   UNL     1      -0.323   8.936  22.585  0.00  0.00    +0.000 A 
ATOM      7  C   UNL     1      -0.667  10.085  23.281  0.00  0.00    +0.000 A 
ATOM      8  C   UNL     1      -0.796  11.311  22.612  0.00  0.00    +0.000 A 
ATOM      9  C   UNL     1      -0.597  11.416  21.229  0.00  0.00    +0.000 A 
ATOM     10  N   UNL     1      -0.776  12.665  20.504  0.00  0.00    +0.000 N 
ATOM     11  C   UNL     1      -0.719  13.935  21.131  0.00  0.00    +0.000 C 
ATOM     12  O   UNL     1      -0.502  14.102  22.334  0.00  0.00    +0.000 OA
ENDROOT
BRANCH  11  13
ATOM     13  C   UNL     1      -0.828  15.219  20.348  0.00  0.00    +0.000 A 
ATOM     14  C   UNL     1      -1.929  16.087  20.366  0.00  0.00    +0.000 A 
ATOM     15  C   UNL     1      -2.007  17.178  19.498  0.00  0.00    +0.000 A 
ATOM     16  C   UNL     1      -0.926  17.496  18.686  0.00  0.00    +0.000 A 
ATOM     17  C   UNL     1       0.233  16.727  18.760  0.00  0.00    +0.000 A 
ATOM     18 CL   UNL     1       1.611  17.188  17.842  0.00  0.00    +0.000 Cl
ATOM     19  C   UNL     1       0.282  15.589  19.569  0.00  0.00    +0.000 A 
ENDBRANCH  11  13
BRANCH   1  21
ATOM     20  O   UNL     1      -2.766  11.304  17.853  0.00  0.00    +0.000 OA
ATOM     21  C   UNL     1      -2.495  12.015  18.822  0.00  0.00    +0.000 C 
ATOM     22  N   UNL     1      -3.440  12.621  19.630  0.00  0.00    +0.000 N 
ATOM     23  H   UNL     1      -3.130  13.293  20.322  0.00  0.00    +0.000 HD
BRANCH  22  24
ATOM     24  C   UNL     1      -4.844  12.485  19.561  0.00  0.00    +0.000 A 
ATOM     25  C   UNL     1      -5.552  12.499  18.360  0.00  0.00    +0.000 A 
ATOM     26  C   UNL     1      -6.940  12.347  18.357  0.00  0.00    +0.000 A 
ATOM     27  C   UNL     1      -7.635  12.190  19.556  0.00  0.00    +0.000 A 
ATOM     28  C   UNL     1      -6.944  12.175  20.766  0.00  0.00    +0.000 A 
ATOM     29  C   UNL     1      -5.555  12.315  20.762  0.00  0.00    +0.000 A 
BRANCH  29  30
ATOM     30  O   UNL     1      -4.860  12.331  21.946  0.00  0.00    +0.000 OA
ATOM     31  H   UNL     1      -5.503  12.302  22.676  0.00  0.00    +0.000 HD
ENDBRANCH  29  30
ENDBRANCH  22  24
ENDBRANCH   1  21
TORSDOF 4
ENDMDL
