MODEL 1
REMARK VINA RESULT:      -7.5      0.000      0.000
REMARK  Name = 
REMARK  8 active torsions:
REMARK  status: ('A' for Active; 'I' for Inactive)
REMARK    1  A    between atoms: C_1  and  C_2
REMARK    2  A    between atoms: C_7  and  C_8
REMARK    3  A    between atoms: C_8  and  N_9
REMARK    4  A    between atoms: C_10  and  C_12
REMARK    5  A    between atoms: C_12  and  N_13
REMARK    6  A    between atoms: N_13  and  C_14
REMARK    7  A    between atoms: N_13  and  S_21
REMARK    8  A    between atoms: S_21  and  C_22
REMARK                            x       y       z     vdW  Elec       q    Type
REMARK                         _______ _______ _______ _____ _____    ______ ____
ROOT
ATOM      1  C   UNL     1       2.858   6.094  18.162  0.00  0.00    +0.000 C 
ENDROOT
BRANCH   1   3
ATOM      2  N   UNL     1       1.904   7.691  19.754  0.00  0.00    +0.000 N 
ATOM      3  C   UNL     1       2.273   6.376  19.540  0.00  0.00    +0.000 C 
ATOM      4  O   UNL     1       2.204   5.515  20.415  0.00  0.00    +0.000 OA
ATOM      5  H   UNL     1       1.751   8.295  18.956  0.00  0.00    +0.000 HD
BRANCH   2   6
ATOM      6  C   UNL     1       1.357   8.124  21.021  0.00  0.00    +0.000 C 
BRANCH   6  13
ATOM      7  C   UNL     1      -0.054   9.489  23.347  0.00  0.00    +0.000 C 
ATOM      8  C   UNL     1      -0.064  10.059  21.955  0.00  0.00    +0.000 A 
ATOM      9  C   UNL     1      -0.721  11.284  21.738  0.00  0.00    +0.000 A 
ATOM     10  C   UNL     1      -0.746  11.873  20.474  0.00  0.00    +0.000 A 
ATOM     11  C   UNL     1      -0.116  11.244  19.407  0.00  0.00    +0.000 A 
ATOM     12  C   UNL     1       0.542  10.031  19.606  0.00  0.00    +0.000 A 
ATOM     13  C   UNL     1       0.594   9.428  20.879  0.00  0.00    +0.000 A 
ENDBRANCH   6  13
ENDBRANCH   2   6
ENDBRANCH   1   3
BRANCH   1  14
ATOM     14  N   UNL     1       3.967   5.117  18.153  0.00  0.00    +0.000 N 
BRANCH  14  15
ATOM     15  C   UNL     1       5.319   5.609  18.231  0.00  0.00    +0.000 A 
ATOM     16  C   UNL     1       6.106   5.321  19.353  0.00  0.00    +0.000 A 
ATOM     17  C   UNL     1       7.443   5.728  19.400  0.00  0.00    +0.000 A 
ATOM     18  C   UNL     1       8.000   6.427  18.331  0.00  0.00    +0.000 A 
ATOM     19  C   UNL     1       7.214   6.749  17.224  0.00  0.00    +0.000 A 
ATOM     20  C   UNL     1       5.874   6.352  17.176  0.00  0.00    +0.000 A 
ATOM     21 CL   UNL     1       4.949   6.771  15.777  0.00  0.00    +0.000 Cl
ENDBRANCH  14  15
BRANCH  14  22
ATOM     22  S   UNL     1       3.707   3.622  17.421  0.00  0.00    +0.000 S 
ATOM     23  C   UNL     1       3.810   2.493  18.799  0.00  0.00    +0.000 C 
ATOM     24  O   UNL     1       2.361   3.552  16.894  0.00  0.00    +0.000 OA
ATOM     25  O   UNL     1       4.857   3.352  16.580  0.00  0.00    +0.000 OA
ENDBRANCH  14  22
ENDBRANCH   1  14
TORSDOF 6
ENDMDL
MODEL 2
REMARK VINA RESULT:      -7.3      3.216      7.767
REMARK  Name = 
REMARK  8 active torsions:
REMARK  status: ('A' for Active; 'I' for Inactive)
REMARK    1  A    between atoms: C_1  and  C_2
REMARK    2  A    between atoms: C_7  and  C_8
REMARK    3  A    between atoms: C_8  and  N_9
REMARK    4  A    between atoms: C_10  and  C_12
REMARK    5  A    between atoms: C_12  and  N_13
REMARK    6  A    between atoms: N_13  and  C_14
REMARK    7  A    between atoms: N_13  and  S_21
REMARK    8  A    between atoms: S_21  and  C_22
REMARK                            x       y       z     vdW  Elec       q    Type
REMARK                         _______ _______ _______ _____ _____    ______ ____
ROOT
ATOM      1  C   UNL     1       4.833   4.106  18.713  0.00  0.00    +0.000 C 
ENDROOT
BRANCH   1   3
ATOM      2  N   UNL     1       5.809   4.773  16.568  0.00  0.00    +0.000 N 
ATOM      3  C   UNL     1       6.052   4.545  17.910  0.00  0.00    +0.000 C 
ATOM      4  O   UNL     1       7.174   4.617  18.404  0.00  0.00    +0.000 OA
ATOM      5  H   UNL     1       4.859   4.939  16.261  0.00  0.00    +0.000 HD
BRANCH   2   6
ATOM      6  C   UNL     1       6.869   5.170  15.667  0.00  0.00    +0.000 C 
BRANCH   6  13
ATOM      7  C   UNL     1       8.722   5.764  13.328  0.00  0.00    +0.000 C 
ATOM      8  C   UNL     1       7.499   4.901  13.184  0.00  0.00    +0.000 A 
ATOM      9  C   UNL     1       7.230   4.324  11.929  0.00  0.00    +0.000 A 
ATOM     10  C   UNL     1       6.123   3.497  11.741  0.00  0.00    +0.000 A 
ATOM     11  C   UNL     1       5.265   3.237  12.803  0.00  0.00    +0.000 A 
ATOM     12  C   UNL     1       5.520   3.799  14.054  0.00  0.00    +0.000 A 
ATOM     13  C   UNL     1       6.643   4.622  14.270  0.00  0.00    +0.000 A 
ENDBRANCH   6  13
ENDBRANCH   2   6
ENDBRANCH   1   3
BRANCH   1  14
ATOM     14  N   UNL     1       3.540   4.570  18.170  0.00  0.00    +0.000 N 
BRANCH  14  15
ATOM     15  C   UNL     1       3.022   5.840  18.614  0.00  0.00    +0.000 A 
ATOM     16  C   UNL     1       3.061   6.950  17.761  0.00  0.00    +0.000 A 
ATOM     17  C   UNL     1       2.489   8.163  18.156  0.00  0.00    +0.000 A 
ATOM     18  C   UNL     1       1.880   8.276  19.404  0.00  0.00    +0.000 A 
ATOM     19  C   UNL     1       1.867   7.186  20.275  0.00  0.00    +0.000 A 
ATOM     20  C   UNL     1       2.445   5.973  19.888  0.00  0.00    +0.000 A 
ATOM     21 CL   UNL     1       2.393   4.653  21.003  0.00  0.00    +0.000 Cl
ENDBRANCH  14  15
BRANCH  14  22
ATOM     22  S   UNL     1       2.444   3.413  17.621  0.00  0.00    +0.000 S 
ATOM     23  C   UNL     1       2.834   1.998  18.636  0.00  0.00    +0.000 C 
ATOM     24  O   UNL     1       1.091   3.820  17.933  0.00  0.00    +0.000 OA
ATOM     25  O   UNL     1       2.830   3.068  16.267  0.00  0.00    +0.000 OA
ENDBRANCH  14  22
ENDBRANCH   1  14
TORSDOF 6
ENDMDL
MODEL 3
REMARK VINA RESULT:      -7.3      2.147      3.859
REMARK  Name = 
REMARK  8 active torsions:
REMARK  status: ('A' for Active; 'I' for Inactive)
REMARK    1  A    between atoms: C_1  and  C_2
REMARK    2  A    between atoms: C_7  and  C_8
REMARK    3  A    between atoms: C_8  and  N_9
REMARK    4  A    between atoms: C_10  and  C_12
REMARK    5  A    between atoms: C_12  and  N_13
REMARK    6  A    between atoms: N_13  and  C_14
REMARK    7  A    between atoms: N_13  and  S_21
REMARK    8  A    between atoms: S_21  and  C_22
REMARK                            x       y       z     vdW  Elec       q    Type
REMARK                         _______ _______ _______ _____ _____    ______ ____
ROOT
ATOM      1  C   UNL     1       3.770   6.624  19.192  0.00  0.00    +0.000 C 
ENDROOT
BRANCH   1   3
ATOM      2  N   UNL     1       1.972   8.203  19.710  0.00  0.00    +0.000 N 
ATOM      3  C   UNL     1       2.618   7.497  18.712  0.00  0.00    +0.000 C 
ATOM      4  O   UNL     1       2.248   7.513  17.541  0.00  0.00    +0.000 OA
ATOM      5  H   UNL     1       2.445   8.351  20.593  0.00  0.00    +0.000 HD
BRANCH   2   6
ATOM      6  C   UNL     1       0.841   9.057  19.419  0.00  0.00    +0.000 C 
BRANCH   6  13
ATOM      7  C   UNL     1      -0.782  11.630  19.455  0.00  0.00    +0.000 C 
ATOM      8  C   UNL     1      -0.494  10.845  20.705  0.00  0.00    +0.000 A 
ATOM      9  C   UNL     1      -1.028  11.306  21.922  0.00  0.00    +0.000 A 
ATOM     10  C   UNL     1      -0.813  10.609  23.111  0.00  0.00    +0.000 A 
ATOM     11  C   UNL     1      -0.058   9.443  23.102  0.00  0.00    +0.000 A 
ATOM     12  C   UNL     1       0.475   8.970  21.902  0.00  0.00    +0.000 A 
ATOM     13  C   UNL     1       0.254   9.650  20.687  0.00  0.00    +0.000 A 
ENDBRANCH   6  13
ENDBRANCH   2   6
ENDBRANCH   1   3
BRANCH   1  14
ATOM     14  N   UNL     1       3.678   5.206  18.787  0.00  0.00    +0.000 N 
BRANCH  14  15
ATOM     15  C   UNL     1       2.808   4.332  19.533  0.00  0.00    +0.000 A 
ATOM     16  C   UNL     1       3.137   3.968  20.845  0.00  0.00    +0.000 A 
ATOM     17  C   UNL     1       2.260   3.185  21.601  0.00  0.00    +0.000 A 
ATOM     18  C   UNL     1       1.052   2.758  21.052  0.00  0.00    +0.000 A 
ATOM     19  C   UNL     1       0.731   3.086  19.734  0.00  0.00    +0.000 A 
ATOM     20  C   UNL     1       1.610   3.862  18.971  0.00  0.00    +0.000 A 
ATOM     21 CL   UNL     1       1.158   4.246  17.347  0.00  0.00    +0.000 Cl
ENDBRANCH  14  15
BRANCH  14  22
ATOM     22  S   UNL     1       4.986   4.521  17.975  0.00  0.00    +0.000 S 
ATOM     23  C   UNL     1       5.456   5.816  16.840  0.00  0.00    +0.000 C 
ATOM     24  O   UNL     1       6.088   4.314  18.889  0.00  0.00    +0.000 OA
ATOM     25  O   UNL     1       4.466   3.434  17.168  0.00  0.00    +0.000 OA
ENDBRANCH  14  22
ENDBRANCH   1  14
TORSDOF 6
ENDMDL
MODEL 4
REMARK VINA RESULT:      -7.2      1.763      1.982
REMARK  Name = 
REMARK  8 active torsions:
REMARK  status: ('A' for Active; 'I' for Inactive)
REMARK    1  A    between atoms: C_1  and  C_2
REMARK    2  A    between atoms: C_7  and  C_8
REMARK    3  A    between atoms: C_8  and  N_9
REMARK    4  A    between atoms: C_10  and  C_12
REMARK    5  A    between atoms: C_12  and  N_13
REMARK    6  A    between atoms: N_13  and  C_14
REMARK    7  A    between atoms: N_13  and  S_21
REMARK    8  A    between atoms: S_21  and  C_22
REMARK                            x       y       z     vdW  Elec       q    Type
REMARK                         _______ _______ _______ _____ _____    ______ ____
ROOT
ATOM      1  C   UNL     1       2.635   4.800  18.873  0.00  0.00    +0.000 C 
ENDROOT
BRANCH   1   3
ATOM      2  N   UNL     1       2.339   6.890  20.116  0.00  0.00    +0.000 N 
ATOM      3  C   UNL     1       1.891   5.594  19.941  0.00  0.00    +0.000 C 
ATOM      4  O   UNL     1       1.012   5.094  20.639  0.00  0.00    +0.000 OA
ATOM      5  H   UNL     1       2.878   7.328  19.379  0.00  0.00    +0.000 HD
BRANCH   2   6
ATOM      6  C   UNL     1       1.753   7.763  21.109  0.00  0.00    +0.000 C 
BRANCH   6  13
ATOM      7  C   UNL     1      -0.368   9.378  22.576  0.00  0.00    +0.000 C 
ATOM      8  C   UNL     1      -0.006   9.644  21.141  0.00  0.00    +0.000 A 
ATOM      9  C   UNL     1      -0.651  10.701  20.472  0.00  0.00    +0.000 A 
ATOM     10  C   UNL     1      -0.342  11.008  19.147  0.00  0.00    +0.000 A 
ATOM     11  C   UNL     1       0.614  10.262  18.469  0.00  0.00    +0.000 A 
ATOM     12  C   UNL     1       1.265   9.213  19.119  0.00  0.00    +0.000 A 
ATOM     13  C   UNL     1       0.981   8.898  20.463  0.00  0.00    +0.000 A 
ENDBRANCH   6  13
ENDBRANCH   2   6
ENDBRANCH   1   3
BRANCH   1  14
ATOM     14  N   UNL     1       3.898   4.186  19.332  0.00  0.00    +0.000 N 
BRANCH  14  15
ATOM     15  C   UNL     1       5.136   4.645  18.755  0.00  0.00    +0.000 A 
ATOM     16  C   UNL     1       6.075   5.313  19.551  0.00  0.00    +0.000 A 
ATOM     17  C   UNL     1       7.311   5.690  19.018  0.00  0.00    +0.000 A 
ATOM     18  C   UNL     1       7.616   5.406  17.687  0.00  0.00    +0.000 A 
ATOM     19  C   UNL     1       6.673   4.771  16.877  0.00  0.00    +0.000 A 
ATOM     20  C   UNL     1       5.432   4.400  17.404  0.00  0.00    +0.000 A 
ATOM     21 CL   UNL     1       4.305   3.610  16.358  0.00  0.00    +0.000 Cl
ENDBRANCH  14  15
BRANCH  14  22
ATOM     22  S   UNL     1       3.843   2.622  19.956  0.00  0.00    +0.000 S 
ATOM     23  C   UNL     1       2.872   1.752  18.737  0.00  0.00    +0.000 C 
ATOM     24  O   UNL     1       5.168   2.040  19.962  0.00  0.00    +0.000 OA
ATOM     25  O   UNL     1       3.040   2.671  21.163  0.00  0.00    +0.000 OA
ENDBRANCH  14  22
ENDBRANCH   1  14
TORSDOF 6
ENDMDL
MODEL 5
REMARK VINA RESULT:      -7.2      1.987      2.868
REMARK  Name = 
REMARK  8 active torsions:
REMARK  status: ('A' for Active; 'I' for Inactive)
REMARK    1  A    between atoms: C_1  and  C_2
REMARK    2  A    between atoms: C_7  and  C_8
REMARK    3  A    between atoms: C_8  and  N_9
REMARK    4  A    between atoms: C_10  and  C_12
REMARK    5  A    between atoms: C_12  and  N_13
REMARK    6  A    between atoms: N_13  and  C_14
REMARK    7  A    between atoms: N_13  and  S_21
REMARK    8  A    between atoms: S_21  and  C_22
REMARK                            x       y       z     vdW  Elec       q    Type
REMARK                         _______ _______ _______ _____ _____    ______ ____
ROOT
ATOM      1  C   UNL     1       2.707   5.293  18.022  0.00  0.00    +0.000 C 
ENDROOT
BRANCH   1   3
ATOM      2  N   UNL     1       1.764   7.484  18.577  0.00  0.00    +0.000 N 
ATOM      3  C   UNL     1       2.877   6.805  18.120  0.00  0.00    +0.000 C 
ATOM      4  O   UNL     1       3.900   7.376  17.752  0.00  0.00    +0.000 OA
ATOM      5  H   UNL     1       1.052   6.975  19.088  0.00  0.00    +0.000 HD
BRANCH   2   6
ATOM      6  C   UNL     1       1.758   8.925  18.702  0.00  0.00    +0.000 C 
BRANCH   6  13
ATOM      7  C   UNL     1      -0.202  11.253  18.735  0.00  0.00    +0.000 C 
ATOM      8  C   UNL     1       0.115  10.452  19.968  0.00  0.00    +0.000 A 
ATOM      9  C   UNL     1      -0.549  10.776  21.165  0.00  0.00    +0.000 A 
ATOM     10  C   UNL     1      -0.313  10.056  22.336  0.00  0.00    +0.000 A 
ATOM     11  C   UNL     1       0.594   9.003  22.329  0.00  0.00    +0.000 A 
ATOM     12  C   UNL     1       1.258   8.667  21.149  0.00  0.00    +0.000 A 
ATOM     13  C   UNL     1       1.020   9.371  19.951  0.00  0.00    +0.000 A 
ENDBRANCH   6  13
ENDBRANCH   2   6
ENDBRANCH   1   3
BRANCH   1  14
ATOM     14  N   UNL     1       3.888   4.513  18.446  0.00  0.00    +0.000 N 
BRANCH  14  15
ATOM     15  C   UNL     1       5.011   4.420  17.548  0.00  0.00    +0.000 A 
ATOM     16  C   UNL     1       4.839   3.892  16.263  0.00  0.00    +0.000 A 
ATOM     17  C   UNL     1       5.906   3.872  15.360  0.00  0.00    +0.000 A 
ATOM     18  C   UNL     1       7.151   4.375  15.736  0.00  0.00    +0.000 A 
ATOM     19  C   UNL     1       7.341   4.871  17.026  0.00  0.00    +0.000 A 
ATOM     20  C   UNL     1       6.278   4.885  17.936  0.00  0.00    +0.000 A 
ATOM     21 CL   UNL     1       6.568   5.519  19.518  0.00  0.00    +0.000 Cl
ENDBRANCH  14  15
BRANCH  14  22
ATOM     22  S   UNL     1       3.665   3.277  19.570  0.00  0.00    +0.000 S 
ATOM     23  C   UNL     1       2.573   2.160  18.707  0.00  0.00    +0.000 C 
ATOM     24  O   UNL     1       4.913   2.583  19.803  0.00  0.00    +0.000 OA
ATOM     25  O   UNL     1       2.900   3.833  20.670  0.00  0.00    +0.000 OA
ENDBRANCH  14  22
ENDBRANCH   1  14
TORSDOF 6
ENDMDL
MODEL 6
REMARK VINA RESULT:      -7.1      1.875      2.235
REMARK  Name = 
REMARK  8 active torsions:
REMARK  status: ('A' for Active; 'I' for Inactive)
REMARK    1  A    between atoms: C_1  and  C_2
REMARK    2  A    between atoms: C_7  and  C_8
REMARK    3  A    between atoms: C_8  and  N_9
REMARK    4  A    between atoms: C_10  and  C_12
REMARK    5  A    between atoms: C_12  and  N_13
REMARK    6  A    between atoms: N_13  and  C_14
REMARK    7  A    between atoms: N_13  and  S_21
REMARK    8  A    between atoms: S_21  and  C_22
REMARK                            x       y       z     vdW  Elec       q    Type
REMARK                         _______ _______ _______ _____ _____    ______ ____
ROOT
ATOM      1  C   UNL     1       2.482   5.001  18.140  0.00  0.00    +0.000 C 
ENDROOT
BRANCH   1   3
ATOM      2  N   UNL     1       2.236   7.161  19.268  0.00  0.00    +0.000 N 
ATOM      3  C   UNL     1       2.211   5.787  19.418  0.00  0.00    +0.000 C 
ATOM      4  O   UNL     1       2.058   5.239  20.507  0.00  0.00    +0.000 OA
ATOM      5  H   UNL     1       2.123   7.557  18.343  0.00  0.00    +0.000 HD
BRANCH   2   6
ATOM      6  C   UNL     1       2.023   8.046  20.392  0.00  0.00    +0.000 C 
BRANCH   6  13
ATOM      7  C   UNL     1       0.264   9.345  22.508  0.00  0.00    +0.000 C 
ATOM      8  C   UNL     1       0.170   9.709  21.052  0.00  0.00    +0.000 A 
ATOM      9  C   UNL     1      -0.741  10.711  20.669  0.00  0.00    +0.000 A 
ATOM     10  C   UNL     1      -0.858  11.106  19.336  0.00  0.00    +0.000 A 
ATOM     11  C   UNL     1      -0.068  10.503  18.365  0.00  0.00    +0.000 A 
ATOM     12  C   UNL     1       0.843   9.510  18.729  0.00  0.00    +0.000 A 
ATOM     13  C   UNL     1       0.989   9.110  20.072  0.00  0.00    +0.000 A 
ENDBRANCH   6  13
ENDBRANCH   2   6
ENDBRANCH   1   3
BRANCH   1  14
ATOM     14  N   UNL     1       3.610   4.051  18.230  0.00  0.00    +0.000 N 
BRANCH  14  15
ATOM     15  C   UNL     1       4.755   4.259  17.380  0.00  0.00    +0.000 A 
ATOM     16  C   UNL     1       4.694   3.911  16.025  0.00  0.00    +0.000 A 
ATOM     17  C   UNL     1       5.772   4.183  15.178  0.00  0.00    +0.000 A 
ATOM     18  C   UNL     1       6.918   4.799  15.678  0.00  0.00    +0.000 A 
ATOM     19  C   UNL     1       7.002   5.117  17.034  0.00  0.00    +0.000 A 
ATOM     20  C   UNL     1       5.929   4.839  17.888  0.00  0.00    +0.000 A 
ATOM     21 CL   UNL     1       6.084   5.262  19.557  0.00  0.00    +0.000 Cl
ENDBRANCH  14  15
BRANCH  14  22
ATOM     22  S   UNL     1       3.294   2.486  18.769  0.00  0.00    +0.000 S 
ATOM     23  C   UNL     1       1.518   2.379  18.626  0.00  0.00    +0.000 C 
ATOM     24  O   UNL     1       3.869   1.519  17.859  0.00  0.00    +0.000 OA
ATOM     25  O   UNL     1       3.596   2.454  20.187  0.00  0.00    +0.000 OA
ENDBRANCH  14  22
ENDBRANCH   1  14
TORSDOF 6
ENDMDL
MODEL 7
REMARK VINA RESULT:      -7.1      1.851      2.602
REMARK  Name = 
REMARK  8 active torsions:
REMARK  status: ('A' for Active; 'I' for Inactive)
REMARK    1  A    between atoms: C_1  and  C_2
REMARK    2  A    between atoms: C_7  and  C_8
REMARK    3  A    between atoms: C_8  and  N_9
REMARK    4  A    between atoms: C_10  and  C_12
REMARK    5  A    between atoms: C_12  and  N_13
REMARK    6  A    between atoms: N_13  and  C_14
REMARK    7  A    between atoms: N_13  and  S_21
REMARK    8  A    between atoms: S_21  and  C_22
REMARK                            x       y       z     vdW  Elec       q    Type
REMARK                         _______ _______ _______ _____ _____    ______ ____
ROOT
ATOM      1  C   UNL     1       3.693   5.340  19.622  0.00  0.00    +0.000 C 
ENDROOT
BRANCH   1   3
ATOM      2  N   UNL     1       2.361   7.384  19.826  0.00  0.00    +0.000 N 
ATOM      3  C   UNL     1       2.908   6.462  18.954  0.00  0.00    +0.000 C 
ATOM      4  O   UNL     1       2.717   6.499  17.741  0.00  0.00    +0.000 OA
ATOM      5  H   UNL     1       2.735   7.456  20.764  0.00  0.00    +0.000 HD
BRANCH   2   6
ATOM      6  C   UNL     1       1.566   8.494  19.348  0.00  0.00    +0.000 C 
BRANCH   6  13
ATOM      7  C   UNL     1      -0.360  10.813  18.930  0.00  0.00    +0.000 C 
ATOM      8  C   UNL     1      -0.038  10.274  20.296  0.00  0.00    +0.000 A 
ATOM      9  C   UNL     1      -0.680  10.844  21.410  0.00  0.00    +0.000 A 
ATOM     10  C   UNL     1      -0.438  10.372  22.700  0.00  0.00    +0.000 A 
ATOM     11  C   UNL     1       0.453   9.325  22.896  0.00  0.00    +0.000 A 
ATOM     12  C   UNL     1       1.096   8.746  21.802  0.00  0.00    +0.000 A 
ATOM     13  C   UNL     1       0.851   9.196  20.489  0.00  0.00    +0.000 A 
ENDBRANCH   6  13
ENDBRANCH   2   6
ENDBRANCH   1   3
BRANCH   1  14
ATOM     14  N   UNL     1       3.991   4.190  18.744  0.00  0.00    +0.000 N 
BRANCH  14  15
ATOM     15  C   UNL     1       4.953   4.362  17.685  0.00  0.00    +0.000 A 
ATOM     16  C   UNL     1       4.615   4.024  16.369  0.00  0.00    +0.000 A 
ATOM     17  C   UNL     1       5.514   4.263  15.326  0.00  0.00    +0.000 A 
ATOM     18  C   UNL     1       6.757   4.836  15.591  0.00  0.00    +0.000 A 
ATOM     19  C   UNL     1       7.116   5.144  16.903  0.00  0.00    +0.000 A 
ATOM     20  C   UNL     1       6.223   4.899  17.951  0.00  0.00    +0.000 A 
ATOM     21 CL   UNL     1       6.717   5.308  19.557  0.00  0.00    +0.000 Cl
ENDBRANCH  14  15
BRANCH  14  22
ATOM     22  S   UNL     1       2.811   3.001  18.560  0.00  0.00    +0.000 S 
ATOM     23  C   UNL     1       2.007   3.003  20.154  0.00  0.00    +0.000 C 
ATOM     24  O   UNL     1       1.836   3.413  17.574  0.00  0.00    +0.000 OA
ATOM     25  O   UNL     1       3.499   1.729  18.448  0.00  0.00    +0.000 OA
ENDBRANCH  14  22
ENDBRANCH   1  14
TORSDOF 6
ENDMDL
MODEL 8
REMARK VINA RESULT:      -7.1      3.202      6.141
REMARK  Name = 
REMARK  8 active torsions:
REMARK  status: ('A' for Active; 'I' for Inactive)
REMARK    1  A    between atoms: C_1  and  C_2
REMARK    2  A    between atoms: C_7  and  C_8
REMARK    3  A    between atoms: C_8  and  N_9
REMARK    4  A    between atoms: C_10  and  C_12
REMARK    5  A    between atoms: C_12  and  N_13
REMARK    6  A    between atoms: N_13  and  C_14
REMARK    7  A    between atoms: N_13  and  S_21
REMARK    8  A    between atoms: S_21  and  C_22
REMARK                            x       y       z     vdW  Elec       q    Type
REMARK                         _______ _______ _______ _____ _____    ______ ____
ROOT
ATOM      1  C   UNL     1       4.966   4.617  16.203  0.00  0.00    +0.000 C 
ENDROOT
BRANCH   1   3
ATOM      2  N   UNL     1       4.379   2.655  17.545  0.00  0.00    +0.000 N 
ATOM      3  C   UNL     1       3.906   3.645  16.706  0.00  0.00    +0.000 C 
ATOM      4  O   UNL     1       2.736   3.698  16.333  0.00  0.00    +0.000 OA
ATOM      5  H   UNL     1       5.269   2.788  18.009  0.00  0.00    +0.000 HD
BRANCH   2   6
ATOM      6  C   UNL     1       3.501   1.640  18.085  0.00  0.00    +0.000 C 
BRANCH   6  13
ATOM      7  C   UNL     1       4.688   1.593  20.887  0.00  0.00    +0.000 C 
ATOM      8  C   UNL     1       3.306   2.118  20.609  0.00  0.00    +0.000 A 
ATOM      9  C   UNL     1       2.558   2.636  21.682  0.00  0.00    +0.000 A 
ATOM     10  C   UNL     1       1.279   3.157  21.482  0.00  0.00    +0.000 A 
ATOM     11  C   UNL     1       0.728   3.164  20.207  0.00  0.00    +0.000 A 
ATOM     12  C   UNL     1       1.458   2.657  19.131  0.00  0.00    +0.000 A 
ATOM     13  C   UNL     1       2.759   2.144  19.309  0.00  0.00    +0.000 A 
ENDBRANCH   6  13
ENDBRANCH   2   6
ENDBRANCH   1   3
BRANCH   1  14
ATOM     14  N   UNL     1       5.311   5.696  17.151  0.00  0.00    +0.000 N 
BRANCH  14  15
ATOM     15  C   UNL     1       4.244   6.474  17.728  0.00  0.00    +0.000 A 
ATOM     16  C   UNL     1       3.624   7.479  16.975  0.00  0.00    +0.000 A 
ATOM     17  C   UNL     1       2.536   8.183  17.499  0.00  0.00    +0.000 A 
ATOM     18  C   UNL     1       2.065   7.893  18.778  0.00  0.00    +0.000 A 
ATOM     19  C   UNL     1       2.699   6.918  19.549  0.00  0.00    +0.000 A 
ATOM     20  C   UNL     1       3.793   6.216  19.032  0.00  0.00    +0.000 A 
ATOM     21 CL   UNL     1       4.535   5.014  20.028  0.00  0.00    +0.000 Cl
ENDBRANCH  14  15
BRANCH  14  22
ATOM     22  S   UNL     1       6.837   6.402  17.035  0.00  0.00    +0.000 S 
ATOM     23  C   UNL     1       7.648   5.817  18.513  0.00  0.00    +0.000 C 
ATOM     24  O   UNL     1       7.551   5.863  15.897  0.00  0.00    +0.000 OA
ATOM     25  O   UNL     1       6.660   7.832  17.201  0.00  0.00    +0.000 OA
ENDBRANCH  14  22
ENDBRANCH   1  14
TORSDOF 6
ENDMDL
MODEL 9
REMARK VINA RESULT:      -7.0      2.902      7.557
REMARK  Name = 
REMARK  8 active torsions:
REMARK  status: ('A' for Active; 'I' for Inactive)
REMARK    1  A    between atoms: C_1  and  C_2
REMARK    2  A    between atoms: C_7  and  C_8
REMARK    3  A    between atoms: C_8  and  N_9
REMARK    4  A    between atoms: C_10  and  C_12
REMARK    5  A    between atoms: C_12  and  N_13
REMARK    6  A    between atoms: N_13  and  C_14
REMARK    7  A    between atoms: N_13  and  S_21
REMARK    8  A    between atoms: S_21  and  C_22
REMARK                            x       y       z     vdW  Elec       q    Type
REMARK                         _______ _______ _______ _____ _____    ______ ____
ROOT
ATOM      1  C   UNL     1       5.392   4.849  19.031  0.00  0.00    +0.000 C 
ENDROOT
BRANCH   1   3
ATOM      2  N   UNL     1       6.294   5.125  16.771  0.00  0.00    +0.000 N 
ATOM      3  C   UNL     1       6.600   4.968  18.109  0.00  0.00    +0.000 C 
ATOM      4  O   UNL     1       7.753   4.860  18.520  0.00  0.00    +0.000 OA
ATOM      5  H   UNL     1       5.370   5.448  16.512  0.00  0.00    +0.000 HD
BRANCH   2   6
ATOM      6  C   UNL     1       7.330   5.227  15.767  0.00  0.00    +0.000 C 
BRANCH   6  13
ATOM      7  C   UNL     1       8.784   5.772  13.150  0.00  0.00    +0.000 C 
ATOM      8  C   UNL     1       7.531   4.943  13.215  0.00  0.00    +0.000 A 
ATOM      9  C   UNL     1       7.042   4.374  12.024  0.00  0.00    +0.000 A 
ATOM     10  C   UNL     1       5.897   3.577  12.025  0.00  0.00    +0.000 A 
ATOM     11  C   UNL     1       5.221   3.340  13.216  0.00  0.00    +0.000 A 
ATOM     12  C   UNL     1       5.695   3.894  14.406  0.00  0.00    +0.000 A 
ATOM     13  C   UNL     1       6.861   4.686  14.429  0.00  0.00    +0.000 A 
ENDBRANCH   6  13
ENDBRANCH   2   6
ENDBRANCH   1   3
BRANCH   1  14
ATOM     14  N   UNL     1       4.086   4.983  18.354  0.00  0.00    +0.000 N 
BRANCH  14  15
ATOM     15  C   UNL     1       3.305   6.170  18.593  0.00  0.00    +0.000 A 
ATOM     16  C   UNL     1       2.538   6.281  19.759  0.00  0.00    +0.000 A 
ATOM     17  C   UNL     1       1.841   7.461  20.035  0.00  0.00    +0.000 A 
ATOM     18  C   UNL     1       1.902   8.535  19.148  0.00  0.00    +0.000 A 
ATOM     19  C   UNL     1       2.636   8.420  17.966  0.00  0.00    +0.000 A 
ATOM     20  C   UNL     1       3.327   7.239  17.681  0.00  0.00    +0.000 A 
ATOM     21 CL   UNL     1       4.227   7.155  16.207  0.00  0.00    +0.000 Cl
ENDBRANCH  14  15
BRANCH  14  22
ATOM     22  S   UNL     1       3.277   3.578  17.896  0.00  0.00    +0.000 S 
ATOM     23  C   UNL     1       3.008   2.760  19.460  0.00  0.00    +0.000 C 
ATOM     24  O   UNL     1       1.981   3.906  17.341  0.00  0.00    +0.000 OA
ATOM     25  O   UNL     1       4.222   2.760  17.161  0.00  0.00    +0.000 OA
ENDBRANCH  14  22
ENDBRANCH   1  14
TORSDOF 6
ENDMDL
