MODEL 1
REMARK VINA RESULT:      -6.5      0.000      0.000
REMARK  Name = 
REMARK  15 active torsions:
REMARK  status: ('A' for Active; 'I' for Inactive)
REMARK    1  A    between atoms: C_7  and  C_8
REMARK    2  A    between atoms: C_8  and  C_9
REMARK    3  A    between atoms: C_9  and  C_10
REMARK    4  A    between atoms: C_10  and  C_11
REMARK    5  A    between atoms: C_11  and  C_12
REMARK    6  A    between atoms: C_13  and  C_14
REMARK    7  A    between atoms: C_14  and  C_15
REMARK    8  A    between atoms: C_15  and  C_16
REMARK    9  A    between atoms: C_16  and  C_17
REMARK   10  A    between atoms: C_17  and  C_18
REMARK   11  A    between atoms: C_18  and  C_19
REMARK   12  A    between atoms: C_19  and  C_20
REMARK   13  A    between atoms: C_20  and  C_21
REMARK   14  A    between atoms: C_21  and  C_22
REMARK   15  A    between atoms: C_23  and  O_24
REMARK                            x       y       z     vdW  Elec       q    Type
REMARK                         _______ _______ _______ _____ _____    ______ ____
ROOT
ATOM      1  C   UNL     1       7.615   6.258  18.605  0.00  0.00    +0.000 C 
ENDROOT
BRANCH   1   2
ATOM      2  C   UNL     1       7.776   7.496  17.722  0.00  0.00    +0.000 C 
BRANCH   2   3
ATOM      3  C   UNL     1       8.515   8.581  18.493  0.00  0.00    +0.000 C 
BRANCH   3  10
ATOM      4  C   UNL     1      10.966  13.267  20.313  0.00  0.00    +0.000 C 
ATOM      5  C   UNL     1      10.255  12.613  19.390  0.00  0.00    +0.000 C 
ATOM      6  O   UNL     1       9.577  13.291  18.375  0.00  0.00    +0.000 OA
ATOM      7  C   UNL     1       8.692  12.409  17.814  0.00  0.00    +0.000 C 
ATOM      8  O   UNL     1       7.844  12.703  16.981  0.00  0.00    +0.000 OA
ATOM      9  C   UNL     1       8.901  11.049  18.364  0.00  0.00    +0.000 C 
ATOM     10  C   UNL     1       8.227   9.957  17.966  0.00  0.00    +0.000 C 
ATOM     11  C   UNL     1       9.959  11.158  19.385  0.00  0.00    +0.000 C 
BRANCH  11  12
ATOM     12  O   UNL     1       9.473  10.752  20.657  0.00  0.00    +0.000 OA
ATOM     13  H   UNL     1       8.601  11.166  20.777  0.00  0.00    +0.000 HD
ENDBRANCH  11  12
ENDBRANCH   3  10
ENDBRANCH   2   3
ENDBRANCH   1   2
BRANCH   1  14
ATOM     14  C   UNL     1       7.413   5.021  17.742  0.00  0.00    +0.000 C 
BRANCH  14  15
ATOM     15  C   UNL     1       7.093   5.389  16.321  0.00  0.00    +0.000 C 
ATOM     16  C   UNL     1       5.851   5.420  15.817  0.00  0.00    +0.000 C 
BRANCH  16  17
ATOM     17  C   UNL     1       4.646   5.071  16.636  0.00  0.00    +0.000 C 
BRANCH  17  18
ATOM     18  C   UNL     1       4.026   6.273  17.320  0.00  0.00    +0.000 C 
BRANCH  18  19
ATOM     19  C   UNL     1       3.706   5.921  18.768  0.00  0.00    +0.000 C 
BRANCH  19  20
ATOM     20  C   UNL     1       2.219   5.661  18.928  0.00  0.00    +0.000 C 
BRANCH  20  21
ATOM     21  C   UNL     1       1.859   5.498  20.397  0.00  0.00    +0.000 C 
BRANCH  21  22
ATOM     22  C   UNL     1       1.072   4.211  20.604  0.00  0.00    +0.000 C 
BRANCH  22  23
ATOM     23  C   UNL     1       1.813   3.026  19.999  0.00  0.00    +0.000 C 
BRANCH  23  24
ATOM     24  C   UNL     1       2.992   2.622  20.876  0.00  0.00    +0.000 C 
ATOM     25  C   UNL     1       4.247   2.431  20.042  0.00  0.00    +0.000 C 
ENDBRANCH  23  24
ENDBRANCH  22  23
ENDBRANCH  21  22
ENDBRANCH  20  21
ENDBRANCH  19  20
ENDBRANCH  18  19
ENDBRANCH  17  18
ENDBRANCH  16  17
ENDBRANCH  14  15
ENDBRANCH   1  14
TORSDOF 14
ENDMDL
MODEL 2
REMARK VINA RESULT:      -6.3      4.249      6.978
REMARK  Name = 
REMARK  15 active torsions:
REMARK  status: ('A' for Active; 'I' for Inactive)
REMARK    1  A    between atoms: C_7  and  C_8
REMARK    2  A    between atoms: C_8  and  C_9
REMARK    3  A    between atoms: C_9  and  C_10
REMARK    4  A    between atoms: C_10  and  C_11
REMARK    5  A    between atoms: C_11  and  C_12
REMARK    6  A    between atoms: C_13  and  C_14
REMARK    7  A    between atoms: C_14  and  C_15
REMARK    8  A    between atoms: C_15  and  C_16
REMARK    9  A    between atoms: C_16  and  C_17
REMARK   10  A    between atoms: C_17  and  C_18
REMARK   11  A    between atoms: C_18  and  C_19
REMARK   12  A    between atoms: C_19  and  C_20
REMARK   13  A    between atoms: C_20  and  C_21
REMARK   14  A    between atoms: C_21  and  C_22
REMARK   15  A    between atoms: C_23  and  O_24
REMARK                            x       y       z     vdW  Elec       q    Type
REMARK                         _______ _______ _______ _____ _____    ______ ____
ROOT
ATOM      1  C   UNL     1       2.470   2.785  17.334  0.00  0.00    +0.000 C 
ENDROOT
BRANCH   1   2
ATOM      2  C   UNL     1       3.327   4.021  17.606  0.00  0.00    +0.000 C 
BRANCH   2   3
ATOM      3  C   UNL     1       4.508   3.641  18.490  0.00  0.00    +0.000 C 
BRANCH   3  10
ATOM      4  C   UNL     1       7.192   4.801  13.723  0.00  0.00    +0.000 C 
ATOM      5  C   UNL     1       6.888   5.107  14.988  0.00  0.00    +0.000 C 
ATOM      6  O   UNL     1       7.601   6.078  15.694  0.00  0.00    +0.000 OA
ATOM      7  C   UNL     1       7.293   5.926  17.021  0.00  0.00    +0.000 C 
ATOM      8  O   UNL     1       7.838   6.527  17.938  0.00  0.00    +0.000 OA
ATOM      9  C   UNL     1       6.212   4.927  17.189  0.00  0.00    +0.000 C 
ATOM     10  C   UNL     1       5.652   4.605  18.366  0.00  0.00    +0.000 C 
ATOM     11  C   UNL     1       5.905   4.399  15.846  0.00  0.00    +0.000 C 
BRANCH  11  12
ATOM     12  O   UNL     1       6.130   2.997  15.794  0.00  0.00    +0.000 OA
ATOM     13  H   UNL     1       5.791   2.684  14.938  0.00  0.00    +0.000 HD
ENDBRANCH  11  12
ENDBRANCH   3  10
ENDBRANCH   2   3
ENDBRANCH   1   2
BRANCH   1  14
ATOM     14  C   UNL     1       1.999   2.175  18.645  0.00  0.00    +0.000 C 
BRANCH  14  15
ATOM     15  C   UNL     1       0.727   2.815  19.124  0.00  0.00    +0.000 C 
ATOM     16  C   UNL     1       0.653   3.637  20.180  0.00  0.00    +0.000 C 
BRANCH  16  17
ATOM     17  C   UNL     1       1.854   3.988  21.005  0.00  0.00    +0.000 C 
BRANCH  17  18
ATOM     18  C   UNL     1       2.310   5.420  20.806  0.00  0.00    +0.000 C 
BRANCH  18  19
ATOM     19  C   UNL     1       1.098   6.345  20.837  0.00  0.00    +0.000 C 
BRANCH  19  20
ATOM     20  C   UNL     1       1.529   7.762  21.169  0.00  0.00    +0.000 C 
BRANCH  20  21
ATOM     21  C   UNL     1       0.339   8.709  21.115  0.00  0.00    +0.000 C 
BRANCH  21  22
ATOM     22  C   UNL     1       0.743  10.020  20.454  0.00  0.00    +0.000 C 
BRANCH  22  23
ATOM     23  C   UNL     1      -0.199  10.352  19.304  0.00  0.00    +0.000 C 
BRANCH  23  24
ATOM     24  C   UNL     1       0.289   9.718  18.006  0.00  0.00    +0.000 C 
ATOM     25  C   UNL     1       1.806   9.694  17.953  0.00  0.00    +0.000 C 
ENDBRANCH  23  24
ENDBRANCH  22  23
ENDBRANCH  21  22
ENDBRANCH  20  21
ENDBRANCH  19  20
ENDBRANCH  18  19
ENDBRANCH  17  18
ENDBRANCH  16  17
ENDBRANCH  14  15
ENDBRANCH   1  14
TORSDOF 14
ENDMDL
MODEL 3
REMARK VINA RESULT:      -6.3      4.348      7.095
REMARK  Name = 
REMARK  15 active torsions:
REMARK  status: ('A' for Active; 'I' for Inactive)
REMARK    1  A    between atoms: C_7  and  C_8
REMARK    2  A    between atoms: C_8  and  C_9
REMARK    3  A    between atoms: C_9  and  C_10
REMARK    4  A    between atoms: C_10  and  C_11
REMARK    5  A    between atoms: C_11  and  C_12
REMARK    6  A    between atoms: C_13  and  C_14
REMARK    7  A    between atoms: C_14  and  C_15
REMARK    8  A    between atoms: C_15  and  C_16
REMARK    9  A    between atoms: C_16  and  C_17
REMARK   10  A    between atoms: C_17  and  C_18
REMARK   11  A    between atoms: C_18  and  C_19
REMARK   12  A    between atoms: C_19  and  C_20
REMARK   13  A    between atoms: C_20  and  C_21
REMARK   14  A    between atoms: C_21  and  C_22
REMARK   15  A    between atoms: C_23  and  O_24
REMARK                            x       y       z     vdW  Elec       q    Type
REMARK                         _______ _______ _______ _____ _____    ______ ____
ROOT
ATOM      1  C   UNL     1       2.205   6.972  18.290  0.00  0.00    +0.000 C 
ENDROOT
BRANCH   1   2
ATOM      2  C   UNL     1       2.655   8.404  17.998  0.00  0.00    +0.000 C 
BRANCH   2   3
ATOM      3  C   UNL     1       1.436   9.288  17.773  0.00  0.00    +0.000 C 
BRANCH   3  10
ATOM      4  C   UNL     1      -0.752  10.751  22.708  0.00  0.00    +0.000 C 
ATOM      5  C   UNL     1       0.110  10.969  21.710  0.00  0.00    +0.000 C 
ATOM      6  O   UNL     1       0.785  12.185  21.582  0.00  0.00    +0.000 OA
ATOM      7  C   UNL     1       1.311  12.229  20.318  0.00  0.00    +0.000 C 
ATOM      8  O   UNL     1       1.857  13.206  19.822  0.00  0.00    +0.000 OA
ATOM      9  C   UNL     1       1.122  10.928  19.634  0.00  0.00    +0.000 C 
ATOM     10  C   UNL     1       1.584  10.641  18.406  0.00  0.00    +0.000 C 
ATOM     11  C   UNL     1       0.358  10.067  20.557  0.00  0.00    +0.000 C 
BRANCH  11  12
ATOM     12  O   UNL     1      -0.875   9.672  19.971  0.00  0.00    +0.000 OA
ATOM     13  H   UNL     1      -0.724   8.816  19.534  0.00  0.00    +0.000 HD
ENDBRANCH  11  12
ENDBRANCH   3  10
ENDBRANCH   2   3
ENDBRANCH   1   2
BRANCH   1  14
ATOM     14  C   UNL     1       2.793   6.497  19.610  0.00  0.00    +0.000 C 
BRANCH  14  15
ATOM     15  C   UNL     1       1.750   5.848  20.475  0.00  0.00    +0.000 C 
ATOM     16  C   UNL     1       1.557   4.524  20.550  0.00  0.00    +0.000 C 
BRANCH  16  17
ATOM     17  C   UNL     1       2.370   3.551  19.752  0.00  0.00    +0.000 C 
BRANCH  17  18
ATOM     18  C   UNL     1       1.666   3.084  18.493  0.00  0.00    +0.000 C 
BRANCH  18  19
ATOM     19  C   UNL     1       2.473   3.513  17.274  0.00  0.00    +0.000 C 
BRANCH  19  20
ATOM     20  C   UNL     1       3.948   3.224  17.495  0.00  0.00    +0.000 C 
BRANCH  20  21
ATOM     21  C   UNL     1       4.807   4.194  16.697  0.00  0.00    +0.000 C 
BRANCH  21  22
ATOM     22  C   UNL     1       5.372   5.270  17.615  0.00  0.00    +0.000 C 
BRANCH  22  23
ATOM     23  C   UNL     1       6.110   6.330  16.808  0.00  0.00    +0.000 C 
BRANCH  23  24
ATOM     24  C   UNL     1       7.272   6.906  17.609  0.00  0.00    +0.000 C 
ATOM     25  C   UNL     1       7.736   5.926  18.672  0.00  0.00    +0.000 C 
ENDBRANCH  23  24
ENDBRANCH  22  23
ENDBRANCH  21  22
ENDBRANCH  20  21
ENDBRANCH  19  20
ENDBRANCH  18  19
ENDBRANCH  17  18
ENDBRANCH  16  17
ENDBRANCH  14  15
ENDBRANCH   1  14
TORSDOF 14
ENDMDL
MODEL 4
REMARK VINA RESULT:      -6.3      5.687      8.321
REMARK  Name = 
REMARK  15 active torsions:
REMARK  status: ('A' for Active; 'I' for Inactive)
REMARK    1  A    between atoms: C_7  and  C_8
REMARK    2  A    between atoms: C_8  and  C_9
REMARK    3  A    between atoms: C_9  and  C_10
REMARK    4  A    between atoms: C_10  and  C_11
REMARK    5  A    between atoms: C_11  and  C_12
REMARK    6  A    between atoms: C_13  and  C_14
REMARK    7  A    between atoms: C_14  and  C_15
REMARK    8  A    between atoms: C_15  and  C_16
REMARK    9  A    between atoms: C_16  and  C_17
REMARK   10  A    between atoms: C_17  and  C_18
REMARK   11  A    between atoms: C_18  and  C_19
REMARK   12  A    between atoms: C_19  and  C_20
REMARK   13  A    between atoms: C_20  and  C_21
REMARK   14  A    between atoms: C_21  and  C_22
REMARK   15  A    between atoms: C_23  and  O_24
REMARK                            x       y       z     vdW  Elec       q    Type
REMARK                         _______ _______ _______ _____ _____    ______ ____
ROOT
ATOM      1  C   UNL     1       2.846   8.436  17.973  0.00  0.00    +0.000 C 
ENDROOT
BRANCH   1   2
ATOM      2  C   UNL     1       1.685   9.424  17.859  0.00  0.00    +0.000 C 
BRANCH   2   3
ATOM      3  C   UNL     1       0.750   9.255  19.049  0.00  0.00    +0.000 C 
BRANCH   3  10
ATOM      4  C   UNL     1      -4.193  10.979  17.084  0.00  0.00    +0.000 C 
ATOM      5  C   UNL     1      -3.214  11.056  17.990  0.00  0.00    +0.000 C 
ATOM      6  O   UNL     1      -3.130  12.126  18.883  0.00  0.00    +0.000 OA
ATOM      7  C   UNL     1      -1.875  12.101  19.432  0.00  0.00    +0.000 C 
ATOM      8  O   UNL     1      -1.414  12.971  20.162  0.00  0.00    +0.000 OA
ATOM      9  C   UNL     1      -1.152  10.877  19.014  0.00  0.00    +0.000 C 
ATOM     10  C   UNL     1       0.077  10.540  19.437  0.00  0.00    +0.000 C 
ATOM     11  C   UNL     1      -2.039  10.154  18.085  0.00  0.00    +0.000 C 
BRANCH  11  12
ATOM     12  O   UNL     1      -1.425  10.013  16.811  0.00  0.00    +0.000 OA
ATOM     13  H   UNL     1      -0.668   9.412  16.922  0.00  0.00    +0.000 HD
ENDBRANCH  11  12
ENDBRANCH   3  10
ENDBRANCH   2   3
ENDBRANCH   1   2
BRANCH   1  14
ATOM     14  C   UNL     1       2.319   7.036  18.247  0.00  0.00    +0.000 C 
BRANCH  14  15
ATOM     15  C   UNL     1       3.233   6.273  19.163  0.00  0.00    +0.000 C 
ATOM     16  C   UNL     1       2.807   5.466  20.145  0.00  0.00    +0.000 C 
BRANCH  16  17
ATOM     17  C   UNL     1       1.351   5.258  20.433  0.00  0.00    +0.000 C 
BRANCH  17  18
ATOM     18  C   UNL     1       0.886   3.844  20.143  0.00  0.00    +0.000 C 
BRANCH  18  19
ATOM     19  C   UNL     1       1.205   3.495  18.694  0.00  0.00    +0.000 C 
BRANCH  19  20
ATOM     20  C   UNL     1       1.795   2.099  18.609  0.00  0.00    +0.000 C 
BRANCH  20  21
ATOM     21  C   UNL     1       3.203   2.147  18.035  0.00  0.00    +0.000 C 
BRANCH  21  22
ATOM     22  C   UNL     1       3.352   3.352  17.115  0.00  0.00    +0.000 C 
BRANCH  22  23
ATOM     23  C   UNL     1       4.810   3.786  17.032  0.00  0.00    +0.000 C 
BRANCH  23  24
ATOM     24  C   UNL     1       5.078   4.529  15.728  0.00  0.00    +0.000 C 
ATOM     25  C   UNL     1       5.157   6.027  15.966  0.00  0.00    +0.000 C 
ENDBRANCH  23  24
ENDBRANCH  22  23
ENDBRANCH  21  22
ENDBRANCH  20  21
ENDBRANCH  19  20
ENDBRANCH  18  19
ENDBRANCH  17  18
ENDBRANCH  16  17
ENDBRANCH  14  15
ENDBRANCH   1  14
TORSDOF 14
ENDMDL
MODEL 5
REMARK VINA RESULT:      -6.3      3.803      6.846
REMARK  Name = 
REMARK  15 active torsions:
REMARK  status: ('A' for Active; 'I' for Inactive)
REMARK    1  A    between atoms: C_7  and  C_8
REMARK    2  A    between atoms: C_8  and  C_9
REMARK    3  A    between atoms: C_9  and  C_10
REMARK    4  A    between atoms: C_10  and  C_11
REMARK    5  A    between atoms: C_11  and  C_12
REMARK    6  A    between atoms: C_13  and  C_14
REMARK    7  A    between atoms: C_14  and  C_15
REMARK    8  A    between atoms: C_15  and  C_16
REMARK    9  A    between atoms: C_16  and  C_17
REMARK   10  A    between atoms: C_17  and  C_18
REMARK   11  A    between atoms: C_18  and  C_19
REMARK   12  A    between atoms: C_19  and  C_20
REMARK   13  A    between atoms: C_20  and  C_21
REMARK   14  A    between atoms: C_21  and  C_22
REMARK   15  A    between atoms: C_23  and  O_24
REMARK                            x       y       z     vdW  Elec       q    Type
REMARK                         _______ _______ _______ _____ _____    ______ ____
ROOT
ATOM      1  C   UNL     1       2.061   2.209  18.894  0.00  0.00    +0.000 C 
ENDROOT
BRANCH   1   2
ATOM      2  C   UNL     1       2.722   2.510  17.548  0.00  0.00    +0.000 C 
BRANCH   2   3
ATOM      3  C   UNL     1       4.107   3.101  17.779  0.00  0.00    +0.000 C 
BRANCH   3  10
ATOM      4  C   UNL     1       8.148   6.862  18.669  0.00  0.00    +0.000 C 
ATOM      5  C   UNL     1       7.252   6.291  17.858  0.00  0.00    +0.000 C 
ATOM      6  O   UNL     1       6.902   6.870  16.636  0.00  0.00    +0.000 OA
ATOM      7  C   UNL     1       5.752   6.258  16.210  0.00  0.00    +0.000 C 
ATOM      8  O   UNL     1       5.094   6.607  15.237  0.00  0.00    +0.000 OA
ATOM      9  C   UNL     1       5.414   5.120  17.096  0.00  0.00    +0.000 C 
ATOM     10  C   UNL     1       4.377   4.288  16.901  0.00  0.00    +0.000 C 
ATOM     11  C   UNL     1       6.419   5.104  18.174  0.00  0.00    +0.000 C 
BRANCH  11  12
ATOM     12  O   UNL     1       5.798   5.266  19.442  0.00  0.00    +0.000 OA
ATOM     13  H   UNL     1       5.248   6.067  19.393  0.00  0.00    +0.000 HD
ENDBRANCH  11  12
ENDBRANCH   3  10
ENDBRANCH   2   3
ENDBRANCH   1   2
BRANCH   1  14
ATOM     14  C   UNL     1       2.798   2.930  20.012  0.00  0.00    +0.000 C 
BRANCH  14  15
ATOM     15  C   UNL     1       1.858   3.748  20.851  0.00  0.00    +0.000 C 
ATOM     16  C   UNL     1       1.436   4.977  20.521  0.00  0.00    +0.000 C 
BRANCH  16  17
ATOM     17  C   UNL     1       1.884   5.667  19.269  0.00  0.00    +0.000 C 
BRANCH  17  18
ATOM     18  C   UNL     1       2.431   7.058  19.522  0.00  0.00    +0.000 C 
BRANCH  18  19
ATOM     19  C   UNL     1       1.724   7.667  20.727  0.00  0.00    +0.000 C 
BRANCH  19  20
ATOM     20  C   UNL     1       0.919   8.883  20.303  0.00  0.00    +0.000 C 
BRANCH  20  21
ATOM     21  C   UNL     1       1.243   9.263  18.866  0.00  0.00    +0.000 C 
BRANCH  21  22
ATOM     22  C   UNL     1       0.362  10.423  18.421  0.00  0.00    +0.000 C 
BRANCH  22  23
ATOM     23  C   UNL     1      -0.987   9.914  17.931  0.00  0.00    +0.000 C 
BRANCH  23  24
ATOM     24  C   UNL     1      -1.840  11.064  17.407  0.00  0.00    +0.000 C 
ATOM     25  C   UNL     1      -2.898  11.459  18.422  0.00  0.00    +0.000 C 
ENDBRANCH  23  24
ENDBRANCH  22  23
ENDBRANCH  21  22
ENDBRANCH  20  21
ENDBRANCH  19  20
ENDBRANCH  18  19
ENDBRANCH  17  18
ENDBRANCH  16  17
ENDBRANCH  14  15
ENDBRANCH   1  14
TORSDOF 14
ENDMDL
MODEL 6
REMARK VINA RESULT:      -6.3      1.405      2.539
REMARK  Name = 
REMARK  15 active torsions:
REMARK  status: ('A' for Active; 'I' for Inactive)
REMARK    1  A    between atoms: C_7  and  C_8
REMARK    2  A    between atoms: C_8  and  C_9
REMARK    3  A    between atoms: C_9  and  C_10
REMARK    4  A    between atoms: C_10  and  C_11
REMARK    5  A    between atoms: C_11  and  C_12
REMARK    6  A    between atoms: C_13  and  C_14
REMARK    7  A    between atoms: C_14  and  C_15
REMARK    8  A    between atoms: C_15  and  C_16
REMARK    9  A    between atoms: C_16  and  C_17
REMARK   10  A    between atoms: C_17  and  C_18
REMARK   11  A    between atoms: C_18  and  C_19
REMARK   12  A    between atoms: C_19  and  C_20
REMARK   13  A    between atoms: C_20  and  C_21
REMARK   14  A    between atoms: C_21  and  C_22
REMARK   15  A    between atoms: C_23  and  O_24
REMARK                            x       y       z     vdW  Elec       q    Type
REMARK                         _______ _______ _______ _____ _____    ______ ____
ROOT
ATOM      1  C   UNL     1       6.503   6.641  17.969  0.00  0.00    +0.000 C 
ENDROOT
BRANCH   1   2
ATOM      2  C   UNL     1       7.646   7.345  17.237  0.00  0.00    +0.000 C 
BRANCH   2   3
ATOM      3  C   UNL     1       8.324   8.333  18.177  0.00  0.00    +0.000 C 
BRANCH   3  10
ATOM      4  C   UNL     1      10.947  12.739  20.407  0.00  0.00    +0.000 C 
ATOM      5  C   UNL     1      10.215  12.198  19.430  0.00  0.00    +0.000 C 
ATOM      6  O   UNL     1       9.567  12.990  18.480  0.00  0.00    +0.000 OA
ATOM      7  C   UNL     1       8.650  12.196  17.843  0.00  0.00    +0.000 C 
ATOM      8  O   UNL     1       7.816  12.596  17.039  0.00  0.00    +0.000 OA
ATOM      9  C   UNL     1       8.804  10.785  18.268  0.00  0.00    +0.000 C 
ATOM     10  C   UNL     1       8.090   9.760  17.775  0.00  0.00    +0.000 C 
ATOM     11  C   UNL     1       9.863  10.762  19.295  0.00  0.00    +0.000 C 
BRANCH  11  12
ATOM     12  O   UNL     1       9.358  10.263  20.526  0.00  0.00    +0.000 OA
ATOM     13  H   UNL     1       9.023  11.026  21.029  0.00  0.00    +0.000 HD
ENDBRANCH  11  12
ENDBRANCH   3  10
ENDBRANCH   2   3
ENDBRANCH   1   2
BRANCH   1  14
ATOM     14  C   UNL     1       6.851   5.179  18.203  0.00  0.00    +0.000 C 
BRANCH  14  15
ATOM     15  C   UNL     1       7.110   4.461  16.910  0.00  0.00    +0.000 C 
ATOM     16  C   UNL     1       6.146   4.073  16.063  0.00  0.00    +0.000 C 
BRANCH  16  17
ATOM     17  C   UNL     1       4.693   4.311  16.341  0.00  0.00    +0.000 C 
BRANCH  17  18
ATOM     18  C   UNL     1       4.111   3.324  17.334  0.00  0.00    +0.000 C 
BRANCH  18  19
ATOM     19  C   UNL     1       2.598   3.261  17.154  0.00  0.00    +0.000 C 
BRANCH  19  20
ATOM     20  C   UNL     1       1.933   4.391  17.921  0.00  0.00    +0.000 C 
BRANCH  20  21
ATOM     21  C   UNL     1       2.603   4.587  19.272  0.00  0.00    +0.000 C 
BRANCH  21  22
ATOM     22  C   UNL     1       3.037   6.038  19.434  0.00  0.00    +0.000 C 
BRANCH  22  23
ATOM     23  C   UNL     1       2.492   6.891  18.297  0.00  0.00    +0.000 C 
BRANCH  23  24
ATOM     24  C   UNL     1       2.176   8.301  18.783  0.00  0.00    +0.000 C 
ATOM     25  C   UNL     1       1.510   9.115  17.687  0.00  0.00    +0.000 C 
ENDBRANCH  23  24
ENDBRANCH  22  23
ENDBRANCH  21  22
ENDBRANCH  20  21
ENDBRANCH  19  20
ENDBRANCH  18  19
ENDBRANCH  17  18
ENDBRANCH  16  17
ENDBRANCH  14  15
ENDBRANCH   1  14
TORSDOF 14
ENDMDL
MODEL 7
REMARK VINA RESULT:      -6.1      4.043      9.940
REMARK  Name = 
REMARK  15 active torsions:
REMARK  status: ('A' for Active; 'I' for Inactive)
REMARK    1  A    between atoms: C_7  and  C_8
REMARK    2  A    between atoms: C_8  and  C_9
REMARK    3  A    between atoms: C_9  and  C_10
REMARK    4  A    between atoms: C_10  and  C_11
REMARK    5  A    between atoms: C_11  and  C_12
REMARK    6  A    between atoms: C_13  and  C_14
REMARK    7  A    between atoms: C_14  and  C_15
REMARK    8  A    between atoms: C_15  and  C_16
REMARK    9  A    between atoms: C_16  and  C_17
REMARK   10  A    between atoms: C_17  and  C_18
REMARK   11  A    between atoms: C_18  and  C_19
REMARK   12  A    between atoms: C_19  and  C_20
REMARK   13  A    between atoms: C_20  and  C_21
REMARK   14  A    between atoms: C_21  and  C_22
REMARK   15  A    between atoms: C_23  and  O_24
REMARK                            x       y       z     vdW  Elec       q    Type
REMARK                         _______ _______ _______ _____ _____    ______ ____
ROOT
ATOM      1  C   UNL     1       7.379   5.464  18.357  0.00  0.00    +0.000 C 
ENDROOT
BRANCH   1   2
ATOM      2  C   UNL     1       6.229   5.653  17.368  0.00  0.00    +0.000 C 
BRANCH   2   3
ATOM      3  C   UNL     1       5.672   4.294  16.965  0.00  0.00    +0.000 C 
BRANCH   3  10
ATOM      4  C   UNL     1       2.705   2.752  21.448  0.00  0.00    +0.000 C 
ATOM      5  C   UNL     1       2.780   3.351  20.256  0.00  0.00    +0.000 C 
ATOM      6  O   UNL     1       1.631   3.705  19.544  0.00  0.00    +0.000 OA
ATOM      7  C   UNL     1       2.016   3.974  18.257  0.00  0.00    +0.000 C 
ATOM      8  O   UNL     1       1.247   4.191  17.328  0.00  0.00    +0.000 OA
ATOM      9  C   UNL     1       3.493   3.960  18.145  0.00  0.00    +0.000 C 
ATOM     10  C   UNL     1       4.173   4.247  17.023  0.00  0.00    +0.000 C 
ATOM     11  C   UNL     1       4.018   3.583  19.471  0.00  0.00    +0.000 C 
BRANCH  11  12
ATOM     12  O   UNL     1       4.778   2.386  19.389  0.00  0.00    +0.000 OA
ATOM     13  H   UNL     1       5.134   2.332  18.485  0.00  0.00    +0.000 HD
ENDBRANCH  11  12
ENDBRANCH   3  10
ENDBRANCH   2   3
ENDBRANCH   1   2
BRANCH   1  14
ATOM     14  C   UNL     1       8.061   6.797  18.629  0.00  0.00    +0.000 C 
BRANCH  14  15
ATOM     15  C   UNL     1       7.685   7.826  17.600  0.00  0.00    +0.000 C 
ATOM     16  C   UNL     1       8.036   9.118  17.670  0.00  0.00    +0.000 C 
BRANCH  16  17
ATOM     17  C   UNL     1       8.838   9.668  18.810  0.00  0.00    +0.000 C 
BRANCH  17  18
ATOM     18  C   UNL     1       9.786  10.773  18.388  0.00  0.00    +0.000 C 
BRANCH  18  19
ATOM     19  C   UNL     1       9.386  12.072  19.079  0.00  0.00    +0.000 C 
BRANCH  19  20
ATOM     20  C   UNL     1       8.710  13.004  18.090  0.00  0.00    +0.000 C 
BRANCH  20  21
ATOM     21  C   UNL     1       9.291  14.406  18.195  0.00  0.00    +0.000 C 
BRANCH  21  22
ATOM     22  C   UNL     1      10.445  14.422  19.189  0.00  0.00    +0.000 C 
BRANCH  22  23
ATOM     23  C   UNL     1      10.796  15.851  19.581  0.00  0.00    +0.000 C 
BRANCH  23  24
ATOM     24  C   UNL     1      10.275  16.172  20.977  0.00  0.00    +0.000 C 
ATOM     25  C   UNL     1      10.193  14.915  21.826  0.00  0.00    +0.000 C 
ENDBRANCH  23  24
ENDBRANCH  22  23
ENDBRANCH  21  22
ENDBRANCH  20  21
ENDBRANCH  19  20
ENDBRANCH  18  19
ENDBRANCH  17  18
ENDBRANCH  16  17
ENDBRANCH  14  15
ENDBRANCH   1  14
TORSDOF 14
ENDMDL
MODEL 8
REMARK VINA RESULT:      -6.1      4.428      7.343
REMARK  Name = 
REMARK  15 active torsions:
REMARK  status: ('A' for Active; 'I' for Inactive)
REMARK    1  A    between atoms: C_7  and  C_8
REMARK    2  A    between atoms: C_8  and  C_9
REMARK    3  A    between atoms: C_9  and  C_10
REMARK    4  A    between atoms: C_10  and  C_11
REMARK    5  A    between atoms: C_11  and  C_12
REMARK    6  A    between atoms: C_13  and  C_14
REMARK    7  A    between atoms: C_14  and  C_15
REMARK    8  A    between atoms: C_15  and  C_16
REMARK    9  A    between atoms: C_16  and  C_17
REMARK   10  A    between atoms: C_17  and  C_18
REMARK   11  A    between atoms: C_18  and  C_19
REMARK   12  A    between atoms: C_19  and  C_20
REMARK   13  A    between atoms: C_20  and  C_21
REMARK   14  A    between atoms: C_21  and  C_22
REMARK   15  A    between atoms: C_23  and  O_24
REMARK                            x       y       z     vdW  Elec       q    Type
REMARK                         _______ _______ _______ _____ _____    ______ ____
ROOT
ATOM      1  C   UNL     1       2.185   7.309  19.830  0.00  0.00    +0.000 C 
ENDROOT
BRANCH   1   2
ATOM      2  C   UNL     1       2.598   7.588  18.384  0.00  0.00    +0.000 C 
BRANCH   2   3
ATOM      3  C   UNL     1       1.623   8.574  17.754  0.00  0.00    +0.000 C 
BRANCH   3  10
ATOM      4  C   UNL     1      -2.542  12.036  19.147  0.00  0.00    +0.000 C 
ATOM      5  C   UNL     1      -1.250  11.698  19.192  0.00  0.00    +0.000 C 
ATOM      6  O   UNL     1      -0.277  12.595  19.638  0.00  0.00    +0.000 OA
ATOM      7  C   UNL     1       0.942  12.099  19.255  0.00  0.00    +0.000 C 
ATOM      8  O   UNL     1       2.006  12.694  19.369  0.00  0.00    +0.000 OA
ATOM      9  C   UNL     1       0.789  10.742  18.678  0.00  0.00    +0.000 C 
ATOM     10  C   UNL     1       1.810   9.972  18.267  0.00  0.00    +0.000 C 
ATOM     11  C   UNL     1      -0.655  10.445  18.661  0.00  0.00    +0.000 C 
BRANCH  11  12
ATOM     12  O   UNL     1      -1.106  10.214  17.333  0.00  0.00    +0.000 OA
ATOM     13  H   UNL     1      -2.039  10.485  17.295  0.00  0.00    +0.000 HD
ENDBRANCH  11  12
ENDBRANCH   3  10
ENDBRANCH   2   3
ENDBRANCH   1   2
BRANCH   1  14
ATOM     14  C   UNL     1       2.493   5.864  20.193  0.00  0.00    +0.000 C 
BRANCH  14  15
ATOM     15  C   UNL     1       1.239   5.042  20.288  0.00  0.00    +0.000 C 
ATOM     16  C   UNL     1       1.198   3.791  20.769  0.00  0.00    +0.000 C 
BRANCH  16  17
ATOM     17  C   UNL     1       2.425   3.080  21.252  0.00  0.00    +0.000 C 
BRANCH  17  18
ATOM     18  C   UNL     1       3.284   2.546  20.122  0.00  0.00    +0.000 C 
BRANCH  18  19
ATOM     19  C   UNL     1       2.384   2.009  19.015  0.00  0.00    +0.000 C 
BRANCH  19  20
ATOM     20  C   UNL     1       2.774   2.620  17.680  0.00  0.00    +0.000 C 
BRANCH  20  21
ATOM     21  C   UNL     1       4.156   3.249  17.765  0.00  0.00    +0.000 C 
BRANCH  21  22
ATOM     22  C   UNL     1       4.178   4.569  17.005  0.00  0.00    +0.000 C 
BRANCH  22  23
ATOM     23  C   UNL     1       5.299   5.464  17.517  0.00  0.00    +0.000 C 
BRANCH  23  24
ATOM     24  C   UNL     1       6.501   4.630  17.947  0.00  0.00    +0.000 C 
ATOM     25  C   UNL     1       7.581   5.510  18.551  0.00  0.00    +0.000 C 
ENDBRANCH  23  24
ENDBRANCH  22  23
ENDBRANCH  21  22
ENDBRANCH  20  21
ENDBRANCH  19  20
ENDBRANCH  18  19
ENDBRANCH  17  18
ENDBRANCH  16  17
ENDBRANCH  14  15
ENDBRANCH   1  14
TORSDOF 14
ENDMDL
MODEL 9
REMARK VINA RESULT:      -6.1      3.437      6.626
REMARK  Name = 
REMARK  15 active torsions:
REMARK  status: ('A' for Active; 'I' for Inactive)
REMARK    1  A    between atoms: C_7  and  C_8
REMARK    2  A    between atoms: C_8  and  C_9
REMARK    3  A    between atoms: C_9  and  C_10
REMARK    4  A    between atoms: C_10  and  C_11
REMARK    5  A    between atoms: C_11  and  C_12
REMARK    6  A    between atoms: C_13  and  C_14
REMARK    7  A    between atoms: C_14  and  C_15
REMARK    8  A    between atoms: C_15  and  C_16
REMARK    9  A    between atoms: C_16  and  C_17
REMARK   10  A    between atoms: C_17  and  C_18
REMARK   11  A    between atoms: C_18  and  C_19
REMARK   12  A    between atoms: C_19  and  C_20
REMARK   13  A    between atoms: C_20  and  C_21
REMARK   14  A    between atoms: C_21  and  C_22
REMARK   15  A    between atoms: C_23  and  O_24
REMARK                            x       y       z     vdW  Elec       q    Type
REMARK                         _______ _______ _______ _____ _____    ______ ____
ROOT
ATOM      1  C   UNL     1       2.430   2.092  18.089  0.00  0.00    +0.000 C 
ENDROOT
BRANCH   1   2
ATOM      2  C   UNL     1       3.789   2.314  18.753  0.00  0.00    +0.000 C 
BRANCH   2   3
ATOM      3  C   UNL     1       4.418   3.594  18.219  0.00  0.00    +0.000 C 
BRANCH   3  10
ATOM      4  C   UNL     1       7.775   7.867  16.899  0.00  0.00    +0.000 C 
ATOM      5  C   UNL     1       7.306   6.994  17.795  0.00  0.00    +0.000 C 
ATOM      6  O   UNL     1       7.940   6.799  19.023  0.00  0.00    +0.000 OA
ATOM      7  C   UNL     1       7.445   5.639  19.558  0.00  0.00    +0.000 C 
ATOM      8  O   UNL     1       7.873   5.097  20.570  0.00  0.00    +0.000 OA
ATOM      9  C   UNL     1       6.323   5.128  18.736  0.00  0.00    +0.000 C 
ATOM     10  C   UNL     1       5.594   4.041  19.037  0.00  0.00    +0.000 C 
ATOM     11  C   UNL     1       6.193   6.035  17.581  0.00  0.00    +0.000 C 
BRANCH  11  12
ATOM     12  O   UNL     1       6.383   5.328  16.363  0.00  0.00    +0.000 OA
ATOM     13  H   UNL     1       5.944   4.466  16.460  0.00  0.00    +0.000 HD
ENDBRANCH  11  12
ENDBRANCH   3  10
ENDBRANCH   2   3
ENDBRANCH   1   2
BRANCH   1  14
ATOM     14  C   UNL     1       1.311   2.468  19.049  0.00  0.00    +0.000 C 
BRANCH  14  15
ATOM     15  C   UNL     1       1.813   2.585  20.460  0.00  0.00    +0.000 C 
ATOM     16  C   UNL     1       1.839   3.733  21.152  0.00  0.00    +0.000 C 
BRANCH  16  17
ATOM     17  C   UNL     1       1.376   5.031  20.566  0.00  0.00    +0.000 C 
BRANCH  17  18
ATOM     18  C   UNL     1       2.508   5.859  19.989  0.00  0.00    +0.000 C 
BRANCH  18  19
ATOM     19  C   UNL     1       2.121   6.342  18.596  0.00  0.00    +0.000 C 
BRANCH  19  20
ATOM     20  C   UNL     1       3.109   7.388  18.111  0.00  0.00    +0.000 C 
BRANCH  20  21
ATOM     21  C   UNL     1       2.376   8.619  17.599  0.00  0.00    +0.000 C 
BRANCH  21  22
ATOM     22  C   UNL     1       1.523   9.219  18.709  0.00  0.00    +0.000 C 
BRANCH  22  23
ATOM     23  C   UNL     1       0.183   9.691  18.158  0.00  0.00    +0.000 C 
BRANCH  23  24
ATOM     24  C   UNL     1      -0.160  11.078  18.689  0.00  0.00    +0.000 C 
ATOM     25  C   UNL     1      -1.353  11.019  19.626  0.00  0.00    +0.000 C 
ENDBRANCH  23  24
ENDBRANCH  22  23
ENDBRANCH  21  22
ENDBRANCH  20  21
ENDBRANCH  19  20
ENDBRANCH  18  19
ENDBRANCH  17  18
ENDBRANCH  16  17
ENDBRANCH  14  15
ENDBRANCH   1  14
TORSDOF 14
ENDMDL
