MODEL 1
REMARK VINA RESULT:      -7.3      0.000      0.000
REMARK  Name = 
REMARK  2 active torsions:
REMARK  status: ('A' for Active; 'I' for Inactive)
REMARK    1  A    between atoms: C_1  and  C_2
REMARK    2  A    between atoms: C_3  and  N_4
REMARK                            x       y       z     vdW  Elec       q    Type
REMARK                         _______ _______ _______ _____ _____    ______ ____
ROOT
ATOM      1  C   UNL     1       4.493   5.945  17.036  0.00  0.00    +0.000 C 
ATOM      2  C   UNL     1       3.584   5.979  18.242  0.00  0.00    +0.000 A 
ATOM      3  C   UNL     1       3.515   4.927  19.170  0.00  0.00    +0.000 A 
ATOM      4  C   UNL     1       2.736   5.018  20.325  0.00  0.00    +0.000 A 
ATOM      5  C   UNL     1       2.014   6.187  20.567  0.00  0.00    +0.000 A 
ATOM      6  C   UNL     1       2.030   7.255  19.683  0.00  0.00    +0.000 A 
ATOM      7  N   UNL     1       1.329   8.359  20.004  0.00  0.00    +0.000 NA
ATOM      8  C   UNL     1       1.286   9.396  19.143  0.00  0.00    +0.000 A 
ATOM      9  N   UNL     1       0.689  10.578  19.510  0.00  0.00    +0.000 N 
ATOM     10  C   UNL     1       0.625  10.957  20.919  0.00  0.00    +0.000 C 
ATOM     11  C   UNL     1       0.790  12.498  20.986  0.00  0.00    +0.000 C 
ATOM     12  N   UNL     1      -0.199  13.241  20.171  0.00  0.00    +0.000 NA
ATOM     13  C   UNL     1      -0.206  12.730  18.783  0.00  0.00    +0.000 C 
ATOM     14  C   UNL     1      -0.347  11.193  18.679  0.00  0.00    +0.000 C 
ATOM     15  C   UNL     1       1.952   9.337  17.927  0.00  0.00    +0.000 A 
ATOM     16  C   UNL     1       2.721   8.224  17.614  0.00  0.00    +0.000 A 
ATOM     17  C   UNL     1       2.793   7.138  18.496  0.00  0.00    +0.000 A 
ATOM     18  H   UNL     1       0.066  14.226  20.156  0.00  0.00    +0.000 HD
ENDROOT
BRANCH   3  19
ATOM     19  N   UNL     1       4.246   3.684  18.967  0.00  0.00    +0.000 N 
ATOM     20  O   UNL     1       5.383   3.612  19.446  0.00  0.00    +0.000 OA
ATOM     21  O   UNL     1       3.680   2.802  18.309  0.00  0.00    +0.000 OA
ENDBRANCH   3  19
TORSDOF 1
ENDMDL
MODEL 2
REMARK VINA RESULT:      -7.2      3.622      7.200
REMARK  Name = 
REMARK  2 active torsions:
REMARK  status: ('A' for Active; 'I' for Inactive)
REMARK    1  A    between atoms: C_1  and  C_2
REMARK    2  A    between atoms: C_3  and  N_4
REMARK                            x       y       z     vdW  Elec       q    Type
REMARK                         _______ _______ _______ _____ _____    ______ ____
ROOT
ATOM      1  C   UNL     1       0.600   9.223  22.363  0.00  0.00    +0.000 C 
ATOM      2  C   UNL     1       0.911   9.419  20.898  0.00  0.00    +0.000 A 
ATOM      3  C   UNL     1       0.719  10.643  20.238  0.00  0.00    +0.000 A 
ATOM      4  C   UNL     1       1.097  10.826  18.906  0.00  0.00    +0.000 A 
ATOM      5  C   UNL     1       1.688   9.768  18.217  0.00  0.00    +0.000 A 
ATOM      6  C   UNL     1       1.894   8.531  18.808  0.00  0.00    +0.000 A 
ATOM      7  N   UNL     1       2.497   7.570  18.084  0.00  0.00    +0.000 NA
ATOM      8  C   UNL     1       2.667   6.342  18.614  0.00  0.00    +0.000 A 
ATOM      9  N   UNL     1       3.398   5.391  17.942  0.00  0.00    +0.000 N 
ATOM     10  C   UNL     1       4.446   5.799  17.010  0.00  0.00    +0.000 C 
ATOM     11  C   UNL     1       5.591   4.759  17.125  0.00  0.00    +0.000 C 
ATOM     12  N   UNL     1       5.156   3.363  16.888  0.00  0.00    +0.000 NA
ATOM     13  C   UNL     1       4.000   3.032  17.749  0.00  0.00    +0.000 C 
ATOM     14  C   UNL     1       2.847   4.062  17.675  0.00  0.00    +0.000 C 
ATOM     15  C   UNL     1       2.223   6.054  19.896  0.00  0.00    +0.000 A 
ATOM     16  C   UNL     1       1.648   7.055  20.668  0.00  0.00    +0.000 A 
ATOM     17  C   UNL     1       1.471   8.343  20.147  0.00  0.00    +0.000 A 
ATOM     18  H   UNL     1       5.928   2.738  17.121  0.00  0.00    +0.000 HD
ENDROOT
BRANCH   3  19
ATOM     19  N   UNL     1       0.105  11.780  20.908  0.00  0.00    +0.000 N 
ATOM     20  O   UNL     1       0.857  12.558  21.507  0.00  0.00    +0.000 OA
ATOM     21  O   UNL     1      -1.128  11.869  20.847  0.00  0.00    +0.000 OA
ENDBRANCH   3  19
TORSDOF 1
ENDMDL
MODEL 3
REMARK VINA RESULT:      -7.2      1.213      1.601
REMARK  Name = 
REMARK  2 active torsions:
REMARK  status: ('A' for Active; 'I' for Inactive)
REMARK    1  A    between atoms: C_1  and  C_2
REMARK    2  A    between atoms: C_3  and  N_4
REMARK                            x       y       z     vdW  Elec       q    Type
REMARK                         _______ _______ _______ _____ _____    ______ ____
ROOT
ATOM      1  C   UNL     1       4.976   4.432  17.775  0.00  0.00    +0.000 C 
ATOM      2  C   UNL     1       3.867   4.546  18.794  0.00  0.00    +0.000 A 
ATOM      3  C   UNL     1       3.545   3.510  19.685  0.00  0.00    +0.000 A 
ATOM      4  C   UNL     1       2.576   3.670  20.678  0.00  0.00    +0.000 A 
ATOM      5  C   UNL     1       1.918   4.894  20.793  0.00  0.00    +0.000 A 
ATOM      6  C   UNL     1       2.182   5.953  19.937  0.00  0.00    +0.000 A 
ATOM      7  N   UNL     1       1.525   7.111  20.132  0.00  0.00    +0.000 NA
ATOM      8  C   UNL     1       1.724   8.143  19.287  0.00  0.00    +0.000 A 
ATOM      9  N   UNL     1       1.166   9.371  19.548  0.00  0.00    +0.000 N 
ATOM     10  C   UNL     1       0.874   9.763  20.925  0.00  0.00    +0.000 C 
ATOM     11  C   UNL     1       1.146  11.286  21.034  0.00  0.00    +0.000 C 
ATOM     12  N   UNL     1       0.387  12.101  20.057  0.00  0.00    +0.000 NA
ATOM     13  C   UNL     1       0.594  11.584  18.687  0.00  0.00    +0.000 C 
ATOM     14  C   UNL     1       0.352  10.062  18.546  0.00  0.00    +0.000 C 
ATOM     15  C   UNL     1       2.594   8.023  18.213  0.00  0.00    +0.000 A 
ATOM     16  C   UNL     1       3.316   6.850  18.037  0.00  0.00    +0.000 A 
ATOM     17  C   UNL     1       3.138   5.767  18.908  0.00  0.00    +0.000 A 
ATOM     18  H   UNL     1       0.728  13.061  20.100  0.00  0.00    +0.000 HD
ENDROOT
BRANCH   3  19
ATOM     19  N   UNL     1       4.198   2.211  19.609  0.00  0.00    +0.000 N 
ATOM     20  O   UNL     1       3.779   1.415  18.762  0.00  0.00    +0.000 OA
ATOM     21  O   UNL     1       5.112   1.995  20.416  0.00  0.00    +0.000 OA
ENDBRANCH   3  19
TORSDOF 1
ENDMDL
MODEL 4
REMARK VINA RESULT:      -7.1      3.615      7.045
REMARK  Name = 
REMARK  2 active torsions:
REMARK  status: ('A' for Active; 'I' for Inactive)
REMARK    1  A    between atoms: C_1  and  C_2
REMARK    2  A    between atoms: C_3  and  N_4
REMARK                            x       y       z     vdW  Elec       q    Type
REMARK                         _______ _______ _______ _____ _____    ______ ____
ROOT
ATOM      1  C   UNL     1       1.609  10.633  18.144  0.00  0.00    +0.000 C 
ATOM      2  C   UNL     1       1.471   9.756  19.366  0.00  0.00    +0.000 A 
ATOM      3  C   UNL     1       0.942  10.224  20.580  0.00  0.00    +0.000 A 
ATOM      4  C   UNL     1       0.739   9.374  21.669  0.00  0.00    +0.000 A 
ATOM      5  C   UNL     1       1.062   8.023  21.544  0.00  0.00    +0.000 A 
ATOM      6  C   UNL     1       1.599   7.501  20.376  0.00  0.00    +0.000 A 
ATOM      7  N   UNL     1       1.856   6.181  20.326  0.00  0.00    +0.000 NA
ATOM      8  C   UNL     1       2.423   5.652  19.223  0.00  0.00    +0.000 A 
ATOM      9  N   UNL     1       2.569   4.291  19.102  0.00  0.00    +0.000 N 
ATOM     10  C   UNL     1       1.654   3.394  19.803  0.00  0.00    +0.000 C 
ATOM     11  C   UNL     1       1.423   2.167  18.882  0.00  0.00    +0.000 C 
ATOM     12  N   UNL     1       2.671   1.477  18.480  0.00  0.00    +0.000 NA
ATOM     13  C   UNL     1       3.630   2.446  17.905  0.00  0.00    +0.000 C 
ATOM     14  C   UNL     1       3.868   3.694  18.788  0.00  0.00    +0.000 C 
ATOM     15  C   UNL     1       2.749   6.454  18.139  0.00  0.00    +0.000 A 
ATOM     16  C   UNL     1       2.437   7.808  18.162  0.00  0.00    +0.000 A 
ATOM     17  C   UNL     1       1.837   8.380  19.291  0.00  0.00    +0.000 A 
ATOM     18  H   UNL     1       2.444   0.780  17.771  0.00  0.00    +0.000 HD
ENDROOT
BRANCH   3  19
ATOM     19  N   UNL     1       0.590  11.625  20.767  0.00  0.00    +0.000 N 
ATOM     20  O   UNL     1       1.473  12.380  21.187  0.00  0.00    +0.000 OA
ATOM     21  O   UNL     1      -0.578  11.948  20.511  0.00  0.00    +0.000 OA
ENDBRANCH   3  19
TORSDOF 1
ENDMDL
MODEL 5
REMARK VINA RESULT:      -7.1      0.965      2.417
REMARK  Name = 
REMARK  2 active torsions:
REMARK  status: ('A' for Active; 'I' for Inactive)
REMARK    1  A    between atoms: C_1  and  C_2
REMARK    2  A    between atoms: C_3  and  N_4
REMARK                            x       y       z     vdW  Elec       q    Type
REMARK                         _______ _______ _______ _____ _____    ______ ____
ROOT
ATOM      1  C   UNL     1       2.404   4.380  20.958  0.00  0.00    +0.000 C 
ATOM      2  C   UNL     1       2.758   5.383  19.886  0.00  0.00    +0.000 A 
ATOM      3  C   UNL     1       3.585   5.068  18.795  0.00  0.00    +0.000 A 
ATOM      4  C   UNL     1       3.824   5.984  17.768  0.00  0.00    +0.000 A 
ATOM      5  C   UNL     1       3.220   7.240  17.824  0.00  0.00    +0.000 A 
ATOM      6  C   UNL     1       2.404   7.615  18.879  0.00  0.00    +0.000 A 
ATOM      7  N   UNL     1       1.835   8.835  18.844  0.00  0.00    +0.000 NA
ATOM      8  C   UNL     1       1.075   9.248  19.878  0.00  0.00    +0.000 A 
ATOM      9  N   UNL     1       0.380  10.431  19.800  0.00  0.00    +0.000 N 
ATOM     10  C   UNL     1      -0.033  10.951  18.499  0.00  0.00    +0.000 C 
ATOM     11  C   UNL     1      -1.413  11.630  18.695  0.00  0.00    +0.000 C 
ATOM     12  N   UNL     1      -1.418  12.685  19.736  0.00  0.00    +0.000 NA
ATOM     13  C   UNL     1      -0.858  12.160  21.000  0.00  0.00    +0.000 C 
ATOM     14  C   UNL     1       0.510  11.456  20.837  0.00  0.00    +0.000 C 
ATOM     15  C   UNL     1       0.876   8.433  20.983  0.00  0.00    +0.000 A 
ATOM     16  C   UNL     1       1.415   7.153  21.002  0.00  0.00    +0.000 A 
ATOM     17  C   UNL     1       2.197   6.694  19.935  0.00  0.00    +0.000 A 
ATOM     18  H   UNL     1      -2.381  12.976  19.900  0.00  0.00    +0.000 HD
ENDROOT
BRANCH   3  19
ATOM     19  N   UNL     1       4.241   3.774  18.687  0.00  0.00    +0.000 N 
ATOM     20  O   UNL     1       3.692   2.917  17.985  0.00  0.00    +0.000 OA
ATOM     21  O   UNL     1       5.290   3.622  19.327  0.00  0.00    +0.000 OA
ENDBRANCH   3  19
TORSDOF 1
ENDMDL
MODEL 6
REMARK VINA RESULT:      -7.0      3.689      7.281
REMARK  Name = 
REMARK  2 active torsions:
REMARK  status: ('A' for Active; 'I' for Inactive)
REMARK    1  A    between atoms: C_1  and  C_2
REMARK    2  A    between atoms: C_3  and  N_4
REMARK                            x       y       z     vdW  Elec       q    Type
REMARK                         _______ _______ _______ _____ _____    ______ ____
ROOT
ATOM      1  C   UNL     1      -0.228   9.877  22.123  0.00  0.00    +0.000 C 
ATOM      2  C   UNL     1       0.346   9.822  20.727  0.00  0.00    +0.000 A 
ATOM      3  C   UNL     1       0.235  10.888  19.818  0.00  0.00    +0.000 A 
ATOM      4  C   UNL     1       0.851  10.851  18.565  0.00  0.00    +0.000 A 
ATOM      5  C   UNL     1       1.603   9.731  18.211  0.00  0.00    +0.000 A 
ATOM      6  C   UNL     1       1.741   8.642  19.059  0.00  0.00    +0.000 A 
ATOM      7  N   UNL     1       2.507   7.612  18.654  0.00  0.00    +0.000 NA
ATOM      8  C   UNL     1       2.622   6.518  19.434  0.00  0.00    +0.000 A 
ATOM      9  N   UNL     1       3.504   5.517  19.101  0.00  0.00    +0.000 N 
ATOM     10  C   UNL     1       4.691   5.825  18.309  0.00  0.00    +0.000 C 
ATOM     11  C   UNL     1       5.834   4.912  18.827  0.00  0.00    +0.000 C 
ATOM     12  N   UNL     1       5.507   3.467  18.792  0.00  0.00    +0.000 NA
ATOM     13  C   UNL     1       4.223   3.215  19.480  0.00  0.00    +0.000 C 
ATOM     14  C   UNL     1       3.065   4.124  19.003  0.00  0.00    +0.000 C 
ATOM     15  C   UNL     1       1.954   6.438  20.648  0.00  0.00    +0.000 A 
ATOM     16  C   UNL     1       1.206   7.519  21.096  0.00  0.00    +0.000 A 
ATOM     17  C   UNL     1       1.080   8.672  20.311  0.00  0.00    +0.000 A 
ATOM     18  H   UNL     1       6.245   2.955  19.276  0.00  0.00    +0.000 HD
ENDROOT
BRANCH   3  19
ATOM     19  N   UNL     1      -0.539  12.079  20.135  0.00  0.00    +0.000 N 
ATOM     20  O   UNL     1       0.066  13.026  20.650  0.00  0.00    +0.000 OA
ATOM     21  O   UNL     1      -1.751  12.045  19.884  0.00  0.00    +0.000 OA
ENDBRANCH   3  19
TORSDOF 1
ENDMDL
MODEL 7
REMARK VINA RESULT:      -7.0      3.645      7.016
REMARK  Name = 
REMARK  2 active torsions:
REMARK  status: ('A' for Active; 'I' for Inactive)
REMARK    1  A    between atoms: C_1  and  C_2
REMARK    2  A    between atoms: C_3  and  N_4
REMARK                            x       y       z     vdW  Elec       q    Type
REMARK                         _______ _______ _______ _____ _____    ______ ____
ROOT
ATOM      1  C   UNL     1       0.411  11.331  18.574  0.00  0.00    +0.000 C 
ATOM      2  C   UNL     1       0.717  10.318  19.652  0.00  0.00    +0.000 A 
ATOM      3  C   UNL     1       0.256  10.451  20.972  0.00  0.00    +0.000 A 
ATOM      4  C   UNL     1       0.475   9.458  21.929  0.00  0.00    +0.000 A 
ATOM      5  C   UNL     1       1.162   8.301  21.563  0.00  0.00    +0.000 A 
ATOM      6  C   UNL     1       1.653   8.115  20.279  0.00  0.00    +0.000 A 
ATOM      7  N   UNL     1       2.280   6.957  19.998  0.00  0.00    +0.000 NA
ATOM      8  C   UNL     1       2.810   6.766  18.773  0.00  0.00    +0.000 A 
ATOM      9  N   UNL     1       3.334   5.543  18.427  0.00  0.00    +0.000 N 
ATOM     10  C   UNL     1       2.838   4.329  19.069  0.00  0.00    +0.000 C 
ATOM     11  C   UNL     1       2.849   3.208  17.997  0.00  0.00    +0.000 C 
ATOM     12  N   UNL     1       4.174   2.996  17.366  0.00  0.00    +0.000 NA
ATOM     13  C   UNL     1       4.708   4.277  16.855  0.00  0.00    +0.000 C 
ATOM     14  C   UNL     1       4.691   5.425  17.893  0.00  0.00    +0.000 C 
ATOM     15  C   UNL     1       2.724   7.751  17.800  0.00  0.00    +0.000 A 
ATOM     16  C   UNL     1       2.032   8.926  18.066  0.00  0.00    +0.000 A 
ATOM     17  C   UNL     1       1.460   9.145  19.326  0.00  0.00    +0.000 A 
ATOM     18  H   UNL     1       4.062   2.352  16.584  0.00  0.00    +0.000 HD
ENDROOT
BRANCH   3  19
ATOM     19  N   UNL     1      -0.464  11.638  21.410  0.00  0.00    +0.000 N 
ATOM     20  O   UNL     1      -1.682  11.670  21.202  0.00  0.00    +0.000 OA
ATOM     21  O   UNL     1       0.204  12.537  21.937  0.00  0.00    +0.000 OA
ENDBRANCH   3  19
TORSDOF 1
ENDMDL
MODEL 8
REMARK VINA RESULT:      -6.8      4.262      7.659
REMARK  Name = 
REMARK  2 active torsions:
REMARK  status: ('A' for Active; 'I' for Inactive)
REMARK    1  A    between atoms: C_1  and  C_2
REMARK    2  A    between atoms: C_3  and  N_4
REMARK                            x       y       z     vdW  Elec       q    Type
REMARK                         _______ _______ _______ _____ _____    ______ ____
ROOT
ATOM      1  C   UNL     1       2.559   6.589  19.174  0.00  0.00    +0.000 C 
ATOM      2  C   UNL     1       3.052   5.211  18.802  0.00  0.00    +0.000 A 
ATOM      3  C   UNL     1       2.631   4.048  19.469  0.00  0.00    +0.000 A 
ATOM      4  C   UNL     1       3.030   2.777  19.050  0.00  0.00    +0.000 A 
ATOM      5  C   UNL     1       3.861   2.659  17.936  0.00  0.00    +0.000 A 
ATOM      6  C   UNL     1       4.321   3.768  17.243  0.00  0.00    +0.000 A 
ATOM      7  N   UNL     1       5.097   3.568  16.161  0.00  0.00    +0.000 NA
ATOM      8  C   UNL     1       5.599   4.626  15.494  0.00  0.00    +0.000 A 
ATOM      9  N   UNL     1       6.279   4.444  14.313  0.00  0.00    +0.000 N 
ATOM     10  C   UNL     1       5.991   3.282  13.477  0.00  0.00    +0.000 C 
ATOM     11  C   UNL     1       6.120   3.739  12.000  0.00  0.00    +0.000 C 
ATOM     12  N   UNL     1       7.434   4.340  11.673  0.00  0.00    +0.000 NA
ATOM     13  C   UNL     1       7.757   5.419  12.632  0.00  0.00    +0.000 C 
ATOM     14  C   UNL     1       7.617   5.004  14.116  0.00  0.00    +0.000 C 
ATOM     15  C   UNL     1       5.332   5.921  15.913  0.00  0.00    +0.000 A 
ATOM     16  C   UNL     1       4.488   6.136  16.996  0.00  0.00    +0.000 A 
ATOM     17  C   UNL     1       3.942   5.055  17.698  0.00  0.00    +0.000 A 
ATOM     18  H   UNL     1       7.385   4.738  10.736  0.00  0.00    +0.000 HD
ENDROOT
BRANCH   3  19
ATOM     19  N   UNL     1       1.765   4.114  20.637  0.00  0.00    +0.000 N 
ATOM     20  O   UNL     1       0.549   4.197  20.436  0.00  0.00    +0.000 OA
ATOM     21  O   UNL     1       2.317   4.104  21.745  0.00  0.00    +0.000 OA
ENDBRANCH   3  19
TORSDOF 1
ENDMDL
MODEL 9
REMARK VINA RESULT:      -6.7      2.036      3.179
REMARK  Name = 
REMARK  2 active torsions:
REMARK  status: ('A' for Active; 'I' for Inactive)
REMARK    1  A    between atoms: C_1  and  C_2
REMARK    2  A    between atoms: C_3  and  N_4
REMARK                            x       y       z     vdW  Elec       q    Type
REMARK                         _______ _______ _______ _____ _____    ______ ____
ROOT
ATOM      1  C   UNL     1       4.685   3.662  18.623  0.00  0.00    +0.000 C 
ATOM      2  C   UNL     1       4.733   4.986  17.898  0.00  0.00    +0.000 A 
ATOM      3  C   UNL     1       5.565   5.214  16.790  0.00  0.00    +0.000 A 
ATOM      4  C   UNL     1       5.528   6.416  16.080  0.00  0.00    +0.000 A 
ATOM      5  C   UNL     1       4.636   7.411  16.476  0.00  0.00    +0.000 A 
ATOM      6  C   UNL     1       3.796   7.252  17.568  0.00  0.00    +0.000 A 
ATOM      7  N   UNL     1       2.943   8.249  17.868  0.00  0.00    +0.000 NA
ATOM      8  C   UNL     1       2.149   8.145  18.953  0.00  0.00    +0.000 A 
ATOM      9  N   UNL     1       1.181   9.089  19.197  0.00  0.00    +0.000 N 
ATOM     10  C   UNL     1       0.598   9.841  18.089  0.00  0.00    +0.000 C 
ATOM     11  C   UNL     1      -0.898  10.069  18.429  0.00  0.00    +0.000 C 
ATOM     12  N   UNL     1      -1.120  10.745  19.730  0.00  0.00    +0.000 NA
ATOM     13  C   UNL     1      -0.395  10.035  20.806  0.00  0.00    +0.000 C 
ATOM     14  C   UNL     1       1.097   9.770  20.490  0.00  0.00    +0.000 C 
ATOM     15  C   UNL     1       2.204   7.024  19.768  0.00  0.00    +0.000 A 
ATOM     16  C   UNL     1       3.043   5.968  19.434  0.00  0.00    +0.000 A 
ATOM     17  C   UNL     1       3.869   6.045  18.306  0.00  0.00    +0.000 A 
ATOM     18  H   UNL     1      -2.117  10.727  19.939  0.00  0.00    +0.000 HD
ENDROOT
BRANCH   3  19
ATOM     19  N   UNL     1       6.517   4.211  16.334  0.00  0.00    +0.000 N 
ATOM     20  O   UNL     1       7.677   4.301  16.750  0.00  0.00    +0.000 OA
ATOM     21  O   UNL     1       6.095   3.356  15.544  0.00  0.00    +0.000 OA
ENDBRANCH   3  19
TORSDOF 1
ENDMDL
