MODEL 1
REMARK VINA RESULT:      -7.2      0.000      0.000
REMARK  Name = 
REMARK  8 active torsions:
REMARK  status: ('A' for Active; 'I' for Inactive)
REMARK    1  A    between atoms: C_1  and  C_2
REMARK    2  A    between atoms: C_2  and  C_15
REMARK    3  A    between atoms: N_3  and  N_4
REMARK    4  A    between atoms: C_5  and  C_7
REMARK    5  A    between atoms: C_7  and  N_8
REMARK    6  A    between atoms: C_10  and  C_11
REMARK    7  A    between atoms: C_13  and  C_14
REMARK    8  A    between atoms: C_18  and  N_19
REMARK                            x       y       z     vdW  Elec       q    Type
REMARK                         _______ _______ _______ _____ _____    ______ ____
ROOT
ATOM      1  C   UNL     1       2.763   8.308  17.796  0.00  0.00    +0.000 C 
ATOM      2  C   UNL     1       2.190   7.757  19.087  0.00  0.00    +0.000 C 
ATOM      3  N   UNL     1       2.462   6.579  19.569  0.00  0.00    +0.000 NA
ENDROOT
BRANCH   2   4
ATOM      4  C   UNL     1       1.304   8.669  19.899  0.00  0.00    +0.000 A 
ATOM      5  C   UNL     1       0.648   9.766  19.321  0.00  0.00    +0.000 A 
ATOM      6  C   UNL     1      -0.145  10.616  20.102  0.00  0.00    +0.000 A 
ATOM      7  C   UNL     1      -0.290  10.368  21.471  0.00  0.00    +0.000 A 
ATOM      8  C   UNL     1       0.352   9.276  22.064  0.00  0.00    +0.000 A 
ATOM      9  C   UNL     1       1.146   8.431  21.274  0.00  0.00    +0.000 A 
BRANCH   7  10
ATOM     10  N   UNL     1      -1.117  11.266  22.289  0.00  0.00    +0.000 N 
ATOM     11  O   UNL     1      -1.071  11.125  23.521  0.00  0.00    +0.000 OA
ATOM     12  O   UNL     1      -1.807  12.110  21.704  0.00  0.00    +0.000 OA
ENDBRANCH   7  10
ENDBRANCH   2   4
BRANCH   3  13
ATOM     13  N   UNL     1       3.232   5.718  18.852  0.00  0.00    +0.000 N 
ATOM     14  C   UNL     1       3.246   4.371  19.196  0.00  0.00    +0.000 C 
ATOM     15  O   UNL     1       2.674   3.888  20.175  0.00  0.00    +0.000 OA
ATOM     16  H   UNL     1       3.567   5.994  17.926  0.00  0.00    +0.000 HD
BRANCH  14  17
ATOM     17  C   UNL     1       4.132   3.525  18.320  0.00  0.00    +0.000 C 
BRANCH  17  18
ATOM     18  N   UNL     1       5.398   4.179  18.068  0.00  0.00    +0.000 N 
ATOM     19  N   UNL     1       6.086   4.683  19.117  0.00  0.00    +0.000 NA
ATOM     20  C   UNL     1       7.181   5.216  18.559  0.00  0.00    +0.000 A 
ATOM     21  C   UNL     1       8.217   5.879  19.386  0.00  0.00    +0.000 C 
ATOM     22  C   UNL     1       7.176   5.067  17.155  0.00  0.00    +0.000 A 
ATOM     23  C   UNL     1       6.015   4.386  16.861  0.00  0.00    +0.000 A 
ATOM     24  C   UNL     1       5.459   3.946  15.557  0.00  0.00    +0.000 C 
ENDBRANCH  17  18
ENDBRANCH  14  17
ENDBRANCH   3  13
TORSDOF 5
ENDMDL
MODEL 2
REMARK VINA RESULT:      -7.1      3.350      9.074
REMARK  Name = 
REMARK  8 active torsions:
REMARK  status: ('A' for Active; 'I' for Inactive)
REMARK    1  A    between atoms: C_1  and  C_2
REMARK    2  A    between atoms: C_2  and  C_15
REMARK    3  A    between atoms: N_3  and  N_4
REMARK    4  A    between atoms: C_5  and  C_7
REMARK    5  A    between atoms: C_7  and  N_8
REMARK    6  A    between atoms: C_10  and  C_11
REMARK    7  A    between atoms: C_13  and  C_14
REMARK    8  A    between atoms: C_18  and  N_19
REMARK                            x       y       z     vdW  Elec       q    Type
REMARK                         _______ _______ _______ _____ _____    ______ ____
ROOT
ATOM      1  C   UNL     1       1.997   6.373  20.085  0.00  0.00    +0.000 C 
ATOM      2  C   UNL     1       2.586   7.049  18.863  0.00  0.00    +0.000 C 
ATOM      3  N   UNL     1       2.244   8.231  18.439  0.00  0.00    +0.000 NA
ENDROOT
BRANCH   2   4
ATOM      4  C   UNL     1       3.697   6.330  18.138  0.00  0.00    +0.000 A 
ATOM      5  C   UNL     1       4.034   5.002  18.439  0.00  0.00    +0.000 A 
ATOM      6  C   UNL     1       5.088   4.365  17.774  0.00  0.00    +0.000 A 
ATOM      7  C   UNL     1       5.812   5.056  16.796  0.00  0.00    +0.000 A 
ATOM      8  C   UNL     1       5.487   6.379  16.479  0.00  0.00    +0.000 A 
ATOM      9  C   UNL     1       4.430   7.010  17.152  0.00  0.00    +0.000 A 
BRANCH   7  10
ATOM     10  N   UNL     1       6.924   4.387  16.105  0.00  0.00    +0.000 N 
ATOM     11  O   UNL     1       7.981   4.232  16.735  0.00  0.00    +0.000 OA
ATOM     12  O   UNL     1       6.740   4.017  14.939  0.00  0.00    +0.000 OA
ENDBRANCH   7  10
ENDBRANCH   2   4
BRANCH   3  13
ATOM     13  N   UNL     1       1.227   8.898  19.048  0.00  0.00    +0.000 N 
ATOM     14  C   UNL     1       1.119  10.273  18.879  0.00  0.00    +0.000 C 
ATOM     15  O   UNL     1       1.936  10.976  18.280  0.00  0.00    +0.000 OA
ATOM     16  H   UNL     1       0.414   8.376  19.384  0.00  0.00    +0.000 HD
BRANCH  14  17
ATOM     17  C   UNL     1      -0.052  10.889  19.597  0.00  0.00    +0.000 C 
BRANCH  17  18
ATOM     18  N   UNL     1      -1.221  10.941  18.745  0.00  0.00    +0.000 N 
ATOM     19  N   UNL     1      -1.240  10.181  17.626  0.00  0.00    +0.000 NA
ATOM     20  C   UNL     1      -2.426  10.458  17.068  0.00  0.00    +0.000 A 
ATOM     21  C   UNL     1      -2.846   9.813  15.802  0.00  0.00    +0.000 C 
ATOM     22  C   UNL     1      -3.148  11.408  17.823  0.00  0.00    +0.000 A 
ATOM     23  C   UNL     1      -2.351  11.701  18.907  0.00  0.00    +0.000 A 
ATOM     24  C   UNL     1      -2.570  12.632  20.042  0.00  0.00    +0.000 C 
ENDBRANCH  17  18
ENDBRANCH  14  17
ENDBRANCH   3  13
TORSDOF 5
ENDMDL
MODEL 3
REMARK VINA RESULT:      -7.1      1.152      1.516
REMARK  Name = 
REMARK  8 active torsions:
REMARK  status: ('A' for Active; 'I' for Inactive)
REMARK    1  A    between atoms: C_1  and  C_2
REMARK    2  A    between atoms: C_2  and  C_15
REMARK    3  A    between atoms: N_3  and  N_4
REMARK    4  A    between atoms: C_5  and  C_7
REMARK    5  A    between atoms: C_7  and  N_8
REMARK    6  A    between atoms: C_10  and  C_11
REMARK    7  A    between atoms: C_13  and  C_14
REMARK    8  A    between atoms: C_18  and  N_19
REMARK                            x       y       z     vdW  Elec       q    Type
REMARK                         _______ _______ _______ _____ _____    ______ ____
ROOT
ATOM      1  C   UNL     1       2.552   7.738  18.588  0.00  0.00    +0.000 C 
ATOM      2  C   UNL     1       1.898   7.455  19.927  0.00  0.00    +0.000 C 
ATOM      3  N   UNL     1       1.982   6.323  20.563  0.00  0.00    +0.000 NA
ENDROOT
BRANCH   2   4
ATOM      4  C   UNL     1       1.166   8.592  20.596  0.00  0.00    +0.000 A 
ATOM      5  C   UNL     1       0.754   9.726  19.881  0.00  0.00    +0.000 A 
ATOM      6  C   UNL     1       0.103  10.782  20.530  0.00  0.00    +0.000 A 
ATOM      7  C   UNL     1      -0.145  10.705  21.905  0.00  0.00    +0.000 A 
ATOM      8  C   UNL     1       0.252   9.579  22.634  0.00  0.00    +0.000 A 
ATOM      9  C   UNL     1       0.907   8.527  21.975  0.00  0.00    +0.000 A 
BRANCH   7  10
ATOM     10  N   UNL     1      -0.823  11.818  22.585  0.00  0.00    +0.000 N 
ATOM     11  O   UNL     1      -0.301  12.941  22.507  0.00  0.00    +0.000 OA
ATOM     12  O   UNL     1      -1.872  11.571  23.192  0.00  0.00    +0.000 OA
ENDBRANCH   7  10
ENDBRANCH   2   4
BRANCH   3  13
ATOM     13  N   UNL     1       2.609   5.266  19.979  0.00  0.00    +0.000 N 
ATOM     14  C   UNL     1       2.673   4.055  20.657  0.00  0.00    +0.000 C 
ATOM     15  O   UNL     1       2.279   3.872  21.810  0.00  0.00    +0.000 OA
ATOM     16  H   UNL     1       2.777   5.277  18.970  0.00  0.00    +0.000 HD
BRANCH  14  17
ATOM     17  C   UNL     1       3.385   2.966  19.900  0.00  0.00    +0.000 C 
BRANCH  17  18
ATOM     18  N   UNL     1       4.246   3.517  18.875  0.00  0.00    +0.000 N 
ATOM     19  N   UNL     1       5.461   3.988  19.235  0.00  0.00    +0.000 NA
ATOM     20  C   UNL     1       5.991   4.426  18.086  0.00  0.00    +0.000 A 
ATOM     21  C   UNL     1       7.347   5.025  18.047  0.00  0.00    +0.000 C 
ATOM     22  C   UNL     1       5.104   4.250  17.002  0.00  0.00    +0.000 A 
ATOM     23  C   UNL     1       3.983   3.653  17.536  0.00  0.00    +0.000 A 
ATOM     24  C   UNL     1       2.716   3.231  16.890  0.00  0.00    +0.000 C 
ENDBRANCH  17  18
ENDBRANCH  14  17
ENDBRANCH   3  13
TORSDOF 5
ENDMDL
MODEL 4
REMARK VINA RESULT:      -7.1      2.834      8.695
REMARK  Name = 
REMARK  8 active torsions:
REMARK  status: ('A' for Active; 'I' for Inactive)
REMARK    1  A    between atoms: C_1  and  C_2
REMARK    2  A    between atoms: C_2  and  C_15
REMARK    3  A    between atoms: N_3  and  N_4
REMARK    4  A    between atoms: C_5  and  C_7
REMARK    5  A    between atoms: C_7  and  N_8
REMARK    6  A    between atoms: C_10  and  C_11
REMARK    7  A    between atoms: C_13  and  C_14
REMARK    8  A    between atoms: C_18  and  N_19
REMARK                            x       y       z     vdW  Elec       q    Type
REMARK                         _______ _______ _______ _____ _____    ______ ____
ROOT
ATOM      1  C   UNL     1       2.136   7.037  19.892  0.00  0.00    +0.000 C 
ATOM      2  C   UNL     1       2.679   7.368  18.516  0.00  0.00    +0.000 C 
ATOM      3  N   UNL     1       2.164   8.256  17.715  0.00  0.00    +0.000 NA
ENDROOT
BRANCH   2   4
ATOM      4  C   UNL     1       3.946   6.672  18.082  0.00  0.00    +0.000 A 
ATOM      5  C   UNL     1       4.547   6.940  16.844  0.00  0.00    +0.000 A 
ATOM      6  C   UNL     1       5.706   6.260  16.451  0.00  0.00    +0.000 A 
ATOM      7  C   UNL     1       6.273   5.305  17.301  0.00  0.00    +0.000 A 
ATOM      8  C   UNL     1       5.691   5.028  18.543  0.00  0.00    +0.000 A 
ATOM      9  C   UNL     1       4.529   5.713  18.927  0.00  0.00    +0.000 A 
BRANCH   7  10
ATOM     10  N   UNL     1       7.485   4.586  16.883  0.00  0.00    +0.000 N 
ATOM     11  O   UNL     1       7.709   4.499  15.665  0.00  0.00    +0.000 OA
ATOM     12  O   UNL     1       8.211   4.114  17.766  0.00  0.00    +0.000 OA
ENDBRANCH   7  10
ENDBRANCH   2   4
BRANCH   3  13
ATOM     13  N   UNL     1       1.007   8.883  18.058  0.00  0.00    +0.000 N 
ATOM     14  C   UNL     1       1.019  10.253  18.289  0.00  0.00    +0.000 C 
ATOM     15  O   UNL     1       2.030  10.957  18.296  0.00  0.00    +0.000 OA
ATOM     16  H   UNL     1       0.112   8.420  17.878  0.00  0.00    +0.000 HD
BRANCH  14  17
ATOM     17  C   UNL     1      -0.326  10.825  18.651  0.00  0.00    +0.000 C 
BRANCH  17  18
ATOM     18  N   UNL     1      -0.492  10.903  20.087  0.00  0.00    +0.000 N 
ATOM     19  N   UNL     1       0.017   9.910  20.852  0.00  0.00    +0.000 NA
ATOM     20  C   UNL     1      -0.305  10.269  22.102  0.00  0.00    +0.000 A 
ATOM     21  C   UNL     1       0.083   9.432  23.263  0.00  0.00    +0.000 C 
ATOM     22  C   UNL     1      -1.034  11.477  22.126  0.00  0.00    +0.000 A 
ATOM     23  C   UNL     1      -1.136  11.873  20.811  0.00  0.00    +0.000 A 
ATOM     24  C   UNL     1      -1.795  13.059  20.209  0.00  0.00    +0.000 C 
ENDBRANCH  17  18
ENDBRANCH  14  17
ENDBRANCH   3  13
TORSDOF 5
ENDMDL
MODEL 5
REMARK VINA RESULT:      -7.1      3.454      9.107
REMARK  Name = 
REMARK  8 active torsions:
REMARK  status: ('A' for Active; 'I' for Inactive)
REMARK    1  A    between atoms: C_1  and  C_2
REMARK    2  A    between atoms: C_2  and  C_15
REMARK    3  A    between atoms: N_3  and  N_4
REMARK    4  A    between atoms: C_5  and  C_7
REMARK    5  A    between atoms: C_7  and  N_8
REMARK    6  A    between atoms: C_10  and  C_11
REMARK    7  A    between atoms: C_13  and  C_14
REMARK    8  A    between atoms: C_18  and  N_19
REMARK                            x       y       z     vdW  Elec       q    Type
REMARK                         _______ _______ _______ _____ _____    ______ ____
ROOT
ATOM      1  C   UNL     1       2.238   6.846  19.973  0.00  0.00    +0.000 C 
ATOM      2  C   UNL     1       2.575   7.313  18.570  0.00  0.00    +0.000 C 
ATOM      3  N   UNL     1       2.056   8.360  17.998  0.00  0.00    +0.000 NA
ENDROOT
BRANCH   2   4
ATOM      4  C   UNL     1       3.641   6.551  17.821  0.00  0.00    +0.000 A 
ATOM      5  C   UNL     1       4.757   7.196  17.269  0.00  0.00    +0.000 A 
ATOM      6  C   UNL     1       5.718   6.472  16.553  0.00  0.00    +0.000 A 
ATOM      7  C   UNL     1       5.566   5.091  16.386  0.00  0.00    +0.000 A 
ATOM      8  C   UNL     1       4.462   4.430  16.934  0.00  0.00    +0.000 A 
ATOM      9  C   UNL     1       3.504   5.164  17.649  0.00  0.00    +0.000 A 
BRANCH   7  10
ATOM     10  N   UNL     1       6.572   4.335  15.627  0.00  0.00    +0.000 N 
ATOM     11  O   UNL     1       6.170   3.619  14.698  0.00  0.00    +0.000 OA
ATOM     12  O   UNL     1       7.758   4.459  15.957  0.00  0.00    +0.000 OA
ENDBRANCH   7  10
ENDBRANCH   2   4
BRANCH   3  13
ATOM     13  N   UNL     1       1.071   9.055  18.629  0.00  0.00    +0.000 N 
ATOM     14  C   UNL     1       1.124  10.444  18.646  0.00  0.00    +0.000 C 
ATOM     15  O   UNL     1       2.055  11.119  18.203  0.00  0.00    +0.000 OA
ATOM     16  H   UNL     1       0.183   8.592  18.838  0.00  0.00    +0.000 HD
BRANCH  14  17
ATOM     17  C   UNL     1      -0.027  11.091  19.369  0.00  0.00    +0.000 C 
BRANCH  17  18
ATOM     18  N   UNL     1      -1.234  11.053  18.571  0.00  0.00    +0.000 N 
ATOM     19  N   UNL     1      -1.228  10.341  17.421  0.00  0.00    +0.000 NA
ATOM     20  C   UNL     1      -2.461  10.512  16.928  0.00  0.00    +0.000 A 
ATOM     21  C   UNL     1      -2.872   9.877  15.653  0.00  0.00    +0.000 C 
ATOM     22  C   UNL     1      -3.242  11.348  17.756  0.00  0.00    +0.000 A 
ATOM     23  C   UNL     1      -2.429  11.681  18.817  0.00  0.00    +0.000 A 
ATOM     24  C   UNL     1      -2.690  12.536  20.001  0.00  0.00    +0.000 C 
ENDBRANCH  17  18
ENDBRANCH  14  17
ENDBRANCH   3  13
TORSDOF 5
ENDMDL
MODEL 6
REMARK VINA RESULT:      -7.0      1.409      1.893
REMARK  Name = 
REMARK  8 active torsions:
REMARK  status: ('A' for Active; 'I' for Inactive)
REMARK    1  A    between atoms: C_1  and  C_2
REMARK    2  A    between atoms: C_2  and  C_15
REMARK    3  A    between atoms: N_3  and  N_4
REMARK    4  A    between atoms: C_5  and  C_7
REMARK    5  A    between atoms: C_7  and  N_8
REMARK    6  A    between atoms: C_10  and  C_11
REMARK    7  A    between atoms: C_13  and  C_14
REMARK    8  A    between atoms: C_18  and  N_19
REMARK                            x       y       z     vdW  Elec       q    Type
REMARK                         _______ _______ _______ _____ _____    ______ ____
ROOT
ATOM      1  C   UNL     1       2.644   7.790  17.923  0.00  0.00    +0.000 C 
ATOM      2  C   UNL     1       1.963   7.929  19.271  0.00  0.00    +0.000 C 
ATOM      3  N   UNL     1       2.170   7.140  20.285  0.00  0.00    +0.000 NA
ENDROOT
BRANCH   2   4
ATOM      4  C   UNL     1       1.042   9.108  19.466  0.00  0.00    +0.000 A 
ATOM      5  C   UNL     1       0.772  10.012  18.428  0.00  0.00    +0.000 A 
ATOM      6  C   UNL     1      -0.062  11.116  18.642  0.00  0.00    +0.000 A 
ATOM      7  C   UNL     1      -0.637  11.319  19.901  0.00  0.00    +0.000 A 
ATOM      8  C   UNL     1      -0.385  10.425  20.947  0.00  0.00    +0.000 A 
ATOM      9  C   UNL     1       0.454   9.323  20.724  0.00  0.00    +0.000 A 
BRANCH   7  10
ATOM     10  N   UNL     1      -1.507  12.483  20.124  0.00  0.00    +0.000 N 
ATOM     11  O   UNL     1      -2.650  12.444  19.644  0.00  0.00    +0.000 OA
ATOM     12  O   UNL     1      -1.051  13.428  20.778  0.00  0.00    +0.000 OA
ENDBRANCH   7  10
ENDBRANCH   2   4
BRANCH   3  13
ATOM     13  N   UNL     1       2.970   6.050  20.139  0.00  0.00    +0.000 N 
ATOM     14  C   UNL     1       2.424   4.781  20.292  0.00  0.00    +0.000 C 
ATOM     15  O   UNL     1       1.266   4.550  20.644  0.00  0.00    +0.000 OA
ATOM     16  H   UNL     1       3.869   6.146  19.660  0.00  0.00    +0.000 HD
BRANCH  14  17
ATOM     17  C   UNL     1       3.412   3.661  20.098  0.00  0.00    +0.000 C 
BRANCH  17  18
ATOM     18  N   UNL     1       4.266   3.909  18.955  0.00  0.00    +0.000 N 
ATOM     19  N   UNL     1       5.528   4.345  19.173  0.00  0.00    +0.000 NA
ATOM     20  C   UNL     1       6.039   4.482  17.943  0.00  0.00    +0.000 A 
ATOM     21  C   UNL     1       7.432   4.945  17.739  0.00  0.00    +0.000 C 
ATOM     22  C   UNL     1       5.094   4.153  16.947  0.00  0.00    +0.000 A 
ATOM     23  C   UNL     1       3.956   3.778  17.626  0.00  0.00    +0.000 A 
ATOM     24  C   UNL     1       2.634   3.334  17.121  0.00  0.00    +0.000 C 
ENDBRANCH  17  18
ENDBRANCH  14  17
ENDBRANCH   3  13
TORSDOF 5
ENDMDL
MODEL 7
REMARK VINA RESULT:      -6.9      1.890      2.537
REMARK  Name = 
REMARK  8 active torsions:
REMARK  status: ('A' for Active; 'I' for Inactive)
REMARK    1  A    between atoms: C_1  and  C_2
REMARK    2  A    between atoms: C_2  and  C_15
REMARK    3  A    between atoms: N_3  and  N_4
REMARK    4  A    between atoms: C_5  and  C_7
REMARK    5  A    between atoms: C_7  and  N_8
REMARK    6  A    between atoms: C_10  and  C_11
REMARK    7  A    between atoms: C_13  and  C_14
REMARK    8  A    between atoms: C_18  and  N_19
REMARK                            x       y       z     vdW  Elec       q    Type
REMARK                         _______ _______ _______ _____ _____    ______ ____
ROOT
ATOM      1  C   UNL     1       2.515   8.431  17.961  0.00  0.00    +0.000 C 
ATOM      2  C   UNL     1       1.718   8.438  19.250  0.00  0.00    +0.000 C 
ATOM      3  N   UNL     1       1.878   7.585  20.220  0.00  0.00    +0.000 NA
ENDROOT
BRANCH   2   4
ATOM      4  C   UNL     1       0.725   9.557  19.447  0.00  0.00    +0.000 A 
ATOM      5  C   UNL     1       0.439  10.073  20.721  0.00  0.00    +0.000 A 
ATOM      6  C   UNL     1      -0.508  11.091  20.882  0.00  0.00    +0.000 A 
ATOM      7  C   UNL     1      -1.176  11.603  19.764  0.00  0.00    +0.000 A 
ATOM      8  C   UNL     1      -0.900  11.104  18.486  0.00  0.00    +0.000 A 
ATOM      9  C   UNL     1       0.049  10.083  18.334  0.00  0.00    +0.000 A 
BRANCH   7  10
ATOM     10  N   UNL     1      -2.175  12.666  19.937  0.00  0.00    +0.000 N 
ATOM     11  O   UNL     1      -1.760  13.807  20.195  0.00  0.00    +0.000 OA
ATOM     12  O   UNL     1      -3.368  12.364  19.813  0.00  0.00    +0.000 OA
ENDBRANCH   7  10
ENDBRANCH   2   4
BRANCH   3  13
ATOM     13  N   UNL     1       2.743   6.546  20.068  0.00  0.00    +0.000 N 
ATOM     14  C   UNL     1       2.281   5.247  20.250  0.00  0.00    +0.000 C 
ATOM     15  O   UNL     1       1.149   4.949  20.633  0.00  0.00    +0.000 OA
ATOM     16  H   UNL     1       3.621   6.692  19.565  0.00  0.00    +0.000 HD
BRANCH  14  17
ATOM     17  C   UNL     1       3.333   4.190  20.044  0.00  0.00    +0.000 C 
BRANCH  17  18
ATOM     18  N   UNL     1       3.871   4.239  18.701  0.00  0.00    +0.000 N 
ATOM     19  N   UNL     1       4.713   5.247  18.378  0.00  0.00    +0.000 NA
ATOM     20  C   UNL     1       5.016   5.016  17.094  0.00  0.00    +0.000 A 
ATOM     21  C   UNL     1       5.935   5.910  16.351  0.00  0.00    +0.000 C 
ATOM     22  C   UNL     1       4.350   3.874  16.599  0.00  0.00    +0.000 A 
ATOM     23  C   UNL     1       3.620   3.383  17.660  0.00  0.00    +0.000 A 
ATOM     24  C   UNL     1       2.719   2.208  17.748  0.00  0.00    +0.000 C 
ENDBRANCH  17  18
ENDBRANCH  14  17
ENDBRANCH   3  13
TORSDOF 5
ENDMDL
MODEL 8
REMARK VINA RESULT:      -6.9      0.970      1.338
REMARK  Name = 
REMARK  8 active torsions:
REMARK  status: ('A' for Active; 'I' for Inactive)
REMARK    1  A    between atoms: C_1  and  C_2
REMARK    2  A    between atoms: C_2  and  C_15
REMARK    3  A    between atoms: N_3  and  N_4
REMARK    4  A    between atoms: C_5  and  C_7
REMARK    5  A    between atoms: C_7  and  N_8
REMARK    6  A    between atoms: C_10  and  C_11
REMARK    7  A    between atoms: C_13  and  C_14
REMARK    8  A    between atoms: C_18  and  N_19
REMARK                            x       y       z     vdW  Elec       q    Type
REMARK                         _______ _______ _______ _____ _____    ______ ____
ROOT
ATOM      1  C   UNL     1       3.228   7.978  17.646  0.00  0.00    +0.000 C 
ATOM      2  C   UNL     1       2.340   7.728  18.849  0.00  0.00    +0.000 C 
ATOM      3  N   UNL     1       2.455   6.708  19.650  0.00  0.00    +0.000 NA
ENDROOT
BRANCH   2   4
ATOM      4  C   UNL     1       1.304   8.774  19.178  0.00  0.00    +0.000 A 
ATOM      5  C   UNL     1       0.709   9.560  18.180  0.00  0.00    +0.000 A 
ATOM      6  C   UNL     1      -0.229  10.546  18.512  0.00  0.00    +0.000 A 
ATOM      7  C   UNL     1      -0.579  10.748  19.852  0.00  0.00    +0.000 A 
ATOM      8  C   UNL     1      -0.000   9.970  20.860  0.00  0.00    +0.000 A 
ATOM      9  C   UNL     1       0.939   8.986  20.517  0.00  0.00    +0.000 A 
BRANCH   7  10
ATOM     10  N   UNL     1      -1.558  11.788  20.198  0.00  0.00    +0.000 N 
ATOM     11  O   UNL     1      -2.134  12.368  19.264  0.00  0.00    +0.000 OA
ATOM     12  O   UNL     1      -1.752  12.023  21.397  0.00  0.00    +0.000 OA
ENDBRANCH   7  10
ENDBRANCH   2   4
BRANCH   3  13
ATOM     13  N   UNL     1       3.358   5.730  19.370  0.00  0.00    +0.000 N 
ATOM     14  C   UNL     1       2.921   4.555  18.768  0.00  0.00    +0.000 C 
ATOM     15  O   UNL     1       1.743   4.278  18.538  0.00  0.00    +0.000 OA
ATOM     16  H   UNL     1       4.355   5.957  19.343  0.00  0.00    +0.000 HD
BRANCH  14  17
ATOM     17  C   UNL     1       4.018   3.558  18.505  0.00  0.00    +0.000 C 
BRANCH  17  18
ATOM     18  N   UNL     1       5.267   4.222  18.199  0.00  0.00    +0.000 N 
ATOM     19  N   UNL     1       6.041   4.649  19.222  0.00  0.00    +0.000 NA
ATOM     20  C   UNL     1       7.094   5.214  18.617  0.00  0.00    +0.000 A 
ATOM     21  C   UNL     1       8.198   5.814  19.403  0.00  0.00    +0.000 C 
ATOM     22  C   UNL     1       6.977   5.161  17.211  0.00  0.00    +0.000 A 
ATOM     23  C   UNL     1       5.790   4.508  16.964  0.00  0.00    +0.000 A 
ATOM     24  C   UNL     1       5.129   4.162  15.681  0.00  0.00    +0.000 C 
ENDBRANCH  17  18
ENDBRANCH  14  17
ENDBRANCH   3  13
TORSDOF 5
ENDMDL
MODEL 9
REMARK VINA RESULT:      -6.9      2.460      8.730
REMARK  Name = 
REMARK  8 active torsions:
REMARK  status: ('A' for Active; 'I' for Inactive)
REMARK    1  A    between atoms: C_1  and  C_2
REMARK    2  A    between atoms: C_2  and  C_15
REMARK    3  A    between atoms: N_3  and  N_4
REMARK    4  A    between atoms: C_5  and  C_7
REMARK    5  A    between atoms: C_7  and  N_8
REMARK    6  A    between atoms: C_10  and  C_11
REMARK    7  A    between atoms: C_13  and  C_14
REMARK    8  A    between atoms: C_18  and  N_19
REMARK                            x       y       z     vdW  Elec       q    Type
REMARK                         _______ _______ _______ _____ _____    ______ ____
ROOT
ATOM      1  C   UNL     1       2.467   8.295  17.847  0.00  0.00    +0.000 C 
ATOM      2  C   UNL     1       2.216   7.564  19.152  0.00  0.00    +0.000 C 
ATOM      3  N   UNL     1       1.553   8.058  20.156  0.00  0.00    +0.000 NA
ENDROOT
BRANCH   2   4
ATOM      4  C   UNL     1       2.706   6.141  19.256  0.00  0.00    +0.000 A 
ATOM      5  C   UNL     1       2.255   5.279  20.267  0.00  0.00    +0.000 A 
ATOM      6  C   UNL     1       2.747   3.972  20.362  0.00  0.00    +0.000 A 
ATOM      7  C   UNL     1       3.695   3.517  19.439  0.00  0.00    +0.000 A 
ATOM      8  C   UNL     1       4.153   4.360  18.421  0.00  0.00    +0.000 A 
ATOM      9  C   UNL     1       3.655   5.669  18.335  0.00  0.00    +0.000 A 
BRANCH   7  10
ATOM     10  N   UNL     1       4.215   2.146  19.546  0.00  0.00    +0.000 N 
ATOM     11  O   UNL     1       5.004   1.903  20.472  0.00  0.00    +0.000 OA
ATOM     12  O   UNL     1       3.836   1.317  18.710  0.00  0.00    +0.000 OA
ENDBRANCH   7  10
ENDBRANCH   2   4
BRANCH   3  13
ATOM     13  N   UNL     1       1.121   9.347  20.111  0.00  0.00    +0.000 N 
ATOM     14  C   UNL     1       0.173   9.779  21.032  0.00  0.00    +0.000 C 
ATOM     15  O   UNL     1      -0.392   9.054  21.853  0.00  0.00    +0.000 OA
ATOM     16  H   UNL     1       1.673  10.045  19.607  0.00  0.00    +0.000 HD
BRANCH  14  17
ATOM     17  C   UNL     1      -0.214  11.226  20.880  0.00  0.00    +0.000 C 
BRANCH  17  18
ATOM     18  N   UNL     1      -1.252  11.389  19.884  0.00  0.00    +0.000 N 
ATOM     19  N   UNL     1      -1.112  10.760  18.695  0.00  0.00    +0.000 NA
ATOM     20  C   UNL     1      -2.209  11.113  18.012  0.00  0.00    +0.000 A 
ATOM     21  C   UNL     1      -2.446  10.620  16.635  0.00  0.00    +0.000 C 
ATOM     22  C   UNL     1      -3.033  11.980  18.762  0.00  0.00    +0.000 A 
ATOM     23  C   UNL     1      -2.396  12.139  19.973  0.00  0.00    +0.000 A 
ATOM     24  C   UNL     1      -2.775  12.938  21.164  0.00  0.00    +0.000 C 
ENDBRANCH  17  18
ENDBRANCH  14  17
ENDBRANCH   3  13
TORSDOF 5
ENDMDL
