MODEL 1
REMARK VINA RESULT:      -6.6      0.000      0.000
REMARK  Name = 
REMARK  10 active torsions:
REMARK  status: ('A' for Active; 'I' for Inactive)
REMARK    1  A    between atoms: C_1  and  C_2
REMARK    2  A    between atoms: C_2  and  C_3
REMARK    3  A    between atoms: C_2  and  O_4
REMARK    4  A    between atoms: O_4  and  C_5
REMARK    5  A    between atoms: C_5  and  C_6
REMARK    6  A    between atoms: C_6  and  O_7
REMARK    7  A    between atoms: C_6  and  C_8
REMARK    8  A    between atoms: C_8  and  S_9
REMARK    9  A    between atoms: S_9  and  C_12
REMARK   10  A    between atoms: C_12  and  C_13
REMARK                            x       y       z     vdW  Elec       q    Type
REMARK                         _______ _______ _______ _____ _____    ______ ____
ROOT
ATOM      1  S   UNL     1       5.136   4.802  18.558  0.00  0.00    +0.000 S 
ATOM      2  O   UNL     1       6.305   4.333  19.279  0.00  0.00    +0.000 OA
ATOM      3  O   UNL     1       4.251   5.798  19.145  0.00  0.00    +0.000 OA
ENDROOT
BRANCH   1   4
ATOM      4  C   UNL     1       5.734   5.488  17.025  0.00  0.00    +0.000 C 
BRANCH   4   5
ATOM      5  C   UNL     1       6.582   4.474  16.249  0.00  0.00    +0.000 C 
BRANCH   5   6
ATOM      6  O   UNL     1       7.902   4.415  16.807  0.00  0.00    +0.000 OA
ATOM      7  H   UNL     1       8.155   3.475  16.902  0.00  0.00    +0.000 HD
ENDBRANCH   5   6
BRANCH   5   8
ATOM      8  C   UNL     1       6.608   4.753  14.734  0.00  0.00    +0.000 C 
BRANCH   8   9
ATOM      9  O   UNL     1       6.380   3.561  13.979  0.00  0.00    +0.000 OA
BRANCH   9  11
ATOM     10  C   UNL     1       7.353   4.385  11.955  0.00  0.00    +0.000 C 
ATOM     11  C   UNL     1       6.085   3.839  12.602  0.00  0.00    +0.000 C 
ATOM     12  C   UNL     1       5.625   2.576  11.880  0.00  0.00    +0.000 C 
ENDBRANCH   9  11
ENDBRANCH   8   9
ENDBRANCH   5   8
ENDBRANCH   4   5
ENDBRANCH   1   4
BRANCH   1  13
ATOM     13  C   UNL     1       4.132   3.401  18.057  0.00  0.00    +0.000 C 
BRANCH  13  14
ATOM     14  C   UNL     1       3.106   3.188  19.141  0.00  0.00    +0.000 A 
ATOM     15  C   UNL     1       1.775   3.592  18.954  0.00  0.00    +0.000 A 
ATOM     16  C   UNL     1       0.865   3.531  20.009  0.00  0.00    +0.000 A 
ATOM     17  C   UNL     1       1.271   3.060  21.255  0.00  0.00    +0.000 A 
ATOM     18  C   UNL     1       2.584   2.634  21.447  0.00  0.00    +0.000 A 
ATOM     19  C   UNL     1       3.498   2.695  20.393  0.00  0.00    +0.000 A 
ENDBRANCH  13  14
ENDBRANCH   1  13
TORSDOF 8
ENDMDL
MODEL 2
REMARK VINA RESULT:      -6.5      1.476      1.991
REMARK  Name = 
REMARK  10 active torsions:
REMARK  status: ('A' for Active; 'I' for Inactive)
REMARK    1  A    between atoms: C_1  and  C_2
REMARK    2  A    between atoms: C_2  and  C_3
REMARK    3  A    between atoms: C_2  and  O_4
REMARK    4  A    between atoms: O_4  and  C_5
REMARK    5  A    between atoms: C_5  and  C_6
REMARK    6  A    between atoms: C_6  and  O_7
REMARK    7  A    between atoms: C_6  and  C_8
REMARK    8  A    between atoms: C_8  and  S_9
REMARK    9  A    between atoms: S_9  and  C_12
REMARK   10  A    between atoms: C_12  and  C_13
REMARK                            x       y       z     vdW  Elec       q    Type
REMARK                         _______ _______ _______ _____ _____    ______ ____
ROOT
ATOM      1  S   UNL     1       4.422   4.593  17.375  0.00  0.00    +0.000 S 
ATOM      2  O   UNL     1       3.916   3.424  16.678  0.00  0.00    +0.000 OA
ATOM      3  O   UNL     1       5.375   4.452  18.466  0.00  0.00    +0.000 OA
ENDROOT
BRANCH   1   4
ATOM      4  C   UNL     1       5.204   5.614  16.139  0.00  0.00    +0.000 C 
BRANCH   4   5
ATOM      5  C   UNL     1       6.687   5.265  15.979  0.00  0.00    +0.000 C 
BRANCH   5   6
ATOM      6  O   UNL     1       7.484   6.447  16.124  0.00  0.00    +0.000 OA
ATOM      7  H   UNL     1       8.426   6.199  16.029  0.00  0.00    +0.000 HD
ENDBRANCH   5   6
BRANCH   5   8
ATOM      8  C   UNL     1       6.988   4.525  14.661  0.00  0.00    +0.000 C 
BRANCH   8   9
ATOM      9  O   UNL     1       5.790   4.253  13.929  0.00  0.00    +0.000 OA
BRANCH   9  11
ATOM     10  C   UNL     1       4.748   3.430  11.940  0.00  0.00    +0.000 C 
ATOM     11  C   UNL     1       6.043   3.488  12.741  0.00  0.00    +0.000 C 
ATOM     12  C   UNL     1       7.151   4.127  11.910  0.00  0.00    +0.000 C 
ENDBRANCH   9  11
ENDBRANCH   8   9
ENDBRANCH   5   8
ENDBRANCH   4   5
ENDBRANCH   1   4
BRANCH   1  13
ATOM     13  C   UNL     1       3.049   5.584  17.967  0.00  0.00    +0.000 C 
BRANCH  13  14
ATOM     14  C   UNL     1       2.318   4.752  18.991  0.00  0.00    +0.000 A 
ATOM     15  C   UNL     1       2.624   4.867  20.355  0.00  0.00    +0.000 A 
ATOM     16  C   UNL     1       2.055   3.993  21.282  0.00  0.00    +0.000 A 
ATOM     17  C   UNL     1       1.171   3.003  20.857  0.00  0.00    +0.000 A 
ATOM     18  C   UNL     1       0.842   2.894  19.508  0.00  0.00    +0.000 A 
ATOM     19  C   UNL     1       1.410   3.766  18.578  0.00  0.00    +0.000 A 
ENDBRANCH  13  14
ENDBRANCH   1  13
TORSDOF 8
ENDMDL
MODEL 3
REMARK VINA RESULT:      -6.5      0.788      1.521
REMARK  Name = 
REMARK  10 active torsions:
REMARK  status: ('A' for Active; 'I' for Inactive)
REMARK    1  A    between atoms: C_1  and  C_2
REMARK    2  A    between atoms: C_2  and  C_3
REMARK    3  A    between atoms: C_2  and  O_4
REMARK    4  A    between atoms: O_4  and  C_5
REMARK    5  A    between atoms: C_5  and  C_6
REMARK    6  A    between atoms: C_6  and  O_7
REMARK    7  A    between atoms: C_6  and  C_8
REMARK    8  A    between atoms: C_8  and  S_9
REMARK    9  A    between atoms: S_9  and  C_12
REMARK   10  A    between atoms: C_12  and  C_13
REMARK                            x       y       z     vdW  Elec       q    Type
REMARK                         _______ _______ _______ _____ _____    ______ ____
ROOT
ATOM      1  S   UNL     1       5.009   4.660  18.008  0.00  0.00    +0.000 S 
ATOM      2  O   UNL     1       6.326   4.248  18.461  0.00  0.00    +0.000 OA
ATOM      3  O   UNL     1       4.269   5.691  18.720  0.00  0.00    +0.000 OA
ENDROOT
BRANCH   1   4
ATOM      4  C   UNL     1       5.213   5.237  16.333  0.00  0.00    +0.000 C 
BRANCH   4   5
ATOM      5  C   UNL     1       6.042   4.255  15.498  0.00  0.00    +0.000 C 
BRANCH   5   6
ATOM      6  O   UNL     1       7.439   4.530  15.669  0.00  0.00    +0.000 OA
ATOM      7  H   UNL     1       7.611   4.673  16.621  0.00  0.00    +0.000 HD
ENDBRANCH   5   6
BRANCH   5   8
ATOM      8  C   UNL     1       5.633   4.243  14.012  0.00  0.00    +0.000 C 
BRANCH   8   9
ATOM      9  O   UNL     1       6.426   3.321  13.260  0.00  0.00    +0.000 OA
BRANCH   9  11
ATOM     10  C   UNL     1       6.265   1.754  11.460  0.00  0.00    +0.000 C 
ATOM     11  C   UNL     1       5.955   3.176  11.911  0.00  0.00    +0.000 C 
ATOM     12  C   UNL     1       4.454   3.442  11.829  0.00  0.00    +0.000 C 
ENDBRANCH   9  11
ENDBRANCH   8   9
ENDBRANCH   5   8
ENDBRANCH   4   5
ENDBRANCH   1   4
BRANCH   1  13
ATOM     13  C   UNL     1       3.945   3.223  17.857  0.00  0.00    +0.000 C 
BRANCH  13  14
ATOM     14  C   UNL     1       3.041   3.219  19.064  0.00  0.00    +0.000 A 
ATOM     15  C   UNL     1       3.504   2.755  20.303  0.00  0.00    +0.000 A 
ATOM     16  C   UNL     1       2.625   2.613  21.378  0.00  0.00    +0.000 A 
ATOM     17  C   UNL     1       1.280   2.939  21.225  0.00  0.00    +0.000 A 
ATOM     18  C   UNL     1       0.811   3.422  20.006  0.00  0.00    +0.000 A 
ATOM     19  C   UNL     1       1.688   3.565  18.929  0.00  0.00    +0.000 A 
ENDBRANCH  13  14
ENDBRANCH   1  13
TORSDOF 8
ENDMDL
MODEL 4
REMARK VINA RESULT:      -6.4      1.369      1.771
REMARK  Name = 
REMARK  10 active torsions:
REMARK  status: ('A' for Active; 'I' for Inactive)
REMARK    1  A    between atoms: C_1  and  C_2
REMARK    2  A    between atoms: C_2  and  C_3
REMARK    3  A    between atoms: C_2  and  O_4
REMARK    4  A    between atoms: O_4  and  C_5
REMARK    5  A    between atoms: C_5  and  C_6
REMARK    6  A    between atoms: C_6  and  O_7
REMARK    7  A    between atoms: C_6  and  C_8
REMARK    8  A    between atoms: C_8  and  S_9
REMARK    9  A    between atoms: S_9  and  C_12
REMARK   10  A    between atoms: C_12  and  C_13
REMARK                            x       y       z     vdW  Elec       q    Type
REMARK                         _______ _______ _______ _____ _____    ______ ____
ROOT
ATOM      1  S   UNL     1       4.659   5.721  17.522  0.00  0.00    +0.000 S 
ATOM      2  O   UNL     1       4.072   7.045  17.411  0.00  0.00    +0.000 OA
ATOM      3  O   UNL     1       4.066   4.586  16.830  0.00  0.00    +0.000 OA
ENDROOT
BRANCH   1   4
ATOM      4  C   UNL     1       6.335   5.865  16.933  0.00  0.00    +0.000 C 
BRANCH   4   5
ATOM      5  C   UNL     1       6.811   4.566  16.271  0.00  0.00    +0.000 C 
BRANCH   5   6
ATOM      6  O   UNL     1       7.992   4.089  16.929  0.00  0.00    +0.000 OA
ATOM      7  H   UNL     1       7.988   4.420  17.850  0.00  0.00    +0.000 HD
ENDBRANCH   5   6
BRANCH   5   8
ATOM      8  C   UNL     1       7.015   4.711  14.751  0.00  0.00    +0.000 C 
BRANCH   8   9
ATOM      9  O   UNL     1       5.858   4.290  14.026  0.00  0.00    +0.000 OA
BRANCH   9  11
ATOM     10  C   UNL     1       4.921   3.367  12.027  0.00  0.00    +0.000 C 
ATOM     11  C   UNL     1       6.199   3.567  12.832  0.00  0.00    +0.000 C 
ATOM     12  C   UNL     1       7.228   4.335  12.009  0.00  0.00    +0.000 C 
ENDBRANCH   9  11
ENDBRANCH   8   9
ENDBRANCH   5   8
ENDBRANCH   4   5
ENDBRANCH   1   4
BRANCH   1  13
ATOM     13  C   UNL     1       4.831   5.281  19.253  0.00  0.00    +0.000 C 
BRANCH  13  14
ATOM     14  C   UNL     1       3.536   4.633  19.672  0.00  0.00    +0.000 A 
ATOM     15  C   UNL     1       2.418   5.415  19.997  0.00  0.00    +0.000 A 
ATOM     16  C   UNL     1       1.271   4.822  20.527  0.00  0.00    +0.000 A 
ATOM     17  C   UNL     1       1.229   3.444  20.728  0.00  0.00    +0.000 A 
ATOM     18  C   UNL     1       2.324   2.654  20.388  0.00  0.00    +0.000 A 
ATOM     19  C   UNL     1       3.473   3.245  19.859  0.00  0.00    +0.000 A 
ENDBRANCH  13  14
ENDBRANCH   1  13
TORSDOF 8
ENDMDL
MODEL 5
REMARK VINA RESULT:      -6.3      1.356      1.626
REMARK  Name = 
REMARK  10 active torsions:
REMARK  status: ('A' for Active; 'I' for Inactive)
REMARK    1  A    between atoms: C_1  and  C_2
REMARK    2  A    between atoms: C_2  and  C_3
REMARK    3  A    between atoms: C_2  and  O_4
REMARK    4  A    between atoms: O_4  and  C_5
REMARK    5  A    between atoms: C_5  and  C_6
REMARK    6  A    between atoms: C_6  and  O_7
REMARK    7  A    between atoms: C_6  and  C_8
REMARK    8  A    between atoms: C_8  and  S_9
REMARK    9  A    between atoms: S_9  and  C_12
REMARK   10  A    between atoms: C_12  and  C_13
REMARK                            x       y       z     vdW  Elec       q    Type
REMARK                         _______ _______ _______ _____ _____    ______ ____
ROOT
ATOM      1  S   UNL     1       4.751   4.326  17.543  0.00  0.00    +0.000 S 
ATOM      2  O   UNL     1       4.450   2.919  17.351  0.00  0.00    +0.000 OA
ATOM      3  O   UNL     1       5.786   4.743  18.479  0.00  0.00    +0.000 OA
ENDROOT
BRANCH   1   4
ATOM      4  C   UNL     1       5.217   4.963  15.945  0.00  0.00    +0.000 C 
BRANCH   4   5
ATOM      5  C   UNL     1       6.473   4.267  15.407  0.00  0.00    +0.000 C 
BRANCH   5   6
ATOM      6  O   UNL     1       7.639   4.811  16.039  0.00  0.00    +0.000 OA
ATOM      7  H   UNL     1       7.845   4.268  16.827  0.00  0.00    +0.000 HD
ENDBRANCH   5   6
BRANCH   5   8
ATOM      8  C   UNL     1       6.572   4.318  13.870  0.00  0.00    +0.000 C 
BRANCH   8   9
ATOM      9  O   UNL     1       5.303   4.084  13.256  0.00  0.00    +0.000 OA
BRANCH   9  11
ATOM     10  C   UNL     1       4.223   3.196  11.315  0.00  0.00    +0.000 C 
ATOM     11  C   UNL     1       5.343   2.990  12.328  0.00  0.00    +0.000 C 
ATOM     12  C   UNL     1       6.693   2.929  11.619  0.00  0.00    +0.000 C 
ENDBRANCH   9  11
ENDBRANCH   8   9
ENDBRANCH   5   8
ENDBRANCH   4   5
ENDBRANCH   1   4
BRANCH   1  13
ATOM     13  C   UNL     1       3.247   5.214  17.955  0.00  0.00    +0.000 C 
BRANCH  13  14
ATOM     14  C   UNL     1       2.509   4.379  18.971  0.00  0.00    +0.000 A 
ATOM     15  C   UNL     1       1.445   3.553  18.581  0.00  0.00    +0.000 A 
ATOM     16  C   UNL     1       0.671   2.899  19.540  0.00  0.00    +0.000 A 
ATOM     17  C   UNL     1       0.956   3.058  20.893  0.00  0.00    +0.000 A 
ATOM     18  C   UNL     1       2.025   3.857  21.293  0.00  0.00    +0.000 A 
ATOM     19  C   UNL     1       2.801   4.514  20.336  0.00  0.00    +0.000 A 
ENDBRANCH  13  14
ENDBRANCH   1  13
TORSDOF 8
ENDMDL
MODEL 6
REMARK VINA RESULT:      -6.3      1.628      1.968
REMARK  Name = 
REMARK  10 active torsions:
REMARK  status: ('A' for Active; 'I' for Inactive)
REMARK    1  A    between atoms: C_1  and  C_2
REMARK    2  A    between atoms: C_2  and  C_3
REMARK    3  A    between atoms: C_2  and  O_4
REMARK    4  A    between atoms: O_4  and  C_5
REMARK    5  A    between atoms: C_5  and  C_6
REMARK    6  A    between atoms: C_6  and  O_7
REMARK    7  A    between atoms: C_6  and  C_8
REMARK    8  A    between atoms: C_8  and  S_9
REMARK    9  A    between atoms: S_9  and  C_12
REMARK   10  A    between atoms: C_12  and  C_13
REMARK                            x       y       z     vdW  Elec       q    Type
REMARK                         _______ _______ _______ _____ _____    ______ ____
ROOT
ATOM      1  S   UNL     1       4.810   5.266  17.903  0.00  0.00    +0.000 S 
ATOM      2  O   UNL     1       4.940   4.245  18.926  0.00  0.00    +0.000 OA
ATOM      3  O   UNL     1       5.781   6.347  17.806  0.00  0.00    +0.000 OA
ENDROOT
BRANCH   1   4
ATOM      4  C   UNL     1       4.832   4.414  16.337  0.00  0.00    +0.000 C 
BRANCH   4   5
ATOM      5  C   UNL     1       6.033   4.837  15.484  0.00  0.00    +0.000 C 
BRANCH   5   6
ATOM      6  O   UNL     1       5.899   6.213  15.104  0.00  0.00    +0.000 OA
ATOM      7  H   UNL     1       5.925   6.761  15.913  0.00  0.00    +0.000 HD
ENDBRANCH   5   6
BRANCH   5   8
ATOM      8  C   UNL     1       6.252   3.919  14.266  0.00  0.00    +0.000 C 
BRANCH   8   9
ATOM      9  O   UNL     1       5.063   3.799  13.481  0.00  0.00    +0.000 OA
BRANCH   9  11
ATOM     10  C   UNL     1       6.633   2.953  11.886  0.00  0.00    +0.000 C 
ATOM     11  C   UNL     1       5.345   3.746  12.074  0.00  0.00    +0.000 C 
ATOM     12  C   UNL     1       4.199   3.082  11.316  0.00  0.00    +0.000 C 
ENDBRANCH   9  11
ENDBRANCH   8   9
ENDBRANCH   5   8
ENDBRANCH   4   5
ENDBRANCH   1   4
BRANCH   1  13
ATOM     13  C   UNL     1       3.175   6.001  17.988  0.00  0.00    +0.000 C 
BRANCH  13  14
ATOM     14  C   UNL     1       2.271   4.984  18.639  0.00  0.00    +0.000 A 
ATOM     15  C   UNL     1       2.033   5.021  20.021  0.00  0.00    +0.000 A 
ATOM     16  C   UNL     1       1.320   3.995  20.641  0.00  0.00    +0.000 A 
ATOM     17  C   UNL     1       0.833   2.929  19.888  0.00  0.00    +0.000 A 
ATOM     18  C   UNL     1       1.043   2.893  18.512  0.00  0.00    +0.000 A 
ATOM     19  C   UNL     1       1.758   3.918  17.888  0.00  0.00    +0.000 A 
ENDBRANCH  13  14
ENDBRANCH   1  13
TORSDOF 8
ENDMDL
MODEL 7
REMARK VINA RESULT:      -6.2      1.497      1.809
REMARK  Name = 
REMARK  10 active torsions:
REMARK  status: ('A' for Active; 'I' for Inactive)
REMARK    1  A    between atoms: C_1  and  C_2
REMARK    2  A    between atoms: C_2  and  C_3
REMARK    3  A    between atoms: C_2  and  O_4
REMARK    4  A    between atoms: O_4  and  C_5
REMARK    5  A    between atoms: C_5  and  C_6
REMARK    6  A    between atoms: C_6  and  O_7
REMARK    7  A    between atoms: C_6  and  C_8
REMARK    8  A    between atoms: C_8  and  S_9
REMARK    9  A    between atoms: S_9  and  C_12
REMARK   10  A    between atoms: C_12  and  C_13
REMARK                            x       y       z     vdW  Elec       q    Type
REMARK                         _______ _______ _______ _____ _____    ______ ____
ROOT
ATOM      1  S   UNL     1       5.775   4.814  18.845  0.00  0.00    +0.000 S 
ATOM      2  O   UNL     1       5.414   3.426  19.071  0.00  0.00    +0.000 OA
ATOM      3  O   UNL     1       6.670   5.506  19.761  0.00  0.00    +0.000 OA
ENDROOT
BRANCH   1   4
ATOM      4  C   UNL     1       6.537   4.879  17.235  0.00  0.00    +0.000 C 
BRANCH   4   5
ATOM      5  C   UNL     1       5.573   4.416  16.138  0.00  0.00    +0.000 C 
BRANCH   5   6
ATOM      6  O   UNL     1       5.205   3.048  16.358  0.00  0.00    +0.000 OA
ATOM      7  H   UNL     1       4.674   2.999  17.178  0.00  0.00    +0.000 HD
ENDBRANCH   5   6
BRANCH   5   8
ATOM      8  C   UNL     1       6.129   4.643  14.719  0.00  0.00    +0.000 C 
BRANCH   8   9
ATOM      9  O   UNL     1       6.475   3.407  14.089  0.00  0.00    +0.000 OA
BRANCH   9  11
ATOM     10  C   UNL     1       4.947   3.636  12.263  0.00  0.00    +0.000 C 
ATOM     11  C   UNL     1       6.412   3.492  12.657  0.00  0.00    +0.000 C 
ATOM     12  C   UNL     1       7.217   4.684  12.148  0.00  0.00    +0.000 C 
ENDBRANCH   9  11
ENDBRANCH   8   9
ENDBRANCH   5   8
ENDBRANCH   4   5
ENDBRANCH   1   4
BRANCH   1  13
ATOM     13  C   UNL     1       4.289   5.805  18.675  0.00  0.00    +0.000 C 
BRANCH  13  14
ATOM     14  C   UNL     1       3.130   4.930  19.081  0.00  0.00    +0.000 A 
ATOM     15  C   UNL     1       2.370   4.255  18.113  0.00  0.00    +0.000 A 
ATOM     16  C   UNL     1       1.211   3.569  18.478  0.00  0.00    +0.000 A 
ATOM     17  C   UNL     1       0.805   3.544  19.810  0.00  0.00    +0.000 A 
ATOM     18  C   UNL     1       1.563   4.191  20.783  0.00  0.00    +0.000 A 
ATOM     19  C   UNL     1       2.723   4.879  20.421  0.00  0.00    +0.000 A 
ENDBRANCH  13  14
ENDBRANCH   1  13
TORSDOF 8
ENDMDL
MODEL 8
REMARK VINA RESULT:      -6.2      1.155      1.473
REMARK  Name = 
REMARK  10 active torsions:
REMARK  status: ('A' for Active; 'I' for Inactive)
REMARK    1  A    between atoms: C_1  and  C_2
REMARK    2  A    between atoms: C_2  and  C_3
REMARK    3  A    between atoms: C_2  and  O_4
REMARK    4  A    between atoms: O_4  and  C_5
REMARK    5  A    between atoms: C_5  and  C_6
REMARK    6  A    between atoms: C_6  and  O_7
REMARK    7  A    between atoms: C_6  and  C_8
REMARK    8  A    between atoms: C_8  and  S_9
REMARK    9  A    between atoms: S_9  and  C_12
REMARK   10  A    between atoms: C_12  and  C_13
REMARK                            x       y       z     vdW  Elec       q    Type
REMARK                         _______ _______ _______ _____ _____    ______ ____
ROOT
ATOM      1  S   UNL     1       4.783   5.464  18.741  0.00  0.00    +0.000 S 
ATOM      2  O   UNL     1       5.891   5.219  19.646  0.00  0.00    +0.000 OA
ATOM      3  O   UNL     1       3.648   6.275  19.158  0.00  0.00    +0.000 OA
ENDROOT
BRANCH   1   4
ATOM      4  C   UNL     1       5.477   6.254  17.301  0.00  0.00    +0.000 C 
BRANCH   4   5
ATOM      5  C   UNL     1       6.944   5.861  17.097  0.00  0.00    +0.000 C 
BRANCH   5   6
ATOM      6  O   UNL     1       7.708   7.014  16.719  0.00  0.00    +0.000 OA
ATOM      7  H   UNL     1       7.173   7.813  16.901  0.00  0.00    +0.000 HD
ENDBRANCH   5   6
BRANCH   5   8
ATOM      8  C   UNL     1       7.119   4.700  16.100  0.00  0.00    +0.000 C 
BRANCH   8   9
ATOM      9  O   UNL     1       7.589   5.165  14.833  0.00  0.00    +0.000 OA
BRANCH   9  11
ATOM     10  C   UNL     1       5.619   4.158  13.922  0.00  0.00    +0.000 C 
ATOM     11  C   UNL     1       7.121   4.348  13.748  0.00  0.00    +0.000 C 
ATOM     12  C   UNL     1       7.420   5.008  12.405  0.00  0.00    +0.000 C 
ENDBRANCH   9  11
ENDBRANCH   8   9
ENDBRANCH   5   8
ENDBRANCH   4   5
ENDBRANCH   1   4
BRANCH   1  13
ATOM     13  C   UNL     1       4.146   3.902  18.129  0.00  0.00    +0.000 C 
BRANCH  13  14
ATOM     14  C   UNL     1       3.127   3.421  19.131  0.00  0.00    +0.000 A 
ATOM     15  C   UNL     1       1.755   3.541  18.868  0.00  0.00    +0.000 A 
ATOM     16  C   UNL     1       0.818   3.235  19.856  0.00  0.00    +0.000 A 
ATOM     17  C   UNL     1       1.242   2.799  21.108  0.00  0.00    +0.000 A 
ATOM     18  C   UNL     1       2.601   2.653  21.374  0.00  0.00    +0.000 A 
ATOM     19  C   UNL     1       3.541   2.960  20.389  0.00  0.00    +0.000 A 
ENDBRANCH  13  14
ENDBRANCH   1  13
TORSDOF 8
ENDMDL
MODEL 9
REMARK VINA RESULT:      -6.2      2.497      2.932
REMARK  Name = 
REMARK  10 active torsions:
REMARK  status: ('A' for Active; 'I' for Inactive)
REMARK    1  A    between atoms: C_1  and  C_2
REMARK    2  A    between atoms: C_2  and  C_3
REMARK    3  A    between atoms: C_2  and  O_4
REMARK    4  A    between atoms: O_4  and  C_5
REMARK    5  A    between atoms: C_5  and  C_6
REMARK    6  A    between atoms: C_6  and  O_7
REMARK    7  A    between atoms: C_6  and  C_8
REMARK    8  A    between atoms: C_8  and  S_9
REMARK    9  A    between atoms: S_9  and  C_12
REMARK   10  A    between atoms: C_12  and  C_13
REMARK                            x       y       z     vdW  Elec       q    Type
REMARK                         _______ _______ _______ _____ _____    ______ ____
ROOT
ATOM      1  S   UNL     1       6.538   6.100  16.514  0.00  0.00    +0.000 S 
ATOM      2  O   UNL     1       7.729   6.914  16.679  0.00  0.00    +0.000 OA
ATOM      3  O   UNL     1       5.484   6.505  15.597  0.00  0.00    +0.000 OA
ENDROOT
BRANCH   1   4
ATOM      4  C   UNL     1       7.097   4.495  15.978  0.00  0.00    +0.000 C 
BRANCH   4   5
ATOM      5  C   UNL     1       7.022   4.354  14.453  0.00  0.00    +0.000 C 
BRANCH   5   6
ATOM      6  O   UNL     1       7.346   5.605  13.833  0.00  0.00    +0.000 OA
ATOM      7  H   UNL     1       6.571   5.903  13.316  0.00  0.00    +0.000 HD
ENDBRANCH   5   6
BRANCH   5   8
ATOM      8  C   UNL     1       5.665   3.805  13.971  0.00  0.00    +0.000 C 
BRANCH   8   9
ATOM      9  O   UNL     1       5.499   3.983  12.563  0.00  0.00    +0.000 OA
BRANCH   9  11
ATOM     10  C   UNL     1       3.987   3.365  10.816  0.00  0.00    +0.000 C 
ATOM     11  C   UNL     1       4.874   2.849  11.942  0.00  0.00    +0.000 C 
ATOM     12  C   UNL     1       5.922   1.886  11.392  0.00  0.00    +0.000 C 
ENDBRANCH   9  11
ENDBRANCH   8   9
ENDBRANCH   5   8
ENDBRANCH   4   5
ENDBRANCH   1   4
BRANCH   1  13
ATOM     13  C   UNL     1       5.788   5.798  18.116  0.00  0.00    +0.000 C 
BRANCH  13  14
ATOM     14  C   UNL     1       4.407   5.250  17.857  0.00  0.00    +0.000 A 
ATOM     15  C   UNL     1       3.270   6.031  18.107  0.00  0.00    +0.000 A 
ATOM     16  C   UNL     1       1.995   5.473  18.010  0.00  0.00    +0.000 A 
ATOM     17  C   UNL     1       1.844   4.135  17.655  0.00  0.00    +0.000 A 
ATOM     18  C   UNL     1       2.965   3.354  17.382  0.00  0.00    +0.000 A 
ATOM     19  C   UNL     1       4.243   3.910  17.480  0.00  0.00    +0.000 A 
ENDBRANCH  13  14
ENDBRANCH   1  13
TORSDOF 8
ENDMDL
