MODEL 1
REMARK VINA RESULT:      -7.8      0.000      0.000
REMARK  Name = 
REMARK  6 active torsions:
REMARK  status: ('A' for Active; 'I' for Inactive)
REMARK    1  A    between atoms: C_1  and  C_2
REMARK    2  A    between atoms: C_6  and  C_7
REMARK    3  A    between atoms: C_9  and  C_10
REMARK    4  A    between atoms: N_17  and  C_18
REMARK    5  A    between atoms: C_21  and  S_22
REMARK    6  A    between atoms: S_22  and  N_23
REMARK                            x       y       z     vdW  Elec       q    Type
REMARK                         _______ _______ _______ _____ _____    ______ ____
ROOT
ATOM      1  C   UNL     1       0.154  11.891  19.095  0.00  0.00    +0.000 C 
ATOM      2  C   UNL     1       1.248  10.984  18.517  0.00  0.00    +0.000 C 
ATOM      3  C   UNL     1       1.346  10.055  19.690  0.00  0.00    +0.000 C 
ATOM      4  N   UNL     1       1.086  10.620  20.822  0.00  0.00    +0.000 NA
ATOM      5  N   UNL     1       0.457  11.800  20.551  0.00  0.00    +0.000 N 
ENDROOT
BRANCH   1  11
ATOM      6  C   UNL     1      -4.992  12.030  18.702  0.00  0.00    +0.000 C 
ATOM      7  C   UNL     1      -3.657  11.414  18.387  0.00  0.00    +0.000 A 
ATOM      8  C   UNL     1      -3.599  10.340  17.494  0.00  0.00    +0.000 A 
ATOM      9  C   UNL     1      -2.380   9.736  17.208  0.00  0.00    +0.000 A 
ATOM     10  C   UNL     1      -1.203  10.246  17.757  0.00  0.00    +0.000 A 
ATOM     11  C   UNL     1      -1.208  11.391  18.579  0.00  0.00    +0.000 A 
ATOM     12  C   UNL     1      -2.461  11.932  18.927  0.00  0.00    +0.000 A 
ENDBRANCH   1  11
BRANCH   3  13
ATOM     13  C   UNL     1       1.622   8.616  19.627  0.00  0.00    +0.000 A 
ATOM     14  C   UNL     1       1.445   7.788  20.727  0.00  0.00    +0.000 A 
ATOM     15  C   UNL     1       1.750   6.435  20.616  0.00  0.00    +0.000 A 
ATOM     16  C   UNL     1       2.256   5.920  19.419  0.00  0.00    +0.000 A 
ATOM     17  C   UNL     1       2.504   6.762  18.340  0.00  0.00    +0.000 A 
ATOM     18  C   UNL     1       2.192   8.111  18.445  0.00  0.00    +0.000 A 
ENDBRANCH   3  13
BRANCH   5  19
ATOM     19  C   UNL     1      -0.474  12.181  21.522  0.00  0.00    +0.000 A 
ATOM     20  C   UNL     1      -0.942  13.492  21.645  0.00  0.00    +0.000 A 
ATOM     21  C   UNL     1      -2.003  13.774  22.507  0.00  0.00    +0.000 A 
ATOM     22  C   UNL     1      -2.597  12.729  23.222  0.00  0.00    +0.000 A 
ATOM     23  C   UNL     1      -2.055  11.458  23.241  0.00  0.00    +0.000 A 
ATOM     24  C   UNL     1      -0.986  11.203  22.406  0.00  0.00    +0.000 A 
BRANCH  22  25
ATOM     25  S   UNL     1      -4.203  12.927  23.895  0.00  0.00    +0.000 S 
ATOM     26  O   UNL     1      -4.476  11.911  24.894  0.00  0.00    +0.000 OA
ATOM     27  O   UNL     1      -4.453  14.337  24.130  0.00  0.00    +0.000 OA
BRANCH  25  28
ATOM     28  N   UNL     1      -5.098  12.511  22.533  0.00  0.00    +0.000 NA
ATOM     29  H   UNL     1      -5.861  13.162  22.363  0.00  0.00    +0.000 HD
ATOM     30  H   UNL     1      -4.502  12.275  21.745  0.00  0.00    +0.000 HD
ENDBRANCH  25  28
ENDBRANCH  22  25
ENDBRANCH   5  19
TORSDOF 5
ENDMDL
MODEL 2
REMARK VINA RESULT:      -7.6      0.712      1.329
REMARK  Name = 
REMARK  6 active torsions:
REMARK  status: ('A' for Active; 'I' for Inactive)
REMARK    1  A    between atoms: C_1  and  C_2
REMARK    2  A    between atoms: C_6  and  C_7
REMARK    3  A    between atoms: C_9  and  C_10
REMARK    4  A    between atoms: N_17  and  C_18
REMARK    5  A    between atoms: C_21  and  S_22
REMARK    6  A    between atoms: S_22  and  N_23
REMARK                            x       y       z     vdW  Elec       q    Type
REMARK                         _______ _______ _______ _____ _____    ______ ____
ROOT
ATOM      1  C   UNL     1       0.143  12.022  19.106  0.00  0.00    +0.000 C 
ATOM      2  C   UNL     1       1.240  11.140  18.495  0.00  0.00    +0.000 C 
ATOM      3  C   UNL     1       1.392  10.212  19.662  0.00  0.00    +0.000 C 
ATOM      4  N   UNL     1       1.151  10.770  20.803  0.00  0.00    +0.000 NA
ATOM      5  N   UNL     1       0.490  11.935  20.553  0.00  0.00    +0.000 N 
ENDROOT
BRANCH   1  11
ATOM      6  C   UNL     1      -5.010  12.098  18.792  0.00  0.00    +0.000 C 
ATOM      7  C   UNL     1      -3.674  11.486  18.475  0.00  0.00    +0.000 A 
ATOM      8  C   UNL     1      -3.619  10.385  17.614  0.00  0.00    +0.000 A 
ATOM      9  C   UNL     1      -2.398   9.784  17.327  0.00  0.00    +0.000 A 
ATOM     10  C   UNL     1      -1.218  10.323  17.842  0.00  0.00    +0.000 A 
ATOM     11  C   UNL     1      -1.222  11.492  18.628  0.00  0.00    +0.000 A 
ATOM     12  C   UNL     1      -2.475  12.032  18.979  0.00  0.00    +0.000 A 
ENDBRANCH   1  11
BRANCH   3  13
ATOM     13  C   UNL     1       1.698   8.779  19.588  0.00  0.00    +0.000 A 
ATOM     14  C   UNL     1       2.147   8.186  18.416  0.00  0.00    +0.000 A 
ATOM     15  C   UNL     1       2.393   6.818  18.397  0.00  0.00    +0.000 A 
ATOM     16  C   UNL     1       2.164   6.042  19.537  0.00  0.00    +0.000 A 
ATOM     17  C   UNL     1       1.643   6.622  20.690  0.00  0.00    +0.000 A 
ATOM     18  C   UNL     1       1.405   7.990  20.714  0.00  0.00    +0.000 A 
ENDBRANCH   3  13
BRANCH   5  19
ATOM     19  C   UNL     1      -0.422  12.294  21.550  0.00  0.00    +0.000 A 
ATOM     20  C   UNL     1      -0.795  13.619  21.790  0.00  0.00    +0.000 A 
ATOM     21  C   UNL     1      -1.843  13.898  22.670  0.00  0.00    +0.000 A 
ATOM     22  C   UNL     1      -2.518  12.839  23.285  0.00  0.00    +0.000 A 
ATOM     23  C   UNL     1      -2.069  11.535  23.190  0.00  0.00    +0.000 A 
ATOM     24  C   UNL     1      -1.012  11.279  22.340  0.00  0.00    +0.000 A 
BRANCH  22  25
ATOM     25  S   UNL     1      -4.112  13.092  23.967  0.00  0.00    +0.000 S 
ATOM     26  O   UNL     1      -4.958  13.831  23.049  0.00  0.00    +0.000 OA
ATOM     27  O   UNL     1      -4.552  11.874  24.621  0.00  0.00    +0.000 OA
BRANCH  25  28
ATOM     28  N   UNL     1      -3.693  14.160  25.196  0.00  0.00    +0.000 NA
ATOM     29  H   UNL     1      -2.766  13.972  25.568  0.00  0.00    +0.000 HD
ATOM     30  H   UNL     1      -3.911  15.123  24.953  0.00  0.00    +0.000 HD
ENDBRANCH  25  28
ENDBRANCH  22  25
ENDBRANCH   5  19
TORSDOF 5
ENDMDL
MODEL 3
REMARK VINA RESULT:      -7.3      0.409      1.252
REMARK  Name = 
REMARK  6 active torsions:
REMARK  status: ('A' for Active; 'I' for Inactive)
REMARK    1  A    between atoms: C_1  and  C_2
REMARK    2  A    between atoms: C_6  and  C_7
REMARK    3  A    between atoms: C_9  and  C_10
REMARK    4  A    between atoms: N_17  and  C_18
REMARK    5  A    between atoms: C_21  and  S_22
REMARK    6  A    between atoms: S_22  and  N_23
REMARK                            x       y       z     vdW  Elec       q    Type
REMARK                         _______ _______ _______ _____ _____    ______ ____
ROOT
ATOM      1  C   UNL     1       0.204  12.070  19.292  0.00  0.00    +0.000 C 
ATOM      2  C   UNL     1       1.299  11.179  18.691  0.00  0.00    +0.000 C 
ATOM      3  C   UNL     1       1.350  10.182  19.809  0.00  0.00    +0.000 C 
ATOM      4  N   UNL     1       1.067  10.685  20.966  0.00  0.00    +0.000 NA
ATOM      5  N   UNL     1       0.466  11.889  20.748  0.00  0.00    +0.000 N 
ENDROOT
BRANCH   1  11
ATOM      6  C   UNL     1      -2.801   9.409  16.045  0.00  0.00    +0.000 C 
ATOM      7  C   UNL     1      -2.610  10.391  17.168  0.00  0.00    +0.000 A 
ATOM      8  C   UNL     1      -3.736  10.909  17.815  0.00  0.00    +0.000 A 
ATOM      9  C   UNL     1      -3.586  11.839  18.838  0.00  0.00    +0.000 A 
ATOM     10  C   UNL     1      -2.310  12.203  19.268  0.00  0.00    +0.000 A 
ATOM     11  C   UNL     1      -1.151  11.625  18.712  0.00  0.00    +0.000 A 
ATOM     12  C   UNL     1      -1.323  10.754  17.618  0.00  0.00    +0.000 A 
ENDBRANCH   1  11
BRANCH   3  13
ATOM     13  C   UNL     1       1.604   8.744  19.669  0.00  0.00    +0.000 A 
ATOM     14  C   UNL     1       1.454   7.867  20.735  0.00  0.00    +0.000 A 
ATOM     15  C   UNL     1       1.737   6.518  20.550  0.00  0.00    +0.000 A 
ATOM     16  C   UNL     1       2.194   6.054  19.314  0.00  0.00    +0.000 A 
ATOM     17  C   UNL     1       2.416   6.943  18.266  0.00  0.00    +0.000 A 
ATOM     18  C   UNL     1       2.126   8.290  18.446  0.00  0.00    +0.000 A 
ENDBRANCH   3  13
BRANCH   5  19
ATOM     19  C   UNL     1      -0.485  12.229  21.714  0.00  0.00    +0.000 A 
ATOM     20  C   UNL     1      -0.880  13.549  21.953  0.00  0.00    +0.000 A 
ATOM     21  C   UNL     1      -1.962  13.810  22.795  0.00  0.00    +0.000 A 
ATOM     22  C   UNL     1      -2.650  12.739  23.374  0.00  0.00    +0.000 A 
ATOM     23  C   UNL     1      -2.186  11.440  23.283  0.00  0.00    +0.000 A 
ATOM     24  C   UNL     1      -1.096  11.202  22.471  0.00  0.00    +0.000 A 
BRANCH  22  25
ATOM     25  S   UNL     1      -4.271  12.971  23.998  0.00  0.00    +0.000 S 
ATOM     26  O   UNL     1      -4.588  11.973  25.002  0.00  0.00    +0.000 OA
ATOM     27  O   UNL     1      -4.506  14.387  24.207  0.00  0.00    +0.000 OA
BRANCH  25  28
ATOM     28  N   UNL     1      -5.134  12.550  22.617  0.00  0.00    +0.000 NA
ATOM     29  H   UNL     1      -5.396  13.363  22.066  0.00  0.00    +0.000 HD
ATOM     30  H   UNL     1      -4.704  11.772  22.124  0.00  0.00    +0.000 HD
ENDBRANCH  25  28
ENDBRANCH  22  25
ENDBRANCH   5  19
TORSDOF 5
ENDMDL
MODEL 4
REMARK VINA RESULT:      -7.1      3.980      5.398
REMARK  Name = 
REMARK  6 active torsions:
REMARK  status: ('A' for Active; 'I' for Inactive)
REMARK    1  A    between atoms: C_1  and  C_2
REMARK    2  A    between atoms: C_6  and  C_7
REMARK    3  A    between atoms: C_9  and  C_10
REMARK    4  A    between atoms: N_17  and  C_18
REMARK    5  A    between atoms: C_21  and  S_22
REMARK    6  A    between atoms: S_22  and  N_23
REMARK                            x       y       z     vdW  Elec       q    Type
REMARK                         _______ _______ _______ _____ _____    ______ ____
ROOT
ATOM      1  C   UNL     1      -0.506  11.638  18.873  0.00  0.00    +0.000 C 
ATOM      2  C   UNL     1      -0.422  10.236  18.256  0.00  0.00    +0.000 C 
ATOM      3  C   UNL     1       1.062  10.071  18.392  0.00  0.00    +0.000 C 
ATOM      4  N   UNL     1       1.717  11.182  18.310  0.00  0.00    +0.000 NA
ATOM      5  N   UNL     1       0.820  12.195  18.481  0.00  0.00    +0.000 N 
ENDROOT
BRANCH   1  11
ATOM      6  C   UNL     1      -0.058   9.459  23.532  0.00  0.00    +0.000 C 
ATOM      7  C   UNL     1      -0.673  10.459  22.593  0.00  0.00    +0.000 A 
ATOM      8  C   UNL     1      -1.578  11.398  23.097  0.00  0.00    +0.000 A 
ATOM      9  C   UNL     1      -2.180  12.315  22.244  0.00  0.00    +0.000 A 
ATOM     10  C   UNL     1      -1.829  12.347  20.894  0.00  0.00    +0.000 A 
ATOM     11  C   UNL     1      -0.844  11.487  20.368  0.00  0.00    +0.000 A 
ATOM     12  C   UNL     1      -0.312  10.507  21.230  0.00  0.00    +0.000 A 
ENDBRANCH   1  11
BRANCH   3  13
ATOM     13  C   UNL     1       1.765   8.815  18.676  0.00  0.00    +0.000 A 
ATOM     14  C   UNL     1       2.560   8.190  17.726  0.00  0.00    +0.000 A 
ATOM     15  C   UNL     1       3.180   6.986  18.043  0.00  0.00    +0.000 A 
ATOM     16  C   UNL     1       2.983   6.397  19.295  0.00  0.00    +0.000 A 
ATOM     17  C   UNL     1       2.127   6.985  20.222  0.00  0.00    +0.000 A 
ATOM     18  C   UNL     1       1.514   8.191  19.911  0.00  0.00    +0.000 A 
ENDBRANCH   3  13
BRANCH   5  19
ATOM     19  C   UNL     1       1.356  13.326  19.103  0.00  0.00    +0.000 A 
ATOM     20  C   UNL     1       2.474  13.269  19.939  0.00  0.00    +0.000 A 
ATOM     21  C   UNL     1       3.073  14.450  20.382  0.00  0.00    +0.000 A 
ATOM     22  C   UNL     1       2.553  15.677  19.961  0.00  0.00    +0.000 A 
ATOM     23  C   UNL     1       1.360  15.765  19.268  0.00  0.00    +0.000 A 
ATOM     24  C   UNL     1       0.763  14.588  18.865  0.00  0.00    +0.000 A 
BRANCH  22  25
ATOM     25  S   UNL     1       3.535  17.126  20.056  0.00  0.00    +0.000 S 
ATOM     26  O   UNL     1       3.995  17.354  21.413  0.00  0.00    +0.000 OA
ATOM     27  O   UNL     1       4.428  17.174  18.913  0.00  0.00    +0.000 OA
BRANCH  25  28
ATOM     28  N   UNL     1       2.333  18.264  19.761  0.00  0.00    +0.000 NA
ATOM     29  H   UNL     1       1.498  17.844  19.360  0.00  0.00    +0.000 HD
ATOM     30  H   UNL     1       2.205  18.894  20.548  0.00  0.00    +0.000 HD
ENDBRANCH  25  28
ENDBRANCH  22  25
ENDBRANCH   5  19
TORSDOF 5
ENDMDL
MODEL 5
REMARK VINA RESULT:      -7.1      4.326      6.774
REMARK  Name = 
REMARK  6 active torsions:
REMARK  status: ('A' for Active; 'I' for Inactive)
REMARK    1  A    between atoms: C_1  and  C_2
REMARK    2  A    between atoms: C_6  and  C_7
REMARK    3  A    between atoms: C_9  and  C_10
REMARK    4  A    between atoms: N_17  and  C_18
REMARK    5  A    between atoms: C_21  and  S_22
REMARK    6  A    between atoms: S_22  and  N_23
REMARK                            x       y       z     vdW  Elec       q    Type
REMARK                         _______ _______ _______ _____ _____    ______ ____
ROOT
ATOM      1  C   UNL     1      -0.334  11.656  20.760  0.00  0.00    +0.000 C 
ATOM      2  C   UNL     1      -1.814  11.428  20.428  0.00  0.00    +0.000 C 
ATOM      3  C   UNL     1      -1.772  11.983  19.037  0.00  0.00    +0.000 C 
ATOM      4  N   UNL     1      -0.901  12.925  18.881  0.00  0.00    +0.000 NA
ATOM      5  N   UNL     1      -0.050  12.871  19.945  0.00  0.00    +0.000 N 
ENDROOT
BRANCH   1  11
ATOM      6  C   UNL     1       2.334   8.436  17.732  0.00  0.00    +0.000 C 
ATOM      7  C   UNL     1       1.686   8.789  19.042  0.00  0.00    +0.000 A 
ATOM      8  C   UNL     1       1.834   7.921  20.128  0.00  0.00    +0.000 A 
ATOM      9  C   UNL     1       1.221   8.211  21.342  0.00  0.00    +0.000 A 
ATOM     10  C   UNL     1       0.517   9.405  21.500  0.00  0.00    +0.000 A 
ATOM     11  C   UNL     1       0.433  10.355  20.461  0.00  0.00    +0.000 A 
ATOM     12  C   UNL     1       0.984  10.001  19.214  0.00  0.00    +0.000 A 
ENDBRANCH   1  11
BRANCH   3  13
ATOM     13  C   UNL     1      -2.550  11.498  17.892  0.00  0.00    +0.000 A 
ATOM     14  C   UNL     1      -3.894  11.809  17.736  0.00  0.00    +0.000 A 
ATOM     15  C   UNL     1      -4.589  11.296  16.645  0.00  0.00    +0.000 A 
ATOM     16  C   UNL     1      -3.949  10.454  15.732  0.00  0.00    +0.000 A 
ATOM     17  C   UNL     1      -2.622  10.081  15.928  0.00  0.00    +0.000 A 
ATOM     18  C   UNL     1      -1.924  10.599  17.011  0.00  0.00    +0.000 A 
ENDBRANCH   3  13
BRANCH   5  19
ATOM     19  C   UNL     1       1.256  13.266  19.645  0.00  0.00    +0.000 A 
ATOM     20  C   UNL     1       1.730  13.377  18.335  0.00  0.00    +0.000 A 
ATOM     21  C   UNL     1       2.979  13.951  18.092  0.00  0.00    +0.000 A 
ATOM     22  C   UNL     1       3.732  14.428  19.169  0.00  0.00    +0.000 A 
ATOM     23  C   UNL     1       3.362  14.189  20.479  0.00  0.00    +0.000 A 
ATOM     24  C   UNL     1       2.138  13.592  20.703  0.00  0.00    +0.000 A 
BRANCH  22  25
ATOM     25  S   UNL     1       5.021  15.583  18.897  0.00  0.00    +0.000 S 
ATOM     26  O   UNL     1       5.588  16.033  20.154  0.00  0.00    +0.000 OA
ATOM     27  O   UNL     1       5.843  15.131  17.790  0.00  0.00    +0.000 OA
BRANCH  25  28
ATOM     28  N   UNL     1       4.096  16.858  18.306  0.00  0.00    +0.000 NA
ATOM     29  H   UNL     1       3.141  16.831  18.654  0.00  0.00    +0.000 HD
ATOM     30  H   UNL     1       4.589  17.744  18.367  0.00  0.00    +0.000 HD
ENDBRANCH  25  28
ENDBRANCH  22  25
ENDBRANCH   5  19
TORSDOF 5
ENDMDL
MODEL 6
REMARK VINA RESULT:      -7.1      0.982      1.338
REMARK  Name = 
REMARK  6 active torsions:
REMARK  status: ('A' for Active; 'I' for Inactive)
REMARK    1  A    between atoms: C_1  and  C_2
REMARK    2  A    between atoms: C_6  and  C_7
REMARK    3  A    between atoms: C_9  and  C_10
REMARK    4  A    between atoms: N_17  and  C_18
REMARK    5  A    between atoms: C_21  and  S_22
REMARK    6  A    between atoms: S_22  and  N_23
REMARK                            x       y       z     vdW  Elec       q    Type
REMARK                         _______ _______ _______ _____ _____    ______ ____
ROOT
ATOM      1  C   UNL     1      -0.185  12.058  18.965  0.00  0.00    +0.000 C 
ATOM      2  C   UNL     1       1.043  11.238  18.545  0.00  0.00    +0.000 C 
ATOM      3  C   UNL     1       1.060  10.323  19.732  0.00  0.00    +0.000 C 
ATOM      4  N   UNL     1       0.611  10.869  20.814  0.00  0.00    +0.000 NA
ATOM      5  N   UNL     1      -0.066  11.995  20.449  0.00  0.00    +0.000 N 
ENDROOT
BRANCH   1  11
ATOM      6  C   UNL     1      -5.205  11.892  17.774  0.00  0.00    +0.000 C 
ATOM      7  C   UNL     1      -3.812  11.329  17.716  0.00  0.00    +0.000 A 
ATOM      8  C   UNL     1      -3.568  10.202  16.926  0.00  0.00    +0.000 A 
ATOM      9  C   UNL     1      -2.294   9.646  16.877  0.00  0.00    +0.000 A 
ATOM     10  C   UNL     1      -1.241  10.255  17.561  0.00  0.00    +0.000 A 
ATOM     11  C   UNL     1      -1.425  11.451  18.285  0.00  0.00    +0.000 A 
ATOM     12  C   UNL     1      -2.740  11.946  18.393  0.00  0.00    +0.000 A 
ENDBRANCH   1  11
BRANCH   3  13
ATOM     13  C   UNL     1       1.452   8.909  19.724  0.00  0.00    +0.000 A 
ATOM     14  C   UNL     1       1.321   8.107  20.848  0.00  0.00    +0.000 A 
ATOM     15  C   UNL     1       1.736   6.781  20.790  0.00  0.00    +0.000 A 
ATOM     16  C   UNL     1       2.306   6.269  19.620  0.00  0.00    +0.000 A 
ATOM     17  C   UNL     1       2.506   7.093  18.516  0.00  0.00    +0.000 A 
ATOM     18  C   UNL     1       2.085   8.415  18.570  0.00  0.00    +0.000 A 
ENDBRANCH   3  13
BRANCH   5  19
ATOM     19  C   UNL     1      -1.141  12.304  21.287  0.00  0.00    +0.000 A 
ATOM     20  C   UNL     1      -1.531  11.484  22.350  0.00  0.00    +0.000 A 
ATOM     21  C   UNL     1      -2.489  11.933  23.260  0.00  0.00    +0.000 A 
ATOM     22  C   UNL     1      -3.032  13.212  23.104  0.00  0.00    +0.000 A 
ATOM     23  C   UNL     1      -2.785  13.977  21.980  0.00  0.00    +0.000 A 
ATOM     24  C   UNL     1      -1.858  13.505  21.072  0.00  0.00    +0.000 A 
BRANCH  22  25
ATOM     25  S   UNL     1      -3.820  14.002  24.455  0.00  0.00    +0.000 S 
ATOM     26  O   UNL     1      -2.844  14.554  25.375  0.00  0.00    +0.000 OA
ATOM     27  O   UNL     1      -4.951  14.769  23.967  0.00  0.00    +0.000 OA
BRANCH  25  28
ATOM     28  N   UNL     1      -4.464  12.640  25.202  0.00  0.00    +0.000 NA
ATOM     29  H   UNL     1      -3.747  12.072  25.647  0.00  0.00    +0.000 HD
ATOM     30  H   UNL     1      -5.289  12.863  25.752  0.00  0.00    +0.000 HD
ENDBRANCH  25  28
ENDBRANCH  22  25
ENDBRANCH   5  19
TORSDOF 5
ENDMDL
MODEL 7
REMARK VINA RESULT:      -7.1      1.067      1.926
REMARK  Name = 
REMARK  6 active torsions:
REMARK  status: ('A' for Active; 'I' for Inactive)
REMARK    1  A    between atoms: C_1  and  C_2
REMARK    2  A    between atoms: C_6  and  C_7
REMARK    3  A    between atoms: C_9  and  C_10
REMARK    4  A    between atoms: N_17  and  C_18
REMARK    5  A    between atoms: C_21  and  S_22
REMARK    6  A    between atoms: S_22  and  N_23
REMARK                            x       y       z     vdW  Elec       q    Type
REMARK                         _______ _______ _______ _____ _____    ______ ____
ROOT
ATOM      1  C   UNL     1      -0.364  12.550  19.106  0.00  0.00    +0.000 C 
ATOM      2  C   UNL     1       0.846  11.767  18.580  0.00  0.00    +0.000 C 
ATOM      3  C   UNL     1       0.982  10.843  19.752  0.00  0.00    +0.000 C 
ATOM      4  N   UNL     1       0.609  11.368  20.872  0.00  0.00    +0.000 NA
ATOM      5  N   UNL     1      -0.124  12.478  20.575  0.00  0.00    +0.000 N 
ENDROOT
BRANCH   1  11
ATOM      6  C   UNL     1      -2.964   9.627  15.736  0.00  0.00    +0.000 C 
ATOM      7  C   UNL     1      -2.911  10.551  16.921  0.00  0.00    +0.000 A 
ATOM      8  C   UNL     1      -4.088  10.822  17.624  0.00  0.00    +0.000 A 
ATOM      9  C   UNL     1      -4.070  11.695  18.707  0.00  0.00    +0.000 A 
ATOM     10  C   UNL     1      -2.863  12.246  19.138  0.00  0.00    +0.000 A 
ATOM     11  C   UNL     1      -1.639  11.916  18.521  0.00  0.00    +0.000 A 
ATOM     12  C   UNL     1      -1.692  11.102  17.372  0.00  0.00    +0.000 A 
ENDBRANCH   1  11
BRANCH   3  13
ATOM     13  C   UNL     1       1.409   9.440  19.698  0.00  0.00    +0.000 A 
ATOM     14  C   UNL     1       1.908   8.872  18.534  0.00  0.00    +0.000 A 
ATOM     15  C   UNL     1       2.270   7.529  18.534  0.00  0.00    +0.000 A 
ATOM     16  C   UNL     1       2.107   6.753  19.685  0.00  0.00    +0.000 A 
ATOM     17  C   UNL     1       1.537   7.302  20.830  0.00  0.00    +0.000 A 
ATOM     18  C   UNL     1       1.183   8.645  20.835  0.00  0.00    +0.000 A 
ENDBRANCH   3  13
BRANCH   5  19
ATOM     19  C   UNL     1      -1.137  12.752  21.499  0.00  0.00    +0.000 A 
ATOM     20  C   UNL     1      -1.771  13.995  21.577  0.00  0.00    +0.000 A 
ATOM     21  C   UNL     1      -2.896  14.152  22.390  0.00  0.00    +0.000 A 
ATOM     22  C   UNL     1      -3.383  13.052  23.101  0.00  0.00    +0.000 A 
ATOM     23  C   UNL     1      -2.687  11.859  23.166  0.00  0.00    +0.000 A 
ATOM     24  C   UNL     1      -1.559  11.730  22.381  0.00  0.00    +0.000 A 
BRANCH  22  25
ATOM     25  S   UNL     1      -5.028  13.054  23.704  0.00  0.00    +0.000 S 
ATOM     26  O   UNL     1      -5.417  14.380  24.146  0.00  0.00    +0.000 OA
ATOM     27  O   UNL     1      -5.861  12.251  22.827  0.00  0.00    +0.000 OA
BRANCH  25  28
ATOM     28  N   UNL     1      -4.788  12.138  25.093  0.00  0.00    +0.000 NA
ATOM     29  H   UNL     1      -5.361  11.298  25.102  0.00  0.00    +0.000 HD
ATOM     30  H   UNL     1      -3.801  12.031  25.311  0.00  0.00    +0.000 HD
ENDBRANCH  25  28
ENDBRANCH  22  25
ENDBRANCH   5  19
TORSDOF 5
ENDMDL
MODEL 8
REMARK VINA RESULT:      -6.9      1.286      1.538
REMARK  Name = 
REMARK  6 active torsions:
REMARK  status: ('A' for Active; 'I' for Inactive)
REMARK    1  A    between atoms: C_1  and  C_2
REMARK    2  A    between atoms: C_6  and  C_7
REMARK    3  A    between atoms: C_9  and  C_10
REMARK    4  A    between atoms: N_17  and  C_18
REMARK    5  A    between atoms: C_21  and  S_22
REMARK    6  A    between atoms: S_22  and  N_23
REMARK                            x       y       z     vdW  Elec       q    Type
REMARK                         _______ _______ _______ _____ _____    ______ ____
ROOT
ATOM      1  C   UNL     1      -0.966  12.433  18.889  0.00  0.00    +0.000 C 
ATOM      2  C   UNL     1       0.304  11.675  18.482  0.00  0.00    +0.000 C 
ATOM      3  C   UNL     1       0.481  10.924  19.767  0.00  0.00    +0.000 C 
ATOM      4  N   UNL     1       0.051  11.563  20.805  0.00  0.00    +0.000 NA
ATOM      5  N   UNL     1      -0.751  12.570  20.357  0.00  0.00    +0.000 N 
ENDROOT
BRANCH   1  11
ATOM      6  C   UNL     1      -6.022  11.520  18.377  0.00  0.00    +0.000 C 
ATOM      7  C   UNL     1      -4.582  11.163  18.134  0.00  0.00    +0.000 A 
ATOM      8  C   UNL     1      -4.282  10.068  17.318  0.00  0.00    +0.000 A 
ATOM      9  C   UNL     1      -2.958   9.702  17.100  0.00  0.00    +0.000 A 
ATOM     10  C   UNL     1      -1.925  10.470  17.638  0.00  0.00    +0.000 A 
ATOM     11  C   UNL     1      -2.184  11.640  18.379  0.00  0.00    +0.000 A 
ATOM     12  C   UNL     1      -3.531  11.942  18.662  0.00  0.00    +0.000 A 
ENDBRANCH   1  11
BRANCH   3  13
ATOM     13  C   UNL     1       1.004   9.559  19.901  0.00  0.00    +0.000 A 
ATOM     14  C   UNL     1       0.935   8.864  21.101  0.00  0.00    +0.000 A 
ATOM     15  C   UNL     1       1.473   7.584  21.177  0.00  0.00    +0.000 A 
ATOM     16  C   UNL     1       2.101   7.014  20.066  0.00  0.00    +0.000 A 
ATOM     17  C   UNL     1       2.237   7.738  18.885  0.00  0.00    +0.000 A 
ATOM     18  C   UNL     1       1.693   9.013  18.804  0.00  0.00    +0.000 A 
ENDBRANCH   3  13
BRANCH   5  19
ATOM     19  C   UNL     1      -1.796  12.890  21.227  0.00  0.00    +0.000 A 
ATOM     20  C   UNL     1      -2.706  13.920  20.968  0.00  0.00    +0.000 A 
ATOM     21  C   UNL     1      -3.834  14.072  21.776  0.00  0.00    +0.000 A 
ATOM     22  C   UNL     1      -4.046  13.174  22.827  0.00  0.00    +0.000 A 
ATOM     23  C   UNL     1      -3.088  12.251  23.202  0.00  0.00    +0.000 A 
ATOM     24  C   UNL     1      -1.964  12.133  22.411  0.00  0.00    +0.000 A 
BRANCH  22  25
ATOM     25  S   UNL     1      -5.644  13.001  23.525  0.00  0.00    +0.000 S 
ATOM     26  O   UNL     1      -6.065  14.231  24.169  0.00  0.00    +0.000 OA
ATOM     27  O   UNL     1      -6.495  12.276  22.599  0.00  0.00    +0.000 OA
BRANCH  25  28
ATOM     28  N   UNL     1      -5.264  11.921  24.757  0.00  0.00    +0.000 NA
ATOM     29  H   UNL     1      -6.072  11.697  25.332  0.00  0.00    +0.000 HD
ATOM     30  H   UNL     1      -4.701  11.145  24.421  0.00  0.00    +0.000 HD
ENDBRANCH  25  28
ENDBRANCH  22  25
ENDBRANCH   5  19
TORSDOF 5
ENDMDL
MODEL 9
REMARK VINA RESULT:      -6.9      4.538      6.952
REMARK  Name = 
REMARK  6 active torsions:
REMARK  status: ('A' for Active; 'I' for Inactive)
REMARK    1  A    between atoms: C_1  and  C_2
REMARK    2  A    between atoms: C_6  and  C_7
REMARK    3  A    between atoms: C_9  and  C_10
REMARK    4  A    between atoms: N_17  and  C_18
REMARK    5  A    between atoms: C_21  and  S_22
REMARK    6  A    between atoms: S_22  and  N_23
REMARK                            x       y       z     vdW  Elec       q    Type
REMARK                         _______ _______ _______ _____ _____    ______ ____
ROOT
ATOM      1  C   UNL     1      -0.549  11.840  20.878  0.00  0.00    +0.000 C 
ATOM      2  C   UNL     1      -0.391  13.344  21.140  0.00  0.00    +0.000 C 
ATOM      3  C   UNL     1       0.709  13.582  20.150  0.00  0.00    +0.000 C 
ATOM      4  N   UNL     1       1.486  12.563  19.984  0.00  0.00    +0.000 NA
ATOM      5  N   UNL     1       0.846  11.476  20.500  0.00  0.00    +0.000 N 
ENDROOT
BRANCH   1  11
ATOM      6  C   UNL     1      -2.636   9.845  16.597  0.00  0.00    +0.000 C 
ATOM      7  C   UNL     1      -2.696  10.733  17.809  0.00  0.00    +0.000 A 
ATOM      8  C   UNL     1      -3.890  11.398  18.105  0.00  0.00    +0.000 A 
ATOM      9  C   UNL     1      -3.963  12.246  19.204  0.00  0.00    +0.000 A 
ATOM     10  C   UNL     1      -2.866  12.379  20.056  0.00  0.00    +0.000 A 
ATOM     11  C   UNL     1      -1.680  11.646  19.851  0.00  0.00    +0.000 A 
ATOM     12  C   UNL     1      -1.596  10.863  18.683  0.00  0.00    +0.000 A 
ENDBRANCH   1  11
BRANCH   3  13
ATOM     13  C   UNL     1       0.896  14.796  19.347  0.00  0.00    +0.000 A 
ATOM     14  C   UNL     1       2.157  15.238  18.973  0.00  0.00    +0.000 A 
ATOM     15  C   UNL     1       2.275  16.412  18.236  0.00  0.00    +0.000 A 
ATOM     16  C   UNL     1       1.139  17.153  17.900  0.00  0.00    +0.000 A 
ATOM     17  C   UNL     1      -0.119  16.751  18.338  0.00  0.00    +0.000 A 
ATOM     18  C   UNL     1      -0.240  15.575  19.067  0.00  0.00    +0.000 A 
ENDBRANCH   3  13
BRANCH   5  19
ATOM     19  C   UNL     1       1.141  10.280  19.840  0.00  0.00    +0.000 A 
ATOM     20  C   UNL     1       1.535  10.235  18.499  0.00  0.00    +0.000 A 
ATOM     21  C   UNL     1       1.993   9.037  17.948  0.00  0.00    +0.000 A 
ATOM     22  C   UNL     1       2.068   7.899  18.757  0.00  0.00    +0.000 A 
ATOM     23  C   UNL     1       1.538   7.875  20.034  0.00  0.00    +0.000 A 
ATOM     24  C   UNL     1       1.060   9.061  20.553  0.00  0.00    +0.000 A 
BRANCH  22  25
ATOM     25  S   UNL     1       3.084   6.551  18.285  0.00  0.00    +0.000 S 
ATOM     26  O   UNL     1       2.288   5.471  17.731  0.00  0.00    +0.000 OA
ATOM     27  O   UNL     1       4.275   7.056  17.628  0.00  0.00    +0.000 OA
BRANCH  25  28
ATOM     28  N   UNL     1       3.567   6.052  19.816  0.00  0.00    +0.000 NA
ATOM     29  H   UNL     1       3.322   6.728  20.535  0.00  0.00    +0.000 HD
ATOM     30  H   UNL     1       3.328   5.079  19.991  0.00  0.00    +0.000 HD
ENDBRANCH  25  28
ENDBRANCH  22  25
ENDBRANCH   5  19
TORSDOF 5
ENDMDL
