MODEL 1
REMARK VINA RESULT:      -8.4      0.000      0.000
REMARK  Name = 
REMARK  7 active torsions:
REMARK  status: ('A' for Active; 'I' for Inactive)
REMARK    1  A    between atoms: C_1  and  O_2
REMARK    2  A    between atoms: O_2  and  C_3
REMARK    3  A    between atoms: C_6  and  C_7
REMARK    4  A    between atoms: C_7  and  C_8
REMARK    5  A    between atoms: C_7  and  N_19
REMARK    6  A    between atoms: N_12  and  C_13
REMARK    7  A    between atoms: N_22  and  C_23
REMARK                            x       y       z     vdW  Elec       q    Type
REMARK                         _______ _______ _______ _____ _____    ______ ____
ROOT
ATOM      1  C   UNL     1       3.602   6.101  18.532  0.00  0.00    +0.000 C 
ENDROOT
BRANCH   1   5
ATOM      2  C   UNL     1       0.849   9.457  18.964  0.00  0.00    +0.000 A 
ATOM      3  C   UNL     1       1.254   8.719  20.075  0.00  0.00    +0.000 A 
ATOM      4  C   UNL     1       2.225   7.716  19.951  0.00  0.00    +0.000 A 
ATOM      5  C   UNL     1       2.801   7.402  18.700  0.00  0.00    +0.000 A 
ATOM      6  C   UNL     1       2.459   8.234  17.639  0.00  0.00    +0.000 A 
ATOM      7  C   UNL     1       1.499   9.245  17.757  0.00  0.00    +0.000 A 
BRANCH   2   9
ATOM      8  C   UNL     1       0.117  11.681  19.347  0.00  0.00    +0.000 C 
ATOM      9  O   UNL     1      -0.205  10.306  19.155  0.00  0.00    +0.000 OA
ENDBRANCH   2   9
ENDBRANCH   1   5
BRANCH   1  10
ATOM     10  N   UNL     1       5.085   6.091  18.374  0.00  0.00    +0.000 NA
ATOM     11  C   UNL     1       5.930   4.909  18.253  0.00  0.00    +0.000 C 
ATOM     12  C   UNL     1       6.195   4.286  16.854  0.00  0.00    +0.000 C 
ATOM     13  N   UNL     1       5.936   5.188  15.712  0.00  0.00    +0.000 N 
ATOM     14  C   UNL     1       5.900   6.644  15.954  0.00  0.00    +0.000 C 
ATOM     15  C   UNL     1       5.611   7.085  17.415  0.00  0.00    +0.000 C 
BRANCH  13  16
ATOM     16  C   UNL     1       6.301   4.715  14.444  0.00  0.00    +0.000 A 
ATOM     17  C   UNL     1       7.434   5.231  13.781  0.00  0.00    +0.000 A 
ATOM     18  C   UNL     1       7.800   4.829  12.475  0.00  0.00    +0.000 A 
ATOM     19  C   UNL     1       7.040   3.903  11.795  0.00  0.00    +0.000 A 
ATOM     20  C   UNL     1       5.938   3.353  12.439  0.00  0.00    +0.000 A 
ATOM     21  C   UNL     1       5.591   3.733  13.744  0.00  0.00    +0.000 A 
ENDBRANCH  13  16
ENDBRANCH   1  10
BRANCH   1  22
ATOM     22  C   UNL     1       2.747   4.907  17.997  0.00  0.00    +0.000 A 
ATOM     23  N   UNL     1       3.147   4.317  16.866  0.00  0.00    +0.000 NA
ATOM     24  N   UNL     1       2.364   3.238  16.640  0.00  0.00    +0.000 NA
ATOM     25  N   UNL     1       1.440   3.144  17.567  0.00  0.00    +0.000 NA
ATOM     26  N   UNL     1       1.699   4.117  18.481  0.00  0.00    +0.000 N 
BRANCH  26  27
ATOM     27  C   UNL     1       0.825   4.077  19.653  0.00  0.00    +0.000 C 
ATOM     28  C   UNL     1       0.533   2.632  20.194  0.00  0.00    +0.000 C 
ATOM     29  C   UNL     1       1.785   1.940  20.748  0.00  0.00    +0.000 C 
ATOM     30  C   UNL     1       2.536   2.791  21.765  0.00  0.00    +0.000 C 
ATOM     31  C   UNL     1       2.599   4.253  21.386  0.00  0.00    +0.000 C 
ATOM     32  C   UNL     1       1.304   4.847  20.869  0.00  0.00    +0.000 C 
ENDBRANCH  26  27
ENDBRANCH   1  22
TORSDOF 6
ENDMDL
MODEL 2
REMARK VINA RESULT:      -8.0      7.462     11.046
REMARK  Name = 
REMARK  7 active torsions:
REMARK  status: ('A' for Active; 'I' for Inactive)
REMARK    1  A    between atoms: C_1  and  O_2
REMARK    2  A    between atoms: O_2  and  C_3
REMARK    3  A    between atoms: C_6  and  C_7
REMARK    4  A    between atoms: C_7  and  C_8
REMARK    5  A    between atoms: C_7  and  N_19
REMARK    6  A    between atoms: N_12  and  C_13
REMARK    7  A    between atoms: N_22  and  C_23
REMARK                            x       y       z     vdW  Elec       q    Type
REMARK                         _______ _______ _______ _____ _____    ______ ____
ROOT
ATOM      1  C   UNL     1      -2.389  13.053  22.244  0.00  0.00    +0.000 C 
ENDROOT
BRANCH   1   5
ATOM      2  C   UNL     1      -0.181   9.340  21.648  0.00  0.00    +0.000 A 
ATOM      3  C   UNL     1      -0.356  10.241  20.599  0.00  0.00    +0.000 A 
ATOM      4  C   UNL     1      -0.965  11.484  20.821  0.00  0.00    +0.000 A 
ATOM      5  C   UNL     1      -1.445  11.850  22.098  0.00  0.00    +0.000 A 
ATOM      6  C   UNL     1      -1.149  10.977  23.140  0.00  0.00    +0.000 A 
ATOM      7  C   UNL     1      -0.531   9.740  22.929  0.00  0.00    +0.000 A 
BRANCH   2   9
ATOM      8  C   UNL     1       1.523   8.063  20.602  0.00  0.00    +0.000 C 
ATOM      9  O   UNL     1       0.285   8.100  21.307  0.00  0.00    +0.000 OA
ENDBRANCH   2   9
ENDBRANCH   1   5
BRANCH   1  10
ATOM     10  N   UNL     1      -1.892  14.459  22.289  0.00  0.00    +0.000 NA
ATOM     11  C   UNL     1      -0.594  14.898  22.787  0.00  0.00    +0.000 C 
ATOM     12  C   UNL     1       0.630  14.937  21.831  0.00  0.00    +0.000 C 
ATOM     13  N   UNL     1       0.295  14.950  20.392  0.00  0.00    +0.000 N 
ATOM     14  C   UNL     1      -1.062  15.368  19.984  0.00  0.00    +0.000 C 
ATOM     15  C   UNL     1      -2.166  15.250  21.071  0.00  0.00    +0.000 C 
BRANCH  13  16
ATOM     16  C   UNL     1       1.362  15.133  19.500  0.00  0.00    +0.000 A 
ATOM     17  C   UNL     1       1.594  16.389  18.902  0.00  0.00    +0.000 A 
ATOM     18  C   UNL     1       2.618  16.599  17.949  0.00  0.00    +0.000 A 
ATOM     19  C   UNL     1       3.436  15.559  17.566  0.00  0.00    +0.000 A 
ATOM     20  C   UNL     1       3.250  14.319  18.166  0.00  0.00    +0.000 A 
ATOM     21  C   UNL     1       2.251  14.117  19.131  0.00  0.00    +0.000 A 
ENDBRANCH  13  16
ENDBRANCH   1  10
BRANCH   1  22
ATOM     22  C   UNL     1      -3.771  12.689  22.877  0.00  0.00    +0.000 A 
ATOM     23  N   UNL     1      -3.768  12.129  24.091  0.00  0.00    +0.000 NA
ATOM     24  N   UNL     1      -5.046  12.011  24.516  0.00  0.00    +0.000 NA
ATOM     25  N   UNL     1      -5.875  12.432  23.591  0.00  0.00    +0.000 NA
ATOM     26  N   UNL     1      -5.115  12.945  22.586  0.00  0.00    +0.000 N 
BRANCH  26  27
ATOM     27  C   UNL     1      -5.892  13.572  21.517  0.00  0.00    +0.000 C 
ATOM     28  C   UNL     1      -5.172  13.599  20.122  0.00  0.00    +0.000 C 
ATOM     29  C   UNL     1      -4.959  12.197  19.536  0.00  0.00    +0.000 C 
ATOM     30  C   UNL     1      -6.233  11.363  19.506  0.00  0.00    +0.000 C 
ATOM     31  C   UNL     1      -7.084  11.531  20.744  0.00  0.00    +0.000 C 
ATOM     32  C   UNL     1      -7.249  12.957  21.231  0.00  0.00    +0.000 C 
ENDBRANCH  26  27
ENDBRANCH   1  22
TORSDOF 6
ENDMDL
MODEL 3
REMARK VINA RESULT:      -7.9      1.641      2.468
REMARK  Name = 
REMARK  7 active torsions:
REMARK  status: ('A' for Active; 'I' for Inactive)
REMARK    1  A    between atoms: C_1  and  O_2
REMARK    2  A    between atoms: O_2  and  C_3
REMARK    3  A    between atoms: C_6  and  C_7
REMARK    4  A    between atoms: C_7  and  C_8
REMARK    5  A    between atoms: C_7  and  N_19
REMARK    6  A    between atoms: N_12  and  C_13
REMARK    7  A    between atoms: N_22  and  C_23
REMARK                            x       y       z     vdW  Elec       q    Type
REMARK                         _______ _______ _______ _____ _____    ______ ____
ROOT
ATOM      1  C   UNL     1       5.006   5.606  18.970  0.00  0.00    +0.000 C 
ENDROOT
BRANCH   1   5
ATOM      2  C   UNL     1       1.656   8.388  19.229  0.00  0.00    +0.000 A 
ATOM      3  C   UNL     1       2.364   8.234  18.038  0.00  0.00    +0.000 A 
ATOM      4  C   UNL     1       3.364   7.258  17.924  0.00  0.00    +0.000 A 
ATOM      5  C   UNL     1       3.706   6.425  19.012  0.00  0.00    +0.000 A 
ATOM      6  C   UNL     1       2.903   6.529  20.143  0.00  0.00    +0.000 A 
ATOM      7  C   UNL     1       1.895   7.492  20.261  0.00  0.00    +0.000 A 
BRANCH   2   9
ATOM      8  C   UNL     1       0.306   9.941  18.049  0.00  0.00    +0.000 C 
ATOM      9  O   UNL     1       0.809   9.459  19.292  0.00  0.00    +0.000 OA
ENDBRANCH   2   9
ENDBRANCH   1   5
BRANCH   1  10
ATOM     10  N   UNL     1       6.229   6.085  18.263  0.00  0.00    +0.000 NA
ATOM     11  C   UNL     1       7.359   5.264  17.844  0.00  0.00    +0.000 C 
ATOM     12  C   UNL     1       7.336   4.567  16.455  0.00  0.00    +0.000 C 
ATOM     13  N   UNL     1       6.378   5.139  15.487  0.00  0.00    +0.000 N 
ATOM     14  C   UNL     1       5.882   6.512  15.709  0.00  0.00    +0.000 C 
ATOM     15  C   UNL     1       5.973   7.042  17.166  0.00  0.00    +0.000 C 
BRANCH  13  16
ATOM     16  C   UNL     1       6.431   4.636  14.179  0.00  0.00    +0.000 A 
ATOM     17  C   UNL     1       5.455   3.730  13.715  0.00  0.00    +0.000 A 
ATOM     18  C   UNL     1       5.508   3.150  12.426  0.00  0.00    +0.000 A 
ATOM     19  C   UNL     1       6.540   3.456  11.568  0.00  0.00    +0.000 A 
ATOM     20  C   UNL     1       7.497   4.372  11.988  0.00  0.00    +0.000 A 
ATOM     21  C   UNL     1       7.430   4.968  13.257  0.00  0.00    +0.000 A 
ENDBRANCH  13  16
ENDBRANCH   1  10
BRANCH   1  22
ATOM     22  C   UNL     1       4.789   4.078  19.216  0.00  0.00    +0.000 A 
ATOM     23  N   UNL     1       5.376   3.534  20.286  0.00  0.00    +0.000 NA
ATOM     24  N   UNL     1       4.968   2.249  20.397  0.00  0.00    +0.000 NA
ATOM     25  N   UNL     1       4.174   1.936  19.402  0.00  0.00    +0.000 NA
ATOM     26  N   UNL     1       3.967   3.076  18.690  0.00  0.00    +0.000 N 
BRANCH  26  27
ATOM     27  C   UNL     1       3.000   2.928  17.602  0.00  0.00    +0.000 C 
ATOM     28  C   UNL     1       2.119   1.631  17.691  0.00  0.00    +0.000 C 
ATOM     29  C   UNL     1       1.184   1.629  18.907  0.00  0.00    +0.000 C 
ATOM     30  C   UNL     1       0.348   2.898  19.018  0.00  0.00    +0.000 C 
ATOM     31  C   UNL     1       1.119   4.151  18.674  0.00  0.00    +0.000 C 
ATOM     32  C   UNL     1       1.998   4.057  17.443  0.00  0.00    +0.000 C 
ENDBRANCH  26  27
ENDBRANCH   1  22
TORSDOF 6
ENDMDL
MODEL 4
REMARK VINA RESULT:      -7.8      1.603      2.271
REMARK  Name = 
REMARK  7 active torsions:
REMARK  status: ('A' for Active; 'I' for Inactive)
REMARK    1  A    between atoms: C_1  and  O_2
REMARK    2  A    between atoms: O_2  and  C_3
REMARK    3  A    between atoms: C_6  and  C_7
REMARK    4  A    between atoms: C_7  and  C_8
REMARK    5  A    between atoms: C_7  and  N_19
REMARK    6  A    between atoms: N_12  and  C_13
REMARK    7  A    between atoms: N_22  and  C_23
REMARK                            x       y       z     vdW  Elec       q    Type
REMARK                         _______ _______ _______ _____ _____    ______ ____
ROOT
ATOM      1  C   UNL     1       4.877   5.890  18.700  0.00  0.00    +0.000 C 
ENDROOT
BRANCH   1   5
ATOM      2  C   UNL     1       1.505   8.571  19.378  0.00  0.00    +0.000 A 
ATOM      3  C   UNL     1       2.145   8.531  18.141  0.00  0.00    +0.000 A 
ATOM      4  C   UNL     1       3.153   7.588  17.890  0.00  0.00    +0.000 A 
ATOM      5  C   UNL     1       3.569   6.675  18.883  0.00  0.00    +0.000 A 
ATOM      6  C   UNL     1       2.830   6.669  20.062  0.00  0.00    +0.000 A 
ATOM      7  C   UNL     1       1.816   7.598  20.316  0.00  0.00    +0.000 A 
BRANCH   2   9
ATOM      8  C   UNL     1       0.721  10.262  20.846  0.00  0.00    +0.000 C 
ATOM      9  O   UNL     1       0.645   9.616  19.578  0.00  0.00    +0.000 OA
ENDBRANCH   2   9
ENDBRANCH   1   5
BRANCH   1  10
ATOM     10  N   UNL     1       5.986   6.376  17.829  0.00  0.00    +0.000 NA
ATOM     11  C   UNL     1       7.165   5.617  17.431  0.00  0.00    +0.000 C 
ATOM     12  C   UNL     1       7.119   4.723  16.161  0.00  0.00    +0.000 C 
ATOM     13  N   UNL     1       6.036   5.050  15.210  0.00  0.00    +0.000 N 
ATOM     14  C   UNL     1       5.410   6.385  15.281  0.00  0.00    +0.000 C 
ATOM     15  C   UNL     1       5.548   7.131  16.636  0.00  0.00    +0.000 C 
BRANCH  13  16
ATOM     16  C   UNL     1       6.048   4.366  13.985  0.00  0.00    +0.000 A 
ATOM     17  C   UNL     1       7.218   4.315  13.200  0.00  0.00    +0.000 A 
ATOM     18  C   UNL     1       7.254   3.692  11.930  0.00  0.00    +0.000 A 
ATOM     19  C   UNL     1       6.121   3.107  11.410  0.00  0.00    +0.000 A 
ATOM     20  C   UNL     1       4.964   3.113  12.180  0.00  0.00    +0.000 A 
ATOM     21  C   UNL     1       4.935   3.708  13.450  0.00  0.00    +0.000 A 
ENDBRANCH  13  16
ENDBRANCH   1  10
BRANCH   1  22
ATOM     22  C   UNL     1       4.740   4.366  19.018  0.00  0.00    +0.000 A 
ATOM     23  N   UNL     1       5.425   3.885  20.060  0.00  0.00    +0.000 NA
ATOM     24  N   UNL     1       5.077   2.592  20.248  0.00  0.00    +0.000 NA
ATOM     25  N   UNL     1       4.224   2.211  19.328  0.00  0.00    +0.000 NA
ATOM     26  N   UNL     1       3.921   3.315  18.592  0.00  0.00    +0.000 N 
BRANCH  26  27
ATOM     27  C   UNL     1       2.882   3.089  17.587  0.00  0.00    +0.000 C 
ATOM     28  C   UNL     1       2.124   1.721  17.734  0.00  0.00    +0.000 C 
ATOM     29  C   UNL     1       1.298   1.635  19.023  0.00  0.00    +0.000 C 
ATOM     30  C   UNL     1       0.369   2.827  19.217  0.00  0.00    +0.000 C 
ATOM     31  C   UNL     1       1.000   4.143  18.825  0.00  0.00    +0.000 C 
ATOM     32  C   UNL     1       1.778   4.129  17.524  0.00  0.00    +0.000 C 
ENDBRANCH  26  27
ENDBRANCH   1  22
TORSDOF 6
ENDMDL
MODEL 5
REMARK VINA RESULT:      -7.7      0.866      1.628
REMARK  Name = 
REMARK  7 active torsions:
REMARK  status: ('A' for Active; 'I' for Inactive)
REMARK    1  A    between atoms: C_1  and  O_2
REMARK    2  A    between atoms: O_2  and  C_3
REMARK    3  A    between atoms: C_6  and  C_7
REMARK    4  A    between atoms: C_7  and  C_8
REMARK    5  A    between atoms: C_7  and  N_19
REMARK    6  A    between atoms: N_12  and  C_13
REMARK    7  A    between atoms: N_22  and  C_23
REMARK                            x       y       z     vdW  Elec       q    Type
REMARK                         _______ _______ _______ _____ _____    ______ ____
ROOT
ATOM      1  C   UNL     1       3.696   5.820  18.622  0.00  0.00    +0.000 C 
ENDROOT
BRANCH   1   5
ATOM      2  C   UNL     1       1.242   9.249  19.740  0.00  0.00    +0.000 A 
ATOM      3  C   UNL     1       1.635   9.054  18.416  0.00  0.00    +0.000 A 
ATOM      4  C   UNL     1       2.325   7.893  18.040  0.00  0.00    +0.000 A 
ATOM      5  C   UNL     1       2.669   6.903  18.987  0.00  0.00    +0.000 A 
ATOM      6  C   UNL     1       2.161   7.077  20.270  0.00  0.00    +0.000 A 
ATOM      7  C   UNL     1       1.461   8.227  20.651  0.00  0.00    +0.000 A 
BRANCH   2   9
ATOM      8  C   UNL     1      -0.388  10.480  20.946  0.00  0.00    +0.000 C 
ATOM      9  O   UNL     1       0.710  10.473  20.037  0.00  0.00    +0.000 OA
ENDBRANCH   2   9
ENDBRANCH   1   5
BRANCH   1  10
ATOM     10  N   UNL     1       5.123   6.138  18.329  0.00  0.00    +0.000 NA
ATOM     11  C   UNL     1       6.213   5.178  18.211  0.00  0.00    +0.000 C 
ATOM     12  C   UNL     1       6.514   4.512  16.839  0.00  0.00    +0.000 C 
ATOM     13  N   UNL     1       5.965   5.226  15.667  0.00  0.00    +0.000 N 
ATOM     14  C   UNL     1       5.602   6.650  15.811  0.00  0.00    +0.000 C 
ATOM     15  C   UNL     1       5.325   7.139  17.260  0.00  0.00    +0.000 C 
BRANCH  13  16
ATOM     16  C   UNL     1       6.337   4.741  14.405  0.00  0.00    +0.000 A 
ATOM     17  C   UNL     1       7.462   5.263  13.736  0.00  0.00    +0.000 A 
ATOM     18  C   UNL     1       7.834   4.847  12.435  0.00  0.00    +0.000 A 
ATOM     19  C   UNL     1       7.088   3.902  11.768  0.00  0.00    +0.000 A 
ATOM     20  C   UNL     1       5.993   3.346  12.420  0.00  0.00    +0.000 A 
ATOM     21  C   UNL     1       5.640   3.739  13.720  0.00  0.00    +0.000 A 
ENDBRANCH  13  16
ENDBRANCH   1  10
BRANCH   1  22
ATOM     22  C   UNL     1       3.050   4.515  18.055  0.00  0.00    +0.000 A 
ATOM     23  N   UNL     1       2.575   4.550  16.806  0.00  0.00    +0.000 NA
ATOM     24  N   UNL     1       2.181   3.304  16.457  0.00  0.00    +0.000 NA
ATOM     25  N   UNL     1       2.343   2.477  17.462  0.00  0.00    +0.000 NA
ATOM     26  N   UNL     1       2.965   3.176  18.450  0.00  0.00    +0.000 N 
BRANCH  26  27
ATOM     27  C   UNL     1       3.330   2.362  19.610  0.00  0.00    +0.000 C 
ATOM     28  C   UNL     1       3.719   3.191  20.886  0.00  0.00    +0.000 C 
ATOM     29  C   UNL     1       2.541   3.990  21.457  0.00  0.00    +0.000 C 
ATOM     30  C   UNL     1       1.297   3.140  21.684  0.00  0.00    +0.000 C 
ATOM     31  C   UNL     1       1.051   2.139  20.579  0.00  0.00    +0.000 C 
ATOM     32  C   UNL     1       2.276   1.386  20.098  0.00  0.00    +0.000 C 
ENDBRANCH  26  27
ENDBRANCH   1  22
TORSDOF 6
ENDMDL
MODEL 6
REMARK VINA RESULT:      -7.6      6.963     10.742
REMARK  Name = 
REMARK  7 active torsions:
REMARK  status: ('A' for Active; 'I' for Inactive)
REMARK    1  A    between atoms: C_1  and  O_2
REMARK    2  A    between atoms: O_2  and  C_3
REMARK    3  A    between atoms: C_6  and  C_7
REMARK    4  A    between atoms: C_7  and  C_8
REMARK    5  A    between atoms: C_7  and  N_19
REMARK    6  A    between atoms: N_12  and  C_13
REMARK    7  A    between atoms: N_22  and  C_23
REMARK                            x       y       z     vdW  Elec       q    Type
REMARK                         _______ _______ _______ _____ _____    ______ ____
ROOT
ATOM      1  C   UNL     1      -0.646  13.305  22.410  0.00  0.00    +0.000 C 
ENDROOT
BRANCH   1   5
ATOM      2  C   UNL     1      -4.955  13.133  21.755  0.00  0.00    +0.000 A 
ATOM      3  C   UNL     1      -4.430  13.141  23.046  0.00  0.00    +0.000 A 
ATOM      4  C   UNL     1      -3.054  13.312  23.256  0.00  0.00    +0.000 A 
ATOM      5  C   UNL     1      -2.157  13.451  22.174  0.00  0.00    +0.000 A 
ATOM      6  C   UNL     1      -2.730  13.554  20.910  0.00  0.00    +0.000 A 
ATOM      7  C   UNL     1      -4.102  13.397  20.693  0.00  0.00    +0.000 A 
BRANCH   2   9
ATOM      8  C   UNL     1      -6.978  12.587  22.866  0.00  0.00    +0.000 C 
ATOM      9  O   UNL     1      -6.279  12.812  21.644  0.00  0.00    +0.000 OA
ENDBRANCH   2   9
ENDBRANCH   1   5
BRANCH   1  10
ATOM     10  N   UNL     1       0.263  14.482  22.525  0.00  0.00    +0.000 NA
ATOM     11  C   UNL     1       1.511  14.682  21.798  0.00  0.00    +0.000 C 
ATOM     12  C   UNL     1       1.493  15.359  20.399  0.00  0.00    +0.000 C 
ATOM     13  N   UNL     1       0.277  16.144  20.104  0.00  0.00    +0.000 N 
ATOM     14  C   UNL     1      -0.566  16.595  21.230  0.00  0.00    +0.000 C 
ATOM     15  C   UNL     1      -0.424  15.791  22.551  0.00  0.00    +0.000 C 
BRANCH  13  16
ATOM     16  C   UNL     1       0.284  16.890  18.916  0.00  0.00    +0.000 A 
ATOM     17  C   UNL     1       1.481  17.094  18.200  0.00  0.00    +0.000 A 
ATOM     18  C   UNL     1       1.543  17.893  17.034  0.00  0.00    +0.000 A 
ATOM     19  C   UNL     1       0.410  18.512  16.555  0.00  0.00    +0.000 A 
ATOM     20  C   UNL     1      -0.791  18.299  17.223  0.00  0.00    +0.000 A 
ATOM     21  C   UNL     1      -0.857  17.485  18.364  0.00  0.00    +0.000 A 
ENDBRANCH  13  16
ENDBRANCH   1  10
BRANCH   1  22
ATOM     22  C   UNL     1      -0.078  11.915  21.975  0.00  0.00    +0.000 A 
ATOM     23  N   UNL     1      -0.244  10.888  22.814  0.00  0.00    +0.000 NA
ATOM     24  N   UNL     1       0.193   9.760  22.210  0.00  0.00    +0.000 NA
ATOM     25  N   UNL     1       0.682  10.038  21.025  0.00  0.00    +0.000 NA
ATOM     26  N   UNL     1       0.451  11.360  20.805  0.00  0.00    +0.000 N 
BRANCH  26  27
ATOM     27  C   UNL     1       0.831  11.813  19.467  0.00  0.00    +0.000 C 
ATOM     28  C   UNL     1       1.386  10.679  18.533  0.00  0.00    +0.000 C 
ATOM     29  C   UNL     1       0.328   9.623  18.187  0.00  0.00    +0.000 C 
ATOM     30  C   UNL     1      -0.963  10.226  17.650  0.00  0.00    +0.000 C 
ATOM     31  C   UNL     1      -1.379  11.486  18.375  0.00  0.00    +0.000 C 
ATOM     32  C   UNL     1      -0.264  12.475  18.651  0.00  0.00    +0.000 C 
ENDBRANCH  26  27
ENDBRANCH   1  22
TORSDOF 6
ENDMDL
MODEL 7
REMARK VINA RESULT:      -7.6      0.778      1.292
REMARK  Name = 
REMARK  7 active torsions:
REMARK  status: ('A' for Active; 'I' for Inactive)
REMARK    1  A    between atoms: C_1  and  O_2
REMARK    2  A    between atoms: O_2  and  C_3
REMARK    3  A    between atoms: C_6  and  C_7
REMARK    4  A    between atoms: C_7  and  C_8
REMARK    5  A    between atoms: C_7  and  N_19
REMARK    6  A    between atoms: N_12  and  C_13
REMARK    7  A    between atoms: N_22  and  C_23
REMARK                            x       y       z     vdW  Elec       q    Type
REMARK                         _______ _______ _______ _____ _____    ______ ____
ROOT
ATOM      1  C   UNL     1       3.430   6.220  18.738  0.00  0.00    +0.000 C 
ENDROOT
BRANCH   1   5
ATOM      2  C   UNL     1       0.825   9.702  19.075  0.00  0.00    +0.000 A 
ATOM      3  C   UNL     1       1.054   8.874  20.173  0.00  0.00    +0.000 A 
ATOM      4  C   UNL     1       1.980   7.824  20.094  0.00  0.00    +0.000 A 
ATOM      5  C   UNL     1       2.684   7.554  18.900  0.00  0.00    +0.000 A 
ATOM      6  C   UNL     1       2.516   8.469  17.866  0.00  0.00    +0.000 A 
ATOM      7  C   UNL     1       1.604   9.526  17.940  0.00  0.00    +0.000 A 
BRANCH   2   9
ATOM      8  C   UNL     1       0.140  11.873  19.744  0.00  0.00    +0.000 C 
ATOM      9  O   UNL     1      -0.199  10.600  19.199  0.00  0.00    +0.000 OA
ENDBRANCH   2   9
ENDBRANCH   1   5
BRANCH   1  10
ATOM     10  N   UNL     1       4.907   6.149  18.548  0.00  0.00    +0.000 NA
ATOM     11  C   UNL     1       5.703   4.933  18.429  0.00  0.00    +0.000 C 
ATOM     12  C   UNL     1       5.912   4.277  17.036  0.00  0.00    +0.000 C 
ATOM     13  N   UNL     1       5.664   5.170  15.885  0.00  0.00    +0.000 N 
ATOM     14  C   UNL     1       5.690   6.630  16.102  0.00  0.00    +0.000 C 
ATOM     15  C   UNL     1       5.451   7.106  17.562  0.00  0.00    +0.000 C 
BRANCH  13  16
ATOM     16  C   UNL     1       5.983   4.663  14.617  0.00  0.00    +0.000 A 
ATOM     17  C   UNL     1       7.195   5.009  13.987  0.00  0.00    +0.000 A 
ATOM     18  C   UNL     1       7.526   4.572  12.682  0.00  0.00    +0.000 A 
ATOM     19  C   UNL     1       6.651   3.780  11.972  0.00  0.00    +0.000 A 
ATOM     20  C   UNL     1       5.463   3.397  12.584  0.00  0.00    +0.000 A 
ATOM     21  C   UNL     1       5.148   3.808  13.888  0.00  0.00    +0.000 A 
ENDBRANCH  13  16
ENDBRANCH   1  10
BRANCH   1  22
ATOM     22  C   UNL     1       2.518   5.052  18.242  0.00  0.00    +0.000 A 
ATOM     23  N   UNL     1       1.689   5.302  17.224  0.00  0.00    +0.000 NA
ATOM     24  N   UNL     1       1.087   4.146  16.861  0.00  0.00    +0.000 NA
ATOM     25  N   UNL     1       1.468   3.168  17.648  0.00  0.00    +0.000 NA
ATOM     26  N   UNL     1       2.428   3.674  18.468  0.00  0.00    +0.000 N 
BRANCH  26  27
ATOM     27  C   UNL     1       3.050   2.676  19.338  0.00  0.00    +0.000 C 
ATOM     28  C   UNL     1       3.625   3.253  20.680  0.00  0.00    +0.000 C 
ATOM     29  C   UNL     1       2.532   3.800  21.608  0.00  0.00    +0.000 C 
ATOM     30  C   UNL     1       1.403   2.806  21.851  0.00  0.00    +0.000 C 
ATOM     31  C   UNL     1       1.010   2.038  20.609  0.00  0.00    +0.000 C 
ATOM     32  C   UNL     1       2.163   1.523  19.771  0.00  0.00    +0.000 C 
ENDBRANCH  26  27
ENDBRANCH   1  22
TORSDOF 6
ENDMDL
MODEL 8
REMARK VINA RESULT:      -7.6      7.350     10.730
REMARK  Name = 
REMARK  7 active torsions:
REMARK  status: ('A' for Active; 'I' for Inactive)
REMARK    1  A    between atoms: C_1  and  O_2
REMARK    2  A    between atoms: O_2  and  C_3
REMARK    3  A    between atoms: C_6  and  C_7
REMARK    4  A    between atoms: C_7  and  C_8
REMARK    5  A    between atoms: C_7  and  N_19
REMARK    6  A    between atoms: N_12  and  C_13
REMARK    7  A    between atoms: N_22  and  C_23
REMARK                            x       y       z     vdW  Elec       q    Type
REMARK                         _______ _______ _______ _____ _____    ______ ____
ROOT
ATOM      1  C   UNL     1      -2.345  13.132  21.587  0.00  0.00    +0.000 C 
ENDROOT
BRANCH   1   5
ATOM      2  C   UNL     1       0.286  10.132  19.826  0.00  0.00    +0.000 A 
ATOM      3  C   UNL     1       0.279  10.354  21.202  0.00  0.00    +0.000 A 
ATOM      4  C   UNL     1      -0.648  11.236  21.778  0.00  0.00    +0.000 A 
ATOM      5  C   UNL     1      -1.578  11.945  20.986  0.00  0.00    +0.000 A 
ATOM      6  C   UNL     1      -1.617  11.611  19.636  0.00  0.00    +0.000 A 
ATOM      7  C   UNL     1      -0.705  10.724  19.056  0.00  0.00    +0.000 A 
BRANCH   2   9
ATOM      8  C   UNL     1       1.610   9.519  17.955  0.00  0.00    +0.000 C 
ATOM      9  O   UNL     1       1.317   9.375  19.343  0.00  0.00    +0.000 OA
ENDBRANCH   2   9
ENDBRANCH   1   5
BRANCH   1  10
ATOM     10  N   UNL     1      -1.715  14.467  21.799  0.00  0.00    +0.000 NA
ATOM     11  C   UNL     1      -0.528  14.742  22.600  0.00  0.00    +0.000 C 
ATOM     12  C   UNL     1       0.882  14.642  21.956  0.00  0.00    +0.000 C 
ATOM     13  N   UNL     1       0.898  14.709  20.480  0.00  0.00    +0.000 N 
ATOM     14  C   UNL     1      -0.268  15.290  19.784  0.00  0.00    +0.000 C 
ATOM     15  C   UNL     1      -1.602  15.297  20.580  0.00  0.00    +0.000 C 
BRANCH  13  16
ATOM     16  C   UNL     1       2.158  14.770  19.867  0.00  0.00    +0.000 A 
ATOM     17  C   UNL     1       3.336  14.796  20.642  0.00  0.00    +0.000 A 
ATOM     18  C   UNL     1       4.622  14.924  20.066  0.00  0.00    +0.000 A 
ATOM     19  C   UNL     1       4.765  15.032  18.700  0.00  0.00    +0.000 A 
ATOM     20  C   UNL     1       3.621  14.974  17.912  0.00  0.00    +0.000 A 
ATOM     21  C   UNL     1       2.348  14.822  18.481  0.00  0.00    +0.000 A 
ENDBRANCH  13  16
ENDBRANCH   1  10
BRANCH   1  22
ATOM     22  C   UNL     1      -3.586  12.707  22.437  0.00  0.00    +0.000 A 
ATOM     23  N   UNL     1      -3.358  12.161  23.636  0.00  0.00    +0.000 NA
ATOM     24  N   UNL     1      -4.543  11.984  24.264  0.00  0.00    +0.000 NA
ATOM     25  N   UNL     1      -5.531  12.355  23.484  0.00  0.00    +0.000 NA
ATOM     26  N   UNL     1      -4.970  12.893  22.368  0.00  0.00    +0.000 N 
BRANCH  26  27
ATOM     27  C   UNL     1      -5.941  13.470  21.438  0.00  0.00    +0.000 C 
ATOM     28  C   UNL     1      -5.427  13.596  19.960  0.00  0.00    +0.000 C 
ATOM     29  C   UNL     1      -5.173  12.235  19.300  0.00  0.00    +0.000 C 
ATOM     30  C   UNL     1      -6.359  11.286  19.413  0.00  0.00    +0.000 C 
ATOM     31  C   UNL     1      -7.041  11.344  20.761  0.00  0.00    +0.000 C 
ATOM     32  C   UNL     1      -7.265  12.737  21.317  0.00  0.00    +0.000 C 
ENDBRANCH  26  27
ENDBRANCH   1  22
TORSDOF 6
ENDMDL
MODEL 9
REMARK VINA RESULT:      -7.5      5.661      9.287
REMARK  Name = 
REMARK  7 active torsions:
REMARK  status: ('A' for Active; 'I' for Inactive)
REMARK    1  A    between atoms: C_1  and  O_2
REMARK    2  A    between atoms: O_2  and  C_3
REMARK    3  A    between atoms: C_6  and  C_7
REMARK    4  A    between atoms: C_7  and  C_8
REMARK    5  A    between atoms: C_7  and  N_19
REMARK    6  A    between atoms: N_12  and  C_13
REMARK    7  A    between atoms: N_22  and  C_23
REMARK                            x       y       z     vdW  Elec       q    Type
REMARK                         _______ _______ _______ _____ _____    ______ ____
ROOT
ATOM      1  C   UNL     1       0.223  12.991  20.805  0.00  0.00    +0.000 C 
ENDROOT
BRANCH   1   5
ATOM      2  C   UNL     1       3.054  14.912  18.099  0.00  0.00    +0.000 A 
ATOM      3  C   UNL     1       3.180  13.562  18.422  0.00  0.00    +0.000 A 
ATOM      4  C   UNL     1       2.205  12.919  19.198  0.00  0.00    +0.000 A 
ATOM      5  C   UNL     1       1.087  13.620  19.701  0.00  0.00    +0.000 A 
ATOM      6  C   UNL     1       0.935  14.932  19.263  0.00  0.00    +0.000 A 
ATOM      7  C   UNL     1       1.897  15.577  18.479  0.00  0.00    +0.000 A 
BRANCH   2   9
ATOM      8  C   UNL     1       5.407  14.959  17.799  0.00  0.00    +0.000 C 
ATOM      9  O   UNL     1       4.123  15.483  17.468  0.00  0.00    +0.000 OA
ENDBRANCH   2   9
ENDBRANCH   1   5
BRANCH   1  10
ATOM     10  N   UNL     1      -0.586  11.758  20.581  0.00  0.00    +0.000 NA
ATOM     11  C   UNL     1      -0.859  11.127  19.295  0.00  0.00    +0.000 C 
ATOM     12  C   UNL     1       0.134  10.078  18.721  0.00  0.00    +0.000 C 
ATOM     13  N   UNL     1       1.045   9.474  19.715  0.00  0.00    +0.000 N 
ATOM     14  C   UNL     1       0.678   9.541  21.144  0.00  0.00    +0.000 C 
ATOM     15  C   UNL     1      -0.321  10.663  21.539  0.00  0.00    +0.000 C 
BRANCH  13  16
ATOM     16  C   UNL     1       1.853   8.419  19.267  0.00  0.00    +0.000 A 
ATOM     17  C   UNL     1       2.494   8.484  18.013  0.00  0.00    +0.000 A 
ATOM     18  C   UNL     1       3.264   7.416  17.496  0.00  0.00    +0.000 A 
ATOM     19  C   UNL     1       3.410   6.252  18.217  0.00  0.00    +0.000 A 
ATOM     20  C   UNL     1       2.817   6.175  19.472  0.00  0.00    +0.000 A 
ATOM     21  C   UNL     1       2.075   7.244  19.996  0.00  0.00    +0.000 A 
ENDBRANCH  13  16
ENDBRANCH   1  10
BRANCH   1  22
ATOM     22  C   UNL     1      -0.173  13.994  21.936  0.00  0.00    +0.000 A 
ATOM     23  N   UNL     1       0.816  14.620  22.582  0.00  0.00    +0.000 NA
ATOM     24  N   UNL     1       0.274  15.531  23.422  0.00  0.00    +0.000 NA
ATOM     25  N   UNL     1      -1.035  15.476  23.372  0.00  0.00    +0.000 NA
ATOM     26  N   UNL     1      -1.354  14.589  22.392  0.00  0.00    +0.000 N 
BRANCH  26  27
ATOM     27  C   UNL     1      -2.788  14.495  22.122  0.00  0.00    +0.000 C 
ATOM     28  C   UNL     1      -3.333  13.027  22.009  0.00  0.00    +0.000 C 
ATOM     29  C   UNL     1      -3.240  12.255  23.331  0.00  0.00    +0.000 C 
ATOM     30  C   UNL     1      -3.859  13.005  24.504  0.00  0.00    +0.000 C 
ATOM     31  C   UNL     1      -3.562  14.488  24.485  0.00  0.00    +0.000 C 
ATOM     32  C   UNL     1      -3.702  15.161  23.134  0.00  0.00    +0.000 C 
ENDBRANCH  26  27
ENDBRANCH   1  22
TORSDOF 6
ENDMDL
