MODEL 1
REMARK VINA RESULT:      -7.3      0.000      0.000
REMARK  Name = 
REMARK  11 active torsions:
REMARK  status: ('A' for Active; 'I' for Inactive)
REMARK    1  A    between atoms: C_1  and  O_2
REMARK    2  A    between atoms: O_2  and  C_3
REMARK    3  A    between atoms: C_7  and  C_8
REMARK    4  A    between atoms: C_10  and  C_11
REMARK    5  A    between atoms: N_13  and  C_14
REMARK    6  A    between atoms: C_16  and  O_17
REMARK    7  A    between atoms: O_17  and  C_18
REMARK    8  A    between atoms: C_19  and  O_20
REMARK    9  A    between atoms: O_20  and  C_21
REMARK   10  A    between atoms: C_22  and  O_23
REMARK   11  A    between atoms: O_23  and  C_24
REMARK                            x       y       z     vdW  Elec       q    Type
REMARK                         _______ _______ _______ _____ _____    ______ ____
ROOT
ATOM      1  C   UNL     1       1.078   9.203  19.945  0.00  0.00    +0.000 C 
ATOM      2  O   UNL     1       1.109   9.231  18.715  0.00  0.00    +0.000 OA
ATOM      3  N   UNL     1       1.398   8.105  20.729  0.00  0.00    +0.000 N 
ATOM      4  H   UNL     1       1.184   8.176  21.715  0.00  0.00    +0.000 HD
ENDROOT
BRANCH   3   5
ATOM      5  C   UNL     1       1.925   6.882  20.261  0.00  0.00    +0.000 A 
ATOM      6  C   UNL     1       3.017   6.831  19.401  0.00  0.00    +0.000 A 
ATOM      7  C   UNL     1       3.537   5.617  18.957  0.00  0.00    +0.000 A 
ATOM      8  C   UNL     1       2.925   4.412  19.349  0.00  0.00    +0.000 A 
ATOM      9  C   UNL     1       1.806   4.450  20.210  0.00  0.00    +0.000 A 
ATOM     10  C   UNL     1       1.340   5.688  20.687  0.00  0.00    +0.000 A 
BRANCH   7  11
ATOM     11  O   UNL     1       4.637   5.552  18.130  0.00  0.00    +0.000 OA
ATOM     12  C   UNL     1       4.670   6.502  17.063  0.00  0.00    +0.000 C 
ENDBRANCH   7  11
BRANCH   8  13
ATOM     13  O   UNL     1       3.459   3.278  18.781  0.00  0.00    +0.000 OA
ATOM     14  C   UNL     1       2.774   2.733  17.663  0.00  0.00    +0.000 C 
ENDBRANCH   8  13
BRANCH   9  15
ATOM     15  O   UNL     1       1.200   3.258  20.519  0.00  0.00    +0.000 OA
ATOM     16  C   UNL     1       1.566   2.601  21.724  0.00  0.00    +0.000 C 
ENDBRANCH   9  15
ENDBRANCH   3   5
BRANCH   1  19
ATOM     17  C   UNL     1      -0.370  11.864  21.934  0.00  0.00    +0.000 A 
ATOM     18  C   UNL     1      -0.479  10.547  21.434  0.00  0.00    +0.000 A 
ATOM     19  C   UNL     1       0.650  10.358  20.680  0.00  0.00    +0.000 A 
ATOM     20  O   UNL     1       1.387  11.497  20.693  0.00  0.00    +0.000 OA
ATOM     21  N   UNL     1       0.748  12.448  21.471  0.00  0.00    +0.000 NA
BRANCH  17  26
ATOM     22  C   UNL     1      -3.454  12.522  23.979  0.00  0.00    +0.000 A 
ATOM     23  C   UNL     1      -3.200  13.821  24.426  0.00  0.00    +0.000 A 
ATOM     24  C   UNL     1      -2.012  14.470  24.092  0.00  0.00    +0.000 A 
ATOM     25  C   UNL     1      -1.066  13.828  23.291  0.00  0.00    +0.000 A 
ATOM     26  C   UNL     1      -1.313  12.534  22.821  0.00  0.00    +0.000 A 
ATOM     27  C   UNL     1      -2.505  11.883  23.184  0.00  0.00    +0.000 A 
BRANCH  22  29
ATOM     28  C   UNL     1      -5.819  12.748  24.083  0.00  0.00    +0.000 C 
ATOM     29  O   UNL     1      -4.650  11.988  24.373  0.00  0.00    +0.000 OA
ENDBRANCH  22  29
ENDBRANCH  17  26
ENDBRANCH   1  19
TORSDOF 7
ENDMDL
MODEL 2
REMARK VINA RESULT:      -7.2      1.544      2.745
REMARK  Name = 
REMARK  11 active torsions:
REMARK  status: ('A' for Active; 'I' for Inactive)
REMARK    1  A    between atoms: C_1  and  O_2
REMARK    2  A    between atoms: O_2  and  C_3
REMARK    3  A    between atoms: C_7  and  C_8
REMARK    4  A    between atoms: C_10  and  C_11
REMARK    5  A    between atoms: N_13  and  C_14
REMARK    6  A    between atoms: C_16  and  O_17
REMARK    7  A    between atoms: O_17  and  C_18
REMARK    8  A    between atoms: C_19  and  O_20
REMARK    9  A    between atoms: O_20  and  C_21
REMARK   10  A    between atoms: C_22  and  O_23
REMARK   11  A    between atoms: O_23  and  C_24
REMARK                            x       y       z     vdW  Elec       q    Type
REMARK                         _______ _______ _______ _____ _____    ______ ____
ROOT
ATOM      1  C   UNL     1       1.517   8.430  20.055  0.00  0.00    +0.000 C 
ATOM      2  O   UNL     1       1.640   8.900  18.924  0.00  0.00    +0.000 OA
ATOM      3  N   UNL     1       1.880   7.146  20.432  0.00  0.00    +0.000 N 
ATOM      4  H   UNL     1       1.584   6.844  21.351  0.00  0.00    +0.000 HD
ENDROOT
BRANCH   3   5
ATOM      5  C   UNL     1       2.556   6.208  19.622  0.00  0.00    +0.000 A 
ATOM      6  C   UNL     1       1.909   5.103  19.078  0.00  0.00    +0.000 A 
ATOM      7  C   UNL     1       2.583   4.191  18.269  0.00  0.00    +0.000 A 
ATOM      8  C   UNL     1       3.958   4.361  18.024  0.00  0.00    +0.000 A 
ATOM      9  C   UNL     1       4.631   5.470  18.582  0.00  0.00    +0.000 A 
ATOM     10  C   UNL     1       3.910   6.404  19.348  0.00  0.00    +0.000 A 
BRANCH   7  11
ATOM     11  O   UNL     1       1.947   3.110  17.699  0.00  0.00    +0.000 OA
ATOM     12  C   UNL     1       1.205   2.281  18.596  0.00  0.00    +0.000 C 
ENDBRANCH   7  11
BRANCH   8  13
ATOM     13  O   UNL     1       4.546   3.356  17.290  0.00  0.00    +0.000 OA
ATOM     14  C   UNL     1       4.962   3.679  15.971  0.00  0.00    +0.000 C 
ENDBRANCH   8  13
BRANCH   9  15
ATOM     15  O   UNL     1       5.983   5.567  18.372  0.00  0.00    +0.000 OA
ATOM     16  C   UNL     1       6.471   6.610  17.541  0.00  0.00    +0.000 C 
ENDBRANCH   9  15
ENDBRANCH   3   5
BRANCH   1  19
ATOM     17  C   UNL     1      -0.192  10.652  22.351  0.00  0.00    +0.000 A 
ATOM     18  C   UNL     1       0.083  10.294  21.013  0.00  0.00    +0.000 A 
ATOM     19  C   UNL     1       0.925   9.215  21.099  0.00  0.00    +0.000 A 
ATOM     20  O   UNL     1       1.171   8.949  22.406  0.00  0.00    +0.000 OA
ATOM     21  N   UNL     1       0.481   9.853  23.196  0.00  0.00    +0.000 NA
BRANCH  17  26
ATOM     22  C   UNL     1      -3.204  12.424  23.735  0.00  0.00    +0.000 A 
ATOM     23  C   UNL     1      -2.826  13.758  23.563  0.00  0.00    +0.000 A 
ATOM     24  C   UNL     1      -1.578  14.082  23.030  0.00  0.00    +0.000 A 
ATOM     25  C   UNL     1      -0.697  13.069  22.648  0.00  0.00    +0.000 A 
ATOM     26  C   UNL     1      -1.067  11.728  22.797  0.00  0.00    +0.000 A 
ATOM     27  C   UNL     1      -2.319  11.417  23.356  0.00  0.00    +0.000 A 
BRANCH  22  29
ATOM     28  C   UNL     1      -5.526  12.926  23.652  0.00  0.00    +0.000 C 
ATOM     29  O   UNL     1      -4.447  12.230  24.269  0.00  0.00    +0.000 OA
ENDBRANCH  22  29
ENDBRANCH  17  26
ENDBRANCH   1  19
TORSDOF 7
ENDMDL
MODEL 3
REMARK VINA RESULT:      -7.1      0.791      2.467
REMARK  Name = 
REMARK  11 active torsions:
REMARK  status: ('A' for Active; 'I' for Inactive)
REMARK    1  A    between atoms: C_1  and  O_2
REMARK    2  A    between atoms: O_2  and  C_3
REMARK    3  A    between atoms: C_7  and  C_8
REMARK    4  A    between atoms: C_10  and  C_11
REMARK    5  A    between atoms: N_13  and  C_14
REMARK    6  A    between atoms: C_16  and  O_17
REMARK    7  A    between atoms: O_17  and  C_18
REMARK    8  A    between atoms: C_19  and  O_20
REMARK    9  A    between atoms: O_20  and  C_21
REMARK   10  A    between atoms: C_22  and  O_23
REMARK   11  A    between atoms: O_23  and  C_24
REMARK                            x       y       z     vdW  Elec       q    Type
REMARK                         _______ _______ _______ _____ _____    ______ ____
ROOT
ATOM      1  C   UNL     1       0.750   9.530  19.925  0.00  0.00    +0.000 C 
ATOM      2  O   UNL     1       0.495   9.572  18.722  0.00  0.00    +0.000 OA
ATOM      3  N   UNL     1       1.361   8.471  20.578  0.00  0.00    +0.000 N 
ATOM      4  H   UNL     1       1.372   8.508  21.590  0.00  0.00    +0.000 HD
ENDROOT
BRANCH   3   5
ATOM      5  C   UNL     1       1.898   7.320  19.961  0.00  0.00    +0.000 A 
ATOM      6  C   UNL     1       1.665   6.042  20.457  0.00  0.00    +0.000 A 
ATOM      7  C   UNL     1       2.189   4.912  19.832  0.00  0.00    +0.000 A 
ATOM      8  C   UNL     1       3.006   5.061  18.697  0.00  0.00    +0.000 A 
ATOM      9  C   UNL     1       3.263   6.354  18.191  0.00  0.00    +0.000 A 
ATOM     10  C   UNL     1       2.674   7.470  18.810  0.00  0.00    +0.000 A 
BRANCH   7  11
ATOM     11  O   UNL     1       1.940   3.639  20.295  0.00  0.00    +0.000 OA
ATOM     12  C   UNL     1       2.209   3.418  21.682  0.00  0.00    +0.000 C 
ENDBRANCH   7  11
BRANCH   8  13
ATOM     13  O   UNL     1       3.546   3.891  18.212  0.00  0.00    +0.000 OA
ATOM     14  C   UNL     1       4.817   3.508  18.720  0.00  0.00    +0.000 C 
ENDBRANCH   8  13
BRANCH   9  15
ATOM     15  O   UNL     1       4.115   6.462  17.120  0.00  0.00    +0.000 OA
ATOM     16  C   UNL     1       5.461   6.846  17.357  0.00  0.00    +0.000 C 
ENDBRANCH   9  15
ENDBRANCH   3   5
BRANCH   1  19
ATOM     17  C   UNL     1      -0.597  12.064  22.138  0.00  0.00    +0.000 A 
ATOM     18  C   UNL     1      -0.798  10.849  21.446  0.00  0.00    +0.000 A 
ATOM     19  C   UNL     1       0.377  10.622  20.777  0.00  0.00    +0.000 A 
ATOM     20  O   UNL     1       1.231  11.648  21.021  0.00  0.00    +0.000 OA
ATOM     21  N   UNL     1       0.621  12.560  21.867  0.00  0.00    +0.000 NA
BRANCH  17  26
ATOM     22  C   UNL     1      -3.707  12.702  24.151  0.00  0.00    +0.000 A 
ATOM     23  C   UNL     1      -3.453  13.991  24.625  0.00  0.00    +0.000 A 
ATOM     24  C   UNL     1      -2.256  14.640  24.319  0.00  0.00    +0.000 A 
ATOM     25  C   UNL     1      -1.303  14.007  23.520  0.00  0.00    +0.000 A 
ATOM     26  C   UNL     1      -1.549  12.723  23.023  0.00  0.00    +0.000 A 
ATOM     27  C   UNL     1      -2.750  12.073  23.358  0.00  0.00    +0.000 A 
BRANCH  22  29
ATOM     28  C   UNL     1      -6.078  12.802  24.006  0.00  0.00    +0.000 C 
ATOM     29  O   UNL     1      -4.910  12.167  24.519  0.00  0.00    +0.000 OA
ENDBRANCH  22  29
ENDBRANCH  17  26
ENDBRANCH   1  19
TORSDOF 7
ENDMDL
MODEL 4
REMARK VINA RESULT:      -7.0      1.211      2.723
REMARK  Name = 
REMARK  11 active torsions:
REMARK  status: ('A' for Active; 'I' for Inactive)
REMARK    1  A    between atoms: C_1  and  O_2
REMARK    2  A    between atoms: O_2  and  C_3
REMARK    3  A    between atoms: C_7  and  C_8
REMARK    4  A    between atoms: C_10  and  C_11
REMARK    5  A    between atoms: N_13  and  C_14
REMARK    6  A    between atoms: C_16  and  O_17
REMARK    7  A    between atoms: O_17  and  C_18
REMARK    8  A    between atoms: C_19  and  O_20
REMARK    9  A    between atoms: O_20  and  C_21
REMARK   10  A    between atoms: C_22  and  O_23
REMARK   11  A    between atoms: O_23  and  C_24
REMARK                            x       y       z     vdW  Elec       q    Type
REMARK                         _______ _______ _______ _____ _____    ______ ____
ROOT
ATOM      1  C   UNL     1       1.741   8.520  18.973  0.00  0.00    +0.000 C 
ATOM      2  O   UNL     1       2.021   8.407  17.780  0.00  0.00    +0.000 OA
ATOM      3  N   UNL     1       1.862   7.517  19.923  0.00  0.00    +0.000 N 
ATOM      4  H   UNL     1       1.454   7.703  20.831  0.00  0.00    +0.000 HD
ENDROOT
BRANCH   3   5
ATOM      5  C   UNL     1       2.433   6.244  19.711  0.00  0.00    +0.000 A 
ATOM      6  C   UNL     1       1.825   5.079  20.167  0.00  0.00    +0.000 A 
ATOM      7  C   UNL     1       2.391   3.826  19.939  0.00  0.00    +0.000 A 
ATOM      8  C   UNL     1       3.624   3.730  19.270  0.00  0.00    +0.000 A 
ATOM      9  C   UNL     1       4.260   4.907  18.814  0.00  0.00    +0.000 A 
ATOM     10  C   UNL     1       3.636   6.151  19.009  0.00  0.00    +0.000 A 
BRANCH   7  11
ATOM     11  O   UNL     1       1.784   2.663  20.358  0.00  0.00    +0.000 OA
ATOM     12  C   UNL     1       1.526   2.566  21.761  0.00  0.00    +0.000 C 
ENDBRANCH   7  11
BRANCH   8  13
ATOM     13  O   UNL     1       4.139   2.458  19.179  0.00  0.00    +0.000 OA
ATOM     14  C   UNL     1       3.656   1.640  18.121  0.00  0.00    +0.000 C 
ENDBRANCH   8  13
BRANCH   9  15
ATOM     15  O   UNL     1       5.491   4.777  18.221  0.00  0.00    +0.000 OA
ATOM     16  C   UNL     1       6.623   5.330  18.875  0.00  0.00    +0.000 C 
ENDBRANCH   9  15
ENDBRANCH   3   5
BRANCH   1  19
ATOM     17  C   UNL     1       0.248  11.394  20.600  0.00  0.00    +0.000 A 
ATOM     18  C   UNL     1       0.486  10.001  20.609  0.00  0.00    +0.000 A 
ATOM     19  C   UNL     1       1.210   9.756  19.472  0.00  0.00    +0.000 A 
ATOM     20  O   UNL     1       1.379  10.919  18.795  0.00  0.00    +0.000 OA
ATOM     21  N   UNL     1       0.770  11.949  19.493  0.00  0.00    +0.000 NA
BRANCH  17  26
ATOM     22  C   UNL     1      -2.315  12.321  23.188  0.00  0.00    +0.000 A 
ATOM     23  C   UNL     1      -1.919  13.625  23.494  0.00  0.00    +0.000 A 
ATOM     24  C   UNL     1      -0.799  14.191  22.885  0.00  0.00    +0.000 A 
ATOM     25  C   UNL     1      -0.068  13.459  21.948  0.00  0.00    +0.000 A 
ATOM     26  C   UNL     1      -0.461  12.158  21.618  0.00  0.00    +0.000 A 
ATOM     27  C   UNL     1      -1.579  11.592  22.256  0.00  0.00    +0.000 A 
BRANCH  22  29
ATOM     28  C   UNL     1      -4.216  12.854  24.512  0.00  0.00    +0.000 C 
ATOM     29  O   UNL     1      -3.424  11.873  23.850  0.00  0.00    +0.000 OA
ENDBRANCH  22  29
ENDBRANCH  17  26
ENDBRANCH   1  19
TORSDOF 7
ENDMDL
MODEL 5
REMARK VINA RESULT:      -7.0      1.050      1.159
REMARK  Name = 
REMARK  11 active torsions:
REMARK  status: ('A' for Active; 'I' for Inactive)
REMARK    1  A    between atoms: C_1  and  O_2
REMARK    2  A    between atoms: O_2  and  C_3
REMARK    3  A    between atoms: C_7  and  C_8
REMARK    4  A    between atoms: C_10  and  C_11
REMARK    5  A    between atoms: N_13  and  C_14
REMARK    6  A    between atoms: C_16  and  O_17
REMARK    7  A    between atoms: O_17  and  C_18
REMARK    8  A    between atoms: C_19  and  O_20
REMARK    9  A    between atoms: O_20  and  C_21
REMARK   10  A    between atoms: C_22  and  O_23
REMARK   11  A    between atoms: O_23  and  C_24
REMARK                            x       y       z     vdW  Elec       q    Type
REMARK                         _______ _______ _______ _____ _____    ______ ____
ROOT
ATOM      1  C   UNL     1       1.543   9.060  18.896  0.00  0.00    +0.000 C 
ATOM      2  O   UNL     1       1.629   8.988  17.670  0.00  0.00    +0.000 OA
ATOM      3  N   UNL     1       1.862   8.042  19.782  0.00  0.00    +0.000 N 
ATOM      4  H   UNL     1       1.600   8.187  20.749  0.00  0.00    +0.000 HD
ENDROOT
BRANCH   3   5
ATOM      5  C   UNL     1       2.446   6.803  19.440  0.00  0.00    +0.000 A 
ATOM      6  C   UNL     1       3.166   6.628  18.264  0.00  0.00    +0.000 A 
ATOM      7  C   UNL     1       3.751   5.404  17.944  0.00  0.00    +0.000 A 
ATOM      8  C   UNL     1       3.578   4.304  18.805  0.00  0.00    +0.000 A 
ATOM      9  C   UNL     1       2.836   4.464  19.996  0.00  0.00    +0.000 A 
ATOM     10  C   UNL     1       2.307   5.726  20.318  0.00  0.00    +0.000 A 
BRANCH   7  11
ATOM     11  O   UNL     1       4.493   5.225  16.798  0.00  0.00    +0.000 OA
ATOM     12  C   UNL     1       5.065   6.409  16.237  0.00  0.00    +0.000 C 
ENDBRANCH   7  11
BRANCH   8  13
ATOM     13  O   UNL     1       4.116   3.122  18.351  0.00  0.00    +0.000 OA
ATOM     14  C   UNL     1       3.210   2.156  17.836  0.00  0.00    +0.000 C 
ENDBRANCH   8  13
BRANCH   9  15
ATOM     15  O   UNL     1       2.638   3.353  20.777  0.00  0.00    +0.000 OA
ATOM     16  C   UNL     1       1.306   2.968  21.088  0.00  0.00    +0.000 C 
ENDBRANCH   9  15
ENDBRANCH   3   5
BRANCH   1  19
ATOM     17  C   UNL     1       0.089  11.801  20.768  0.00  0.00    +0.000 A 
ATOM     18  C   UNL     1       0.235  10.406  20.606  0.00  0.00    +0.000 A 
ATOM     19  C   UNL     1       1.048  10.257  19.513  0.00  0.00    +0.000 A 
ATOM     20  O   UNL     1       1.355  11.482  19.019  0.00  0.00    +0.000 OA
ATOM     21  N   UNL     1       0.749  12.455  19.797  0.00  0.00    +0.000 NA
BRANCH  17  26
ATOM     22  C   UNL     1      -2.558  12.490  23.345  0.00  0.00    +0.000 A 
ATOM     23  C   UNL     1      -2.203  13.779  23.749  0.00  0.00    +0.000 A 
ATOM     24  C   UNL     1      -1.083  14.411  23.209  0.00  0.00    +0.000 A 
ATOM     25  C   UNL     1      -0.311  13.762  22.244  0.00  0.00    +0.000 A 
ATOM     26  C   UNL     1      -0.663  12.478  21.816  0.00  0.00    +0.000 A 
ATOM     27  C   UNL     1      -1.782  11.844  22.385  0.00  0.00    +0.000 A 
BRANCH  22  29
ATOM     28  C   UNL     1      -4.794  12.840  24.075  0.00  0.00    +0.000 C 
ATOM     29  O   UNL     1      -3.672  11.972  23.946  0.00  0.00    +0.000 OA
ENDBRANCH  22  29
ENDBRANCH  17  26
ENDBRANCH   1  19
TORSDOF 7
ENDMDL
MODEL 6
REMARK VINA RESULT:      -7.0      2.822     10.294
REMARK  Name = 
REMARK  11 active torsions:
REMARK  status: ('A' for Active; 'I' for Inactive)
REMARK    1  A    between atoms: C_1  and  O_2
REMARK    2  A    between atoms: O_2  and  C_3
REMARK    3  A    between atoms: C_7  and  C_8
REMARK    4  A    between atoms: C_10  and  C_11
REMARK    5  A    between atoms: N_13  and  C_14
REMARK    6  A    between atoms: C_16  and  O_17
REMARK    7  A    between atoms: O_17  and  C_18
REMARK    8  A    between atoms: C_19  and  O_20
REMARK    9  A    between atoms: O_20  and  C_21
REMARK   10  A    between atoms: C_22  and  O_23
REMARK   11  A    between atoms: O_23  and  C_24
REMARK                            x       y       z     vdW  Elec       q    Type
REMARK                         _______ _______ _______ _____ _____    ______ ____
ROOT
ATOM      1  C   UNL     1       1.195   9.858  18.913  0.00  0.00    +0.000 C 
ATOM      2  O   UNL     1       1.609  10.838  18.295  0.00  0.00    +0.000 OA
ATOM      3  N   UNL     1       0.087   9.846  19.746  0.00  0.00    +0.000 N 
ATOM      4  H   UNL     1      -0.049   9.014  20.306  0.00  0.00    +0.000 HD
ENDROOT
BRANCH   3   5
ATOM      5  C   UNL     1      -0.817  10.915  19.932  0.00  0.00    +0.000 A 
ATOM      6  C   UNL     1      -0.621  11.883  20.911  0.00  0.00    +0.000 A 
ATOM      7  C   UNL     1      -1.513  12.941  21.077  0.00  0.00    +0.000 A 
ATOM      8  C   UNL     1      -2.661  13.017  20.268  0.00  0.00    +0.000 A 
ATOM      9  C   UNL     1      -2.880  12.032  19.279  0.00  0.00    +0.000 A 
ATOM     10  C   UNL     1      -1.933  11.009  19.099  0.00  0.00    +0.000 A 
BRANCH   7  11
ATOM     11  O   UNL     1      -1.314  13.923  22.022  0.00  0.00    +0.000 OA
ATOM     12  C   UNL     1      -1.319  13.487  23.383  0.00  0.00    +0.000 C 
ENDBRANCH   7  11
BRANCH   8  13
ATOM     13  O   UNL     1      -3.521  14.046  20.574  0.00  0.00    +0.000 OA
ATOM     14  C   UNL     1      -4.623  13.737  21.416  0.00  0.00    +0.000 C 
ENDBRANCH   8  13
BRANCH   9  15
ATOM     15  O   UNL     1      -4.042  12.106  18.553  0.00  0.00    +0.000 OA
ATOM     16  C   UNL     1      -4.274  11.138  17.539  0.00  0.00    +0.000 C 
ENDBRANCH   9  15
ENDBRANCH   3   5
BRANCH   1  19
ATOM     17  C   UNL     1       3.068   6.824  18.268  0.00  0.00    +0.000 A 
ATOM     18  C   UNL     1       2.562   8.046  17.774  0.00  0.00    +0.000 A 
ATOM     19  C   UNL     1       1.895   8.608  18.831  0.00  0.00    +0.000 A 
ATOM     20  O   UNL     1       1.964   7.769  19.895  0.00  0.00    +0.000 OA
ATOM     21  N   UNL     1       2.691   6.643  19.545  0.00  0.00    +0.000 NA
BRANCH  17  26
ATOM     22  C   UNL     1       5.583   5.432  15.846  0.00  0.00    +0.000 A 
ATOM     23  C   UNL     1       5.384   4.060  16.020  0.00  0.00    +0.000 A 
ATOM     24  C   UNL     1       4.457   3.587  16.949  0.00  0.00    +0.000 A 
ATOM     25  C   UNL     1       3.706   4.486  17.708  0.00  0.00    +0.000 A 
ATOM     26  C   UNL     1       3.881   5.863  17.533  0.00  0.00    +0.000 A 
ATOM     27  C   UNL     1       4.834   6.326  16.608  0.00  0.00    +0.000 A 
BRANCH  22  29
ATOM     28  C   UNL     1       6.993   4.732  14.064  0.00  0.00    +0.000 C 
ATOM     29  O   UNL     1       6.518   5.776  14.910  0.00  0.00    +0.000 OA
ENDBRANCH  22  29
ENDBRANCH  17  26
ENDBRANCH   1  19
TORSDOF 7
ENDMDL
MODEL 7
REMARK VINA RESULT:      -6.9      2.131      3.512
REMARK  Name = 
REMARK  11 active torsions:
REMARK  status: ('A' for Active; 'I' for Inactive)
REMARK    1  A    between atoms: C_1  and  O_2
REMARK    2  A    between atoms: O_2  and  C_3
REMARK    3  A    between atoms: C_7  and  C_8
REMARK    4  A    between atoms: C_10  and  C_11
REMARK    5  A    between atoms: N_13  and  C_14
REMARK    6  A    between atoms: C_16  and  O_17
REMARK    7  A    between atoms: O_17  and  C_18
REMARK    8  A    between atoms: C_19  and  O_20
REMARK    9  A    between atoms: O_20  and  C_21
REMARK   10  A    between atoms: C_22  and  O_23
REMARK   11  A    between atoms: O_23  and  C_24
REMARK                            x       y       z     vdW  Elec       q    Type
REMARK                         _______ _______ _______ _____ _____    ______ ____
ROOT
ATOM      1  C   UNL     1       1.708   8.723  18.844  0.00  0.00    +0.000 C 
ATOM      2  O   UNL     1       1.738   9.202  17.711  0.00  0.00    +0.000 OA
ATOM      3  N   UNL     1       2.263   7.507  19.214  0.00  0.00    +0.000 N 
ATOM      4  H   UNL     1       2.033   7.168  20.139  0.00  0.00    +0.000 HD
ENDROOT
BRANCH   3   5
ATOM      5  C   UNL     1       3.052   6.675  18.391  0.00  0.00    +0.000 A 
ATOM      6  C   UNL     1       2.714   5.349  18.143  0.00  0.00    +0.000 A 
ATOM      7  C   UNL     1       3.493   4.542  17.317  0.00  0.00    +0.000 A 
ATOM      8  C   UNL     1       4.672   5.058  16.750  0.00  0.00    +0.000 A 
ATOM      9  C   UNL     1       5.036   6.400  17.005  0.00  0.00    +0.000 A 
ATOM     10  C   UNL     1       4.199   7.205  17.796  0.00  0.00    +0.000 A 
BRANCH   7  11
ATOM     11  O   UNL     1       3.153   3.236  17.040  0.00  0.00    +0.000 OA
ATOM     12  C   UNL     1       3.240   2.324  18.137  0.00  0.00    +0.000 C 
ENDBRANCH   7  11
BRANCH   8  13
ATOM     13  O   UNL     1       5.415   4.152  16.028  0.00  0.00    +0.000 OA
ATOM     14  C   UNL     1       5.479   4.346  14.622  0.00  0.00    +0.000 C 
ENDBRANCH   8  13
BRANCH   9  15
ATOM     15  O   UNL     1       6.224   6.847  16.484  0.00  0.00    +0.000 OA
ATOM     16  C   UNL     1       7.349   6.947  17.345  0.00  0.00    +0.000 C 
ENDBRANCH   9  15
ENDBRANCH   3   5
BRANCH   1  19
ATOM     17  C   UNL     1      -0.312  10.614  21.184  0.00  0.00    +0.000 A 
ATOM     18  C   UNL     1      -0.081  10.219  19.847  0.00  0.00    +0.000 A 
ATOM     19  C   UNL     1       1.028   9.416  19.900  0.00  0.00    +0.000 A 
ATOM     20  O   UNL     1       1.466   9.349  21.182  0.00  0.00    +0.000 OA
ATOM     21  N   UNL     1       0.634  10.106  21.991  0.00  0.00    +0.000 NA
BRANCH  17  26
ATOM     22  C   UNL     1      -3.212  13.005  21.163  0.00  0.00    +0.000 A 
ATOM     23  C   UNL     1      -3.428  13.168  22.533  0.00  0.00    +0.000 A 
ATOM     24  C   UNL     1      -2.654  12.474  23.464  0.00  0.00    +0.000 A 
ATOM     25  C   UNL     1      -1.642  11.617  23.030  0.00  0.00    +0.000 A 
ATOM     26  C   UNL     1      -1.401  11.456  21.662  0.00  0.00    +0.000 A 
ATOM     27  C   UNL     1      -2.203  12.145  20.735  0.00  0.00    +0.000 A 
BRANCH  22  29
ATOM     28  C   UNL     1      -5.208  13.082  19.874  0.00  0.00    +0.000 C 
ATOM     29  O   UNL     1      -4.034  13.733  20.348  0.00  0.00    +0.000 OA
ENDBRANCH  22  29
ENDBRANCH  17  26
ENDBRANCH   1  19
TORSDOF 7
ENDMDL
MODEL 8
REMARK VINA RESULT:      -6.9      2.303      3.060
REMARK  Name = 
REMARK  11 active torsions:
REMARK  status: ('A' for Active; 'I' for Inactive)
REMARK    1  A    between atoms: C_1  and  O_2
REMARK    2  A    between atoms: O_2  and  C_3
REMARK    3  A    between atoms: C_7  and  C_8
REMARK    4  A    between atoms: C_10  and  C_11
REMARK    5  A    between atoms: N_13  and  C_14
REMARK    6  A    between atoms: C_16  and  O_17
REMARK    7  A    between atoms: O_17  and  C_18
REMARK    8  A    between atoms: C_19  and  O_20
REMARK    9  A    between atoms: O_20  and  C_21
REMARK   10  A    between atoms: C_22  and  O_23
REMARK   11  A    between atoms: O_23  and  C_24
REMARK                            x       y       z     vdW  Elec       q    Type
REMARK                         _______ _______ _______ _____ _____    ______ ____
ROOT
ATOM      1  C   UNL     1       1.854   8.647  18.545  0.00  0.00    +0.000 C 
ATOM      2  O   UNL     1       1.955   9.106  17.407  0.00  0.00    +0.000 OA
ATOM      3  N   UNL     1       2.396   7.446  18.974  0.00  0.00    +0.000 N 
ATOM      4  H   UNL     1       2.108   7.121  19.889  0.00  0.00    +0.000 HD
ENDROOT
BRANCH   3   5
ATOM      5  C   UNL     1       3.248   6.609  18.222  0.00  0.00    +0.000 A 
ATOM      6  C   UNL     1       4.441   7.071  17.677  0.00  0.00    +0.000 A 
ATOM      7  C   UNL     1       5.281   6.232  16.948  0.00  0.00    +0.000 A 
ATOM      8  C   UNL     1       4.903   4.896  16.719  0.00  0.00    +0.000 A 
ATOM      9  C   UNL     1       3.687   4.417  17.255  0.00  0.00    +0.000 A 
ATOM     10  C   UNL     1       2.889   5.273  18.034  0.00  0.00    +0.000 A 
BRANCH   7  11
ATOM     11  O   UNL     1       6.480   6.669  16.429  0.00  0.00    +0.000 OA
ATOM     12  C   UNL     1       7.432   7.149  17.381  0.00  0.00    +0.000 C 
ENDBRANCH   7  11
BRANCH   8  13
ATOM     13  O   UNL     1       5.757   4.181  15.912  0.00  0.00    +0.000 OA
ATOM     14  C   UNL     1       5.555   4.282  14.509  0.00  0.00    +0.000 C 
ENDBRANCH   8  13
BRANCH   9  15
ATOM     15  O   UNL     1       3.324   3.128  16.957  0.00  0.00    +0.000 OA
ATOM     16  C   UNL     1       3.468   2.131  17.960  0.00  0.00    +0.000 C 
ENDBRANCH   9  15
ENDBRANCH   3   5
BRANCH   1  19
ATOM     17  C   UNL     1      -0.141  10.745  20.725  0.00  0.00    +0.000 A 
ATOM     18  C   UNL     1       0.441  10.552  19.453  0.00  0.00    +0.000 A 
ATOM     19  C   UNL     1       1.097   9.352  19.539  0.00  0.00    +0.000 A 
ATOM     20  O   UNL     1       0.950   8.856  20.794  0.00  0.00    +0.000 OA
ATOM     21  N   UNL     1       0.182   9.730  21.545  0.00  0.00    +0.000 NA
BRANCH  17  26
ATOM     22  C   UNL     1      -1.566  13.514  22.829  0.00  0.00    +0.000 A 
ATOM     23  C   UNL     1      -2.612  13.952  22.014  0.00  0.00    +0.000 A 
ATOM     24  C   UNL     1      -2.834  13.370  20.765  0.00  0.00    +0.000 A 
ATOM     25  C   UNL     1      -2.014  12.330  20.324  0.00  0.00    +0.000 A 
ATOM     26  C   UNL     1      -0.973  11.868  21.135  0.00  0.00    +0.000 A 
ATOM     27  C   UNL     1      -0.748  12.479  22.382  0.00  0.00    +0.000 A 
BRANCH  22  29
ATOM     28  C   UNL     1      -0.974  15.505  23.987  0.00  0.00    +0.000 C 
ATOM     29  O   UNL     1      -1.445  14.161  24.028  0.00  0.00    +0.000 OA
ENDBRANCH  22  29
ENDBRANCH  17  26
ENDBRANCH   1  19
TORSDOF 7
ENDMDL
MODEL 9
REMARK VINA RESULT:      -6.9      2.385      3.711
REMARK  Name = 
REMARK  11 active torsions:
REMARK  status: ('A' for Active; 'I' for Inactive)
REMARK    1  A    between atoms: C_1  and  O_2
REMARK    2  A    between atoms: O_2  and  C_3
REMARK    3  A    between atoms: C_7  and  C_8
REMARK    4  A    between atoms: C_10  and  C_11
REMARK    5  A    between atoms: N_13  and  C_14
REMARK    6  A    between atoms: C_16  and  O_17
REMARK    7  A    between atoms: O_17  and  C_18
REMARK    8  A    between atoms: C_19  and  O_20
REMARK    9  A    between atoms: O_20  and  C_21
REMARK   10  A    between atoms: C_22  and  O_23
REMARK   11  A    between atoms: O_23  and  C_24
REMARK                            x       y       z     vdW  Elec       q    Type
REMARK                         _______ _______ _______ _____ _____    ______ ____
ROOT
ATOM      1  C   UNL     1       1.796   8.776  18.517  0.00  0.00    +0.000 C 
ATOM      2  O   UNL     1       2.005   9.283  17.415  0.00  0.00    +0.000 OA
ATOM      3  N   UNL     1       2.236   7.524  18.919  0.00  0.00    +0.000 N 
ATOM      4  H   UNL     1       1.864   7.174  19.793  0.00  0.00    +0.000 HD
ENDROOT
BRANCH   3   5
ATOM      5  C   UNL     1       3.092   6.675  18.185  0.00  0.00    +0.000 A 
ATOM      6  C   UNL     1       2.794   5.333  17.975  0.00  0.00    +0.000 A 
ATOM      7  C   UNL     1       3.639   4.507  17.237  0.00  0.00    +0.000 A 
ATOM      8  C   UNL     1       4.843   5.023  16.724  0.00  0.00    +0.000 A 
ATOM      9  C   UNL     1       5.165   6.381  16.942  0.00  0.00    +0.000 A 
ATOM     10  C   UNL     1       4.264   7.203  17.642  0.00  0.00    +0.000 A 
BRANCH   7  11
ATOM     11  O   UNL     1       3.341   3.184  16.995  0.00  0.00    +0.000 OA
ATOM     12  C   UNL     1       3.404   2.315  18.129  0.00  0.00    +0.000 C 
ENDBRANCH   7  11
BRANCH   8  13
ATOM     13  O   UNL     1       5.647   4.103  16.091  0.00  0.00    +0.000 OA
ATOM     14  C   UNL     1       5.728   4.184  14.674  0.00  0.00    +0.000 C 
ENDBRANCH   8  13
BRANCH   9  15
ATOM     15  O   UNL     1       6.376   6.831  16.479  0.00  0.00    +0.000 OA
ATOM     16  C   UNL     1       7.449   6.965  17.400  0.00  0.00    +0.000 C 
ENDBRANCH   9  15
ENDBRANCH   3   5
BRANCH   1  19
ATOM     17  C   UNL     1      -0.178  10.905  20.686  0.00  0.00    +0.000 A 
ATOM     18  C   UNL     1       0.551  10.767  19.484  0.00  0.00    +0.000 A 
ATOM     19  C   UNL     1       1.009   9.475  19.492  0.00  0.00    +0.000 A 
ATOM     20  O   UNL     1       0.611   8.871  20.640  0.00  0.00    +0.000 OA
ATOM     21  N   UNL     1      -0.127   9.767  21.397  0.00  0.00    +0.000 NA
BRANCH  17  26
ATOM     22  C   UNL     1      -1.119  13.907  22.742  0.00  0.00    +0.000 A 
ATOM     23  C   UNL     1      -2.289  14.312  22.096  0.00  0.00    +0.000 A 
ATOM     24  C   UNL     1      -2.753  13.631  20.970  0.00  0.00    +0.000 A 
ATOM     25  C   UNL     1      -2.056  12.523  20.486  0.00  0.00    +0.000 A 
ATOM     26  C   UNL     1      -0.892  12.094  21.133  0.00  0.00    +0.000 A 
ATOM     27  C   UNL     1      -0.424  12.803  22.253  0.00  0.00    +0.000 A 
BRANCH  22  29
ATOM     28  C   UNL     1      -1.795  14.973  24.757  0.00  0.00    +0.000 C 
ATOM     29  O   UNL     1      -0.761  14.653  23.831  0.00  0.00    +0.000 OA
ENDBRANCH  22  29
ENDBRANCH  17  26
ENDBRANCH   1  19
TORSDOF 7
ENDMDL
