MODEL 1
REMARK VINA RESULT:      -8.8      0.000      0.000
REMARK  Name = 
REMARK  6 active torsions:
REMARK  status: ('A' for Active; 'I' for Inactive)
REMARK    1  A    between atoms: C_1  and  O_2
REMARK    2  A    between atoms: O_2  and  C_3
REMARK    3  A    between atoms: C_6  and  O_7
REMARK    4  A    between atoms: O_7  and  C_8
REMARK    5  A    between atoms: C_9  and  C_10
REMARK    6  A    between atoms: C_10  and  N_11
REMARK                            x       y       z     vdW  Elec       q    Type
REMARK                         _______ _______ _______ _____ _____    ______ ____
ROOT
ATOM      1  N   UNL     1       3.525   5.566  19.147  0.00  0.00    +0.000 NA
ATOM      2  C   UNL     1       2.387   5.370  20.045  0.00  0.00    +0.000 C 
ATOM      3  C   UNL     1       1.943   6.664  20.750  0.00  0.00    +0.000 C 
ATOM      4  C   UNL     1       1.781   7.797  19.778  0.00  0.00    +0.000 A 
ATOM      5  N   UNL     1       0.956   8.814  20.119  0.00  0.00    +0.000 NA
ATOM      6  C   UNL     1       0.793   9.828  19.248  0.00  0.00    +0.000 A 
ATOM      7  N   UNL     1      -0.086  10.836  19.546  0.00  0.00    +0.000 N 
ATOM      8  C   UNL     1      -0.662  10.955  20.888  0.00  0.00    +0.000 C 
ATOM      9  C   UNL     1      -0.156  12.226  21.601  0.00  0.00    +0.000 C 
ATOM     10  N   UNL     1      -0.296  13.404  20.739  0.00  0.00    +0.000 N 
ATOM     11  C   UNL     1      -1.104  14.452  21.085  0.00  0.00    +0.000 A 
ATOM     12  N   UNL     1      -1.730  14.424  22.276  0.00  0.00    +0.000 NA
ATOM     13  C   UNL     1      -2.479  15.485  22.623  0.00  0.00    +0.000 A 
ATOM     14  C   UNL     1      -2.640  16.593  21.831  0.00  0.00    +0.000 A 
ATOM     15  C   UNL     1      -1.981  16.536  20.630  0.00  0.00    +0.000 A 
ATOM     16  N   UNL     1      -1.225  15.490  20.241  0.00  0.00    +0.000 NA
ATOM     17  C   UNL     1       0.293  13.296  19.402  0.00  0.00    +0.000 C 
ATOM     18  C   UNL     1      -0.197  12.018  18.684  0.00  0.00    +0.000 C 
ATOM     19  N   UNL     1       1.430   9.864  18.065  0.00  0.00    +0.000 NA
ATOM     20  C   UNL     1       2.252   8.847  17.766  0.00  0.00    +0.000 A 
ATOM     21  C   UNL     1       2.481   7.777  18.597  0.00  0.00    +0.000 A 
ATOM     22  C   UNL     1       3.378   6.660  18.186  0.00  0.00    +0.000 C 
ENDROOT
BRANCH   1  23
ATOM     23  C   UNL     1       4.023   4.340  18.492  0.00  0.00    +0.000 C 
BRANCH  23  28
ATOM     24  C   UNL     1       5.561   4.324  14.998  0.00  0.00    +0.000 A 
ATOM     25  C   UNL     1       6.915   4.518  15.266  0.00  0.00    +0.000 A 
ATOM     26  C   UNL     1       7.353   4.687  16.581  0.00  0.00    +0.000 A 
ATOM     27  C   UNL     1       6.454   4.639  17.651  0.00  0.00    +0.000 A 
ATOM     28  C   UNL     1       5.077   4.471  17.396  0.00  0.00    +0.000 A 
ATOM     29  C   UNL     1       4.653   4.325  16.056  0.00  0.00    +0.000 A 
BRANCH  24  31
ATOM     30  C   UNL     1       6.284   3.550  12.874  0.00  0.00    +0.000 C 
ATOM     31  O   UNL     1       5.266   4.129  13.677  0.00  0.00    +0.000 OA
ENDBRANCH  24  31
BRANCH  27  32
ATOM     32  O   UNL     1       6.848   4.745  18.962  0.00  0.00    +0.000 OA
ATOM     33  C   UNL     1       7.775   5.789  19.265  0.00  0.00    +0.000 C 
ENDBRANCH  27  32
ENDBRANCH  23  28
ENDBRANCH   1  23
TORSDOF 4
ENDMDL
MODEL 2
REMARK VINA RESULT:      -8.7      2.362      4.267
REMARK  Name = 
REMARK  6 active torsions:
REMARK  status: ('A' for Active; 'I' for Inactive)
REMARK    1  A    between atoms: C_1  and  O_2
REMARK    2  A    between atoms: O_2  and  C_3
REMARK    3  A    between atoms: C_6  and  O_7
REMARK    4  A    between atoms: O_7  and  C_8
REMARK    5  A    between atoms: C_9  and  C_10
REMARK    6  A    between atoms: C_10  and  N_11
REMARK                            x       y       z     vdW  Elec       q    Type
REMARK                         _______ _______ _______ _____ _____    ______ ____
ROOT
ATOM      1  N   UNL     1       2.145   7.580  18.801  0.00  0.00    +0.000 NA
ATOM      2  C   UNL     1       2.129   8.773  17.954  0.00  0.00    +0.000 C 
ATOM      3  C   UNL     1       0.878   9.646  18.162  0.00  0.00    +0.000 C 
ATOM      4  C   UNL     1       0.625   9.912  19.619  0.00  0.00    +0.000 A 
ATOM      5  N   UNL     1      -0.090  11.013  19.948  0.00  0.00    +0.000 NA
ATOM      6  C   UNL     1      -0.311  11.268  21.252  0.00  0.00    +0.000 A 
ATOM      7  N   UNL     1      -0.978  12.410  21.610  0.00  0.00    +0.000 N 
ATOM      8  C   UNL     1      -1.660  13.226  20.603  0.00  0.00    +0.000 C 
ATOM      9  C   UNL     1      -3.190  13.190  20.800  0.00  0.00    +0.000 C 
ATOM     10  N   UNL     1      -3.548  13.466  22.194  0.00  0.00    +0.000 N 
ATOM     11  C   UNL     1      -4.294  14.559  22.538  0.00  0.00    +0.000 A 
ATOM     12  N   UNL     1      -4.763  15.360  21.563  0.00  0.00    +0.000 NA
ATOM     13  C   UNL     1      -5.539  16.400  21.915  0.00  0.00    +0.000 A 
ATOM     14  C   UNL     1      -5.876  16.691  23.212  0.00  0.00    +0.000 A 
ATOM     15  C   UNL     1      -5.348  15.837  24.145  0.00  0.00    +0.000 A 
ATOM     16  N   UNL     1      -4.563  14.785  23.835  0.00  0.00    +0.000 NA
ATOM     17  C   UNL     1      -2.881  12.641  23.204  0.00  0.00    +0.000 C 
ATOM     18  C   UNL     1      -1.348  12.660  23.008  0.00  0.00    +0.000 C 
ATOM     19  N   UNL     1       0.143  10.461  22.225  0.00  0.00    +0.000 NA
ATOM     20  C   UNL     1       0.835   9.370  21.862  0.00  0.00    +0.000 A 
ATOM     21  C   UNL     1       1.101   9.032  20.558  0.00  0.00    +0.000 A 
ATOM     22  C   UNL     1       1.910   7.824  20.225  0.00  0.00    +0.000 C 
ENDROOT
BRANCH   1  23
ATOM     23  C   UNL     1       3.299   6.682  18.594  0.00  0.00    +0.000 C 
BRANCH  23  28
ATOM     24  C   UNL     1       1.975   3.167  19.275  0.00  0.00    +0.000 A 
ATOM     25  C   UNL     1       2.590   2.416  18.274  0.00  0.00    +0.000 A 
ATOM     26  C   UNL     1       3.422   3.038  17.341  0.00  0.00    +0.000 A 
ATOM     27  C   UNL     1       3.676   4.413  17.406  0.00  0.00    +0.000 A 
ATOM     28  C   UNL     1       3.040   5.191  18.396  0.00  0.00    +0.000 A 
ATOM     29  C   UNL     1       2.184   4.545  19.315  0.00  0.00    +0.000 A 
BRANCH  24  31
ATOM     30  C   UNL     1       1.435   2.677  21.533  0.00  0.00    +0.000 C 
ATOM     31  O   UNL     1       1.220   2.436  20.150  0.00  0.00    +0.000 OA
ENDBRANCH  24  31
BRANCH  27  32
ATOM     32  O   UNL     1       4.529   5.055  16.544  0.00  0.00    +0.000 OA
ATOM     33  C   UNL     1       5.367   4.223  15.740  0.00  0.00    +0.000 C 
ENDBRANCH  27  32
ENDBRANCH  23  28
ENDBRANCH   1  23
TORSDOF 4
ENDMDL
MODEL 3
REMARK VINA RESULT:      -8.4      2.035      2.880
REMARK  Name = 
REMARK  6 active torsions:
REMARK  status: ('A' for Active; 'I' for Inactive)
REMARK    1  A    between atoms: C_1  and  O_2
REMARK    2  A    between atoms: O_2  and  C_3
REMARK    3  A    between atoms: C_6  and  O_7
REMARK    4  A    between atoms: O_7  and  C_8
REMARK    5  A    between atoms: C_9  and  C_10
REMARK    6  A    between atoms: C_10  and  N_11
REMARK                            x       y       z     vdW  Elec       q    Type
REMARK                         _______ _______ _______ _____ _____    ______ ____
ROOT
ATOM      1  N   UNL     1       2.648   7.387  18.811  0.00  0.00    +0.000 NA
ATOM      2  C   UNL     1       1.968   6.939  20.027  0.00  0.00    +0.000 C 
ATOM      3  C   UNL     1       1.576   8.097  20.962  0.00  0.00    +0.000 C 
ATOM      4  C   UNL     1       0.866   9.193  20.220  0.00  0.00    +0.000 A 
ATOM      5  N   UNL     1       0.047  10.009  20.922  0.00  0.00    +0.000 NA
ATOM      6  C   UNL     1      -0.605  10.986  20.263  0.00  0.00    +0.000 A 
ATOM      7  N   UNL     1      -1.488  11.783  20.943  0.00  0.00    +0.000 N 
ATOM      8  C   UNL     1      -1.553  11.750  22.406  0.00  0.00    +0.000 C 
ATOM      9  C   UNL     1      -1.069  13.083  23.015  0.00  0.00    +0.000 C 
ATOM     10  N   UNL     1      -1.727  14.224  22.373  0.00  0.00    +0.000 N 
ATOM     11  C   UNL     1      -2.535  15.074  23.076  0.00  0.00    +0.000 A 
ATOM     12  N   UNL     1      -2.673  14.890  24.402  0.00  0.00    +0.000 NA
ATOM     13  C   UNL     1      -3.430  15.766  25.088  0.00  0.00    +0.000 A 
ATOM     14  C   UNL     1      -4.069  16.832  24.510  0.00  0.00    +0.000 A 
ATOM     15  C   UNL     1      -3.889  16.940  23.156  0.00  0.00    +0.000 A 
ATOM     16  N   UNL     1      -3.143  16.083  22.430  0.00  0.00    +0.000 NA
ATOM     17  C   UNL     1      -1.651  14.270  20.910  0.00  0.00    +0.000 C 
ATOM     18  C   UNL     1      -2.121  12.935  20.290  0.00  0.00    +0.000 C 
ATOM     19  N   UNL     1      -0.456  11.179  18.942  0.00  0.00    +0.000 NA
ATOM     20  C   UNL     1       0.377  10.362  18.279  0.00  0.00    +0.000 A 
ATOM     21  C   UNL     1       1.084   9.345  18.872  0.00  0.00    +0.000 A 
ATOM     22  C   UNL     1       1.963   8.447  18.070  0.00  0.00    +0.000 C 
ENDROOT
BRANCH   1  23
ATOM     23  C   UNL     1       3.095   6.306  17.911  0.00  0.00    +0.000 C 
BRANCH  23  28
ATOM     24  C   UNL     1       6.834   6.791  17.313  0.00  0.00    +0.000 A 
ATOM     25  C   UNL     1       7.339   5.507  17.511  0.00  0.00    +0.000 A 
ATOM     26  C   UNL     1       6.482   4.464  17.871  0.00  0.00    +0.000 A 
ATOM     27  C   UNL     1       5.107   4.679  18.012  0.00  0.00    +0.000 A 
ATOM     28  C   UNL     1       4.584   5.978  17.843  0.00  0.00    +0.000 A 
ATOM     29  C   UNL     1       5.473   7.022  17.502  0.00  0.00    +0.000 A 
BRANCH  24  31
ATOM     30  C   UNL     1       8.054   8.757  17.843  0.00  0.00    +0.000 C 
ATOM     31  O   UNL     1       7.766   7.713  16.924  0.00  0.00    +0.000 OA
ENDBRANCH  24  31
BRANCH  27  32
ATOM     32  O   UNL     1       4.222   3.672  18.311  0.00  0.00    +0.000 OA
ATOM     33  C   UNL     1       4.422   2.996  19.553  0.00  0.00    +0.000 C 
ENDBRANCH  27  32
ENDBRANCH  23  28
ENDBRANCH   1  23
TORSDOF 4
ENDMDL
MODEL 4
REMARK VINA RESULT:      -8.3      1.068      2.033
REMARK  Name = 
REMARK  6 active torsions:
REMARK  status: ('A' for Active; 'I' for Inactive)
REMARK    1  A    between atoms: C_1  and  O_2
REMARK    2  A    between atoms: O_2  and  C_3
REMARK    3  A    between atoms: C_6  and  O_7
REMARK    4  A    between atoms: O_7  and  C_8
REMARK    5  A    between atoms: C_9  and  C_10
REMARK    6  A    between atoms: C_10  and  N_11
REMARK                            x       y       z     vdW  Elec       q    Type
REMARK                         _______ _______ _______ _____ _____    ______ ____
ROOT
ATOM      1  N   UNL     1       2.889   5.870  18.542  0.00  0.00    +0.000 NA
ATOM      2  C   UNL     1       3.406   7.084  17.909  0.00  0.00    +0.000 C 
ATOM      3  C   UNL     1       2.393   8.243  17.907  0.00  0.00    +0.000 C 
ATOM      4  C   UNL     1       1.793   8.457  19.268  0.00  0.00    +0.000 A 
ATOM      5  N   UNL     1       1.295   9.681  19.557  0.00  0.00    +0.000 NA
ATOM      6  C   UNL     1       0.768   9.887  20.779  0.00  0.00    +0.000 A 
ATOM      7  N   UNL     1       0.316  11.137  21.115  0.00  0.00    +0.000 N 
ATOM      8  C   UNL     1       0.174  12.180  20.097  0.00  0.00    +0.000 C 
ATOM      9  C   UNL     1      -1.309  12.544  19.874  0.00  0.00    +0.000 C 
ATOM     10  N   UNL     1      -1.985  12.800  21.149  0.00  0.00    +0.000 N 
ATOM     11  C   UNL     1      -2.518  14.024  21.443  0.00  0.00    +0.000 A 
ATOM     12  N   UNL     1      -2.475  14.993  20.510  0.00  0.00    +0.000 NA
ATOM     13  C   UNL     1      -3.051  16.174  20.796  0.00  0.00    +0.000 A 
ATOM     14  C   UNL     1      -3.675  16.447  21.986  0.00  0.00    +0.000 A 
ATOM     15  C   UNL     1      -3.663  15.413  22.887  0.00  0.00    +0.000 A 
ATOM     16  N   UNL     1      -3.094  14.216  22.642  0.00  0.00    +0.000 NA
ATOM     17  C   UNL     1      -1.860  11.751  22.165  0.00  0.00    +0.000 C 
ATOM     18  C   UNL     1      -0.378  11.370  22.386  0.00  0.00    +0.000 C 
ATOM     19  N   UNL     1       0.711   8.917  21.706  0.00  0.00    +0.000 NA
ATOM     20  C   UNL     1       1.200   7.710  21.379  0.00  0.00    +0.000 A 
ATOM     21  C   UNL     1       1.749   7.412  20.157  0.00  0.00    +0.000 A 
ATOM     22  C   UNL     1       2.310   6.060  19.873  0.00  0.00    +0.000 C 
ENDROOT
BRANCH   1  23
ATOM     23  C   UNL     1       3.805   4.712  18.515  0.00  0.00    +0.000 C 
BRANCH  23  28
ATOM     24  C   UNL     1       5.518   4.357  15.122  0.00  0.00    +0.000 A 
ATOM     25  C   UNL     1       6.868   4.448  15.457  0.00  0.00    +0.000 A 
ATOM     26  C   UNL     1       7.249   4.656  16.784  0.00  0.00    +0.000 A 
ATOM     27  C   UNL     1       6.293   4.749  17.802  0.00  0.00    +0.000 A 
ATOM     28  C   UNL     1       4.923   4.687  17.476  0.00  0.00    +0.000 A 
ATOM     29  C   UNL     1       4.559   4.500  16.124  0.00  0.00    +0.000 A 
BRANCH  24  31
ATOM     30  C   UNL     1       6.391   3.723  13.009  0.00  0.00    +0.000 C 
ATOM     31  O   UNL     1       5.276   4.111  13.799  0.00  0.00    +0.000 OA
ENDBRANCH  24  31
BRANCH  27  32
ATOM     32  O   UNL     1       6.626   4.898  19.126  0.00  0.00    +0.000 OA
ATOM     33  C   UNL     1       7.794   5.670  19.405  0.00  0.00    +0.000 C 
ENDBRANCH  27  32
ENDBRANCH  23  28
ENDBRANCH   1  23
TORSDOF 4
ENDMDL
MODEL 5
REMARK VINA RESULT:      -8.1      1.948      3.263
REMARK  Name = 
REMARK  6 active torsions:
REMARK  status: ('A' for Active; 'I' for Inactive)
REMARK    1  A    between atoms: C_1  and  O_2
REMARK    2  A    between atoms: O_2  and  C_3
REMARK    3  A    between atoms: C_6  and  O_7
REMARK    4  A    between atoms: O_7  and  C_8
REMARK    5  A    between atoms: C_9  and  C_10
REMARK    6  A    between atoms: C_10  and  N_11
REMARK                            x       y       z     vdW  Elec       q    Type
REMARK                         _______ _______ _______ _____ _____    ______ ____
ROOT
ATOM      1  N   UNL     1       2.472   6.533  19.329  0.00  0.00    +0.000 NA
ATOM      2  C   UNL     1       2.754   7.679  18.465  0.00  0.00    +0.000 C 
ATOM      3  C   UNL     1       1.608   8.706  18.428  0.00  0.00    +0.000 C 
ATOM      4  C   UNL     1       1.143   9.067  19.811  0.00  0.00    +0.000 A 
ATOM      5  N   UNL     1       0.529  10.260  19.982  0.00  0.00    +0.000 NA
ATOM      6  C   UNL     1       0.121  10.599  21.220  0.00  0.00    +0.000 A 
ATOM      7  N   UNL     1      -0.446  11.829  21.428  0.00  0.00    +0.000 N 
ATOM      8  C   UNL     1      -0.835  12.676  20.298  0.00  0.00    +0.000 C 
ATOM      9  C   UNL     1      -2.368  12.835  20.222  0.00  0.00    +0.000 C 
ATOM     10  N   UNL     1      -2.923  13.215  21.524  0.00  0.00    +0.000 N 
ATOM     11  C   UNL     1      -3.571  14.406  21.705  0.00  0.00    +0.000 A 
ATOM     12  N   UNL     1      -3.759  15.212  20.644  0.00  0.00    +0.000 NA
ATOM     13  C   UNL     1      -4.444  16.354  20.829  0.00  0.00    +0.000 A 
ATOM     14  C   UNL     1      -4.960  16.743  22.039  0.00  0.00    +0.000 A 
ATOM     15  C   UNL     1      -4.714  15.874  23.070  0.00  0.00    +0.000 A 
ATOM     16  N   UNL     1      -4.028  14.722  22.929  0.00  0.00    +0.000 NA
ATOM     17  C   UNL     1      -2.550  12.362  22.655  0.00  0.00    +0.000 C 
ATOM     18  C   UNL     1      -1.017  12.186  22.732  0.00  0.00    +0.000 C 
ATOM     19  N   UNL     1       0.294   9.789  22.278  0.00  0.00    +0.000 NA
ATOM     20  C   UNL     1       0.893   8.606  22.068  0.00  0.00    +0.000 A 
ATOM     21  C   UNL     1       1.335   8.179  20.840  0.00  0.00    +0.000 A 
ATOM     22  C   UNL     1       2.028   6.868  20.683  0.00  0.00    +0.000 C 
ENDROOT
BRANCH   1  23
ATOM     23  C   UNL     1       3.520   5.493  19.350  0.00  0.00    +0.000 C 
BRANCH  23  28
ATOM     24  C   UNL     1       6.334   6.046  16.831  0.00  0.00    +0.000 A 
ATOM     25  C   UNL     1       5.987   5.176  15.799  0.00  0.00    +0.000 A 
ATOM     26  C   UNL     1       4.852   4.372  15.910  0.00  0.00    +0.000 A 
ATOM     27  C   UNL     1       4.029   4.441  17.040  0.00  0.00    +0.000 A 
ATOM     28  C   UNL     1       4.380   5.295  18.106  0.00  0.00    +0.000 A 
ATOM     29  C   UNL     1       5.546   6.082  17.981  0.00  0.00    +0.000 A 
BRANCH  24  31
ATOM     30  C   UNL     1       7.807   7.747  17.585  0.00  0.00    +0.000 C 
ATOM     31  O   UNL     1       7.442   6.808  16.583  0.00  0.00    +0.000 OA
ENDBRANCH  24  31
BRANCH  27  32
ATOM     32  O   UNL     1       2.874   3.709  17.167  0.00  0.00    +0.000 OA
ATOM     33  C   UNL     1       3.007   2.405  17.735  0.00  0.00    +0.000 C 
ENDBRANCH  27  32
ENDBRANCH  23  28
ENDBRANCH   1  23
TORSDOF 4
ENDMDL
MODEL 6
REMARK VINA RESULT:      -8.1      2.945      4.435
REMARK  Name = 
REMARK  6 active torsions:
REMARK  status: ('A' for Active; 'I' for Inactive)
REMARK    1  A    between atoms: C_1  and  O_2
REMARK    2  A    between atoms: O_2  and  C_3
REMARK    3  A    between atoms: C_6  and  O_7
REMARK    4  A    between atoms: O_7  and  C_8
REMARK    5  A    between atoms: C_9  and  C_10
REMARK    6  A    between atoms: C_10  and  N_11
REMARK                            x       y       z     vdW  Elec       q    Type
REMARK                         _______ _______ _______ _____ _____    ______ ____
ROOT
ATOM      1  N   UNL     1       1.803   8.285  18.698  0.00  0.00    +0.000 NA
ATOM      2  C   UNL     1       1.465   9.359  17.764  0.00  0.00    +0.000 C 
ATOM      3  C   UNL     1       0.061   9.944  17.997  0.00  0.00    +0.000 C 
ATOM      4  C   UNL     1      -0.166  10.283  19.443  0.00  0.00    +0.000 A 
ATOM      5  N   UNL     1      -1.095  11.221  19.738  0.00  0.00    +0.000 NA
ATOM      6  C   UNL     1      -1.295  11.541  21.031  0.00  0.00    +0.000 A 
ATOM      7  N   UNL     1      -2.185  12.534  21.348  0.00  0.00    +0.000 N 
ATOM      8  C   UNL     1      -3.092  13.078  20.334  0.00  0.00    +0.000 C 
ATOM      9  C   UNL     1      -4.559  12.718  20.649  0.00  0.00    +0.000 C 
ATOM     10  N   UNL     1      -4.893  13.037  22.040  0.00  0.00    +0.000 N 
ATOM     11  C   UNL     1      -5.849  13.962  22.353  0.00  0.00    +0.000 A 
ATOM     12  N   UNL     1      -6.544  14.542  21.357  0.00  0.00    +0.000 NA
ATOM     13  C   UNL     1      -7.517  15.410  21.684  0.00  0.00    +0.000 A 
ATOM     14  C   UNL     1      -7.839  15.739  22.976  0.00  0.00    +0.000 A 
ATOM     15  C   UNL     1      -7.076  15.116  23.930  0.00  0.00    +0.000 A 
ATOM     16  N   UNL     1      -6.089  14.243  23.645  0.00  0.00    +0.000 NA
ATOM     17  C   UNL     1      -3.997  12.481  23.059  0.00  0.00    +0.000 C 
ATOM     18  C   UNL     1      -2.524  12.824  22.746  0.00  0.00    +0.000 C 
ATOM     19  N   UNL     1      -0.613  10.952  22.028  0.00  0.00    +0.000 NA
ATOM     20  C   UNL     1       0.289  10.015  21.700  0.00  0.00    +0.000 A 
ATOM     21  C   UNL     1       0.553   9.624  20.410  0.00  0.00    +0.000 A 
ATOM     22  C   UNL     1       1.598   8.603  20.112  0.00  0.00    +0.000 C 
ENDROOT
BRANCH   1  23
ATOM     23  C   UNL     1       3.118   7.653  18.475  0.00  0.00    +0.000 C 
BRANCH  23  28
ATOM     24  C   UNL     1       2.110   3.993  18.075  0.00  0.00    +0.000 A 
ATOM     25  C   UNL     1       3.175   3.467  17.344  0.00  0.00    +0.000 A 
ATOM     26  C   UNL     1       4.225   4.294  16.941  0.00  0.00    +0.000 A 
ATOM     27  C   UNL     1       4.246   5.650  17.283  0.00  0.00    +0.000 A 
ATOM     28  C   UNL     1       3.163   6.204  17.998  0.00  0.00    +0.000 A 
ATOM     29  C   UNL     1       2.100   5.354  18.375  0.00  0.00    +0.000 A 
BRANCH  24  31
ATOM     30  C   UNL     1       1.619   1.745  18.656  0.00  0.00    +0.000 C 
ATOM     31  O   UNL     1       1.167   3.074  18.444  0.00  0.00    +0.000 OA
ENDBRANCH  24  31
BRANCH  27  32
ATOM     32  O   UNL     1       5.284   6.486  16.955  0.00  0.00    +0.000 OA
ATOM     33  C   UNL     1       6.535   6.227  17.594  0.00  0.00    +0.000 C 
ENDBRANCH  27  32
ENDBRANCH  23  28
ENDBRANCH   1  23
TORSDOF 4
ENDMDL
MODEL 7
REMARK VINA RESULT:      -8.1      1.728      2.548
REMARK  Name = 
REMARK  6 active torsions:
REMARK  status: ('A' for Active; 'I' for Inactive)
REMARK    1  A    between atoms: C_1  and  O_2
REMARK    2  A    between atoms: O_2  and  C_3
REMARK    3  A    between atoms: C_6  and  O_7
REMARK    4  A    between atoms: O_7  and  C_8
REMARK    5  A    between atoms: C_9  and  C_10
REMARK    6  A    between atoms: C_10  and  N_11
REMARK                            x       y       z     vdW  Elec       q    Type
REMARK                         _______ _______ _______ _____ _____    ______ ____
ROOT
ATOM      1  N   UNL     1       2.542   7.466  18.743  0.00  0.00    +0.000 NA
ATOM      2  C   UNL     1       1.882   7.018  19.970  0.00  0.00    +0.000 C 
ATOM      3  C   UNL     1       1.523   8.174  20.921  0.00  0.00    +0.000 C 
ATOM      4  C   UNL     1       0.813   9.284  20.201  0.00  0.00    +0.000 A 
ATOM      5  N   UNL     1       0.018  10.105  20.926  0.00  0.00    +0.000 NA
ATOM      6  C   UNL     1      -0.634  11.095  20.287  0.00  0.00    +0.000 A 
ATOM      7  N   UNL     1      -1.494  11.897  20.991  0.00  0.00    +0.000 N 
ATOM      8  C   UNL     1      -1.529  11.855  22.454  0.00  0.00    +0.000 C 
ATOM      9  C   UNL     1      -1.016  13.177  23.063  0.00  0.00    +0.000 C 
ATOM     10  N   UNL     1      -1.672  14.331  22.443  0.00  0.00    +0.000 N 
ATOM     11  C   UNL     1      -2.455  15.185  23.169  0.00  0.00    +0.000 A 
ATOM     12  N   UNL     1      -2.569  14.993  24.496  0.00  0.00    +0.000 NA
ATOM     13  C   UNL     1      -3.300  15.873  25.203  0.00  0.00    +0.000 A 
ATOM     14  C   UNL     1      -3.937  16.952  24.647  0.00  0.00    +0.000 A 
ATOM     15  C   UNL     1      -3.784  17.068  23.289  0.00  0.00    +0.000 A 
ATOM     16  N   UNL     1      -3.063  16.207  22.543  0.00  0.00    +0.000 NA
ATOM     17  C   UNL     1      -1.625  14.387  20.979  0.00  0.00    +0.000 C 
ATOM     18  C   UNL     1      -2.124  13.062  20.359  0.00  0.00    +0.000 C 
ATOM     19  N   UNL     1      -0.510  11.296  18.964  0.00  0.00    +0.000 NA
ATOM     20  C   UNL     1       0.299  10.473  18.280  0.00  0.00    +0.000 A 
ATOM     21  C   UNL     1       1.005   9.444  18.851  0.00  0.00    +0.000 A 
ATOM     22  C   UNL     1       1.856   8.541  18.024  0.00  0.00    +0.000 C 
ENDROOT
BRANCH   1  23
ATOM     23  C   UNL     1       2.957   6.386  17.826  0.00  0.00    +0.000 C 
BRANCH  23  28
ATOM     24  C   UNL     1       6.538   5.707  16.690  0.00  0.00    +0.000 A 
ATOM     25  C   UNL     1       7.041   4.931  17.733  0.00  0.00    +0.000 A 
ATOM     26  C   UNL     1       6.240   4.636  18.838  0.00  0.00    +0.000 A 
ATOM     27  C   UNL     1       4.918   5.088  18.909  0.00  0.00    +0.000 A 
ATOM     28  C   UNL     1       4.402   5.898  17.876  0.00  0.00    +0.000 A 
ATOM     29  C   UNL     1       5.238   6.203  16.779  0.00  0.00    +0.000 A 
BRANCH  24  31
ATOM     30  C   UNL     1       7.168   5.119  14.480  0.00  0.00    +0.000 C 
ATOM     31  O   UNL     1       7.405   5.889  15.649  0.00  0.00    +0.000 OA
ENDBRANCH  24  31
BRANCH  27  32
ATOM     32  O   UNL     1       4.078   4.776  19.951  0.00  0.00    +0.000 OA
ATOM     33  C   UNL     1       3.548   3.449  19.965  0.00  0.00    +0.000 C 
ENDBRANCH  27  32
ENDBRANCH  23  28
ENDBRANCH   1  23
TORSDOF 4
ENDMDL
MODEL 8
REMARK VINA RESULT:      -8.0      2.594      4.118
REMARK  Name = 
REMARK  6 active torsions:
REMARK  status: ('A' for Active; 'I' for Inactive)
REMARK    1  A    between atoms: C_1  and  O_2
REMARK    2  A    between atoms: O_2  and  C_3
REMARK    3  A    between atoms: C_6  and  O_7
REMARK    4  A    between atoms: O_7  and  C_8
REMARK    5  A    between atoms: C_9  and  C_10
REMARK    6  A    between atoms: C_10  and  N_11
REMARK                            x       y       z     vdW  Elec       q    Type
REMARK                         _______ _______ _______ _____ _____    ______ ____
ROOT
ATOM      1  N   UNL     1       1.926   7.487  19.717  0.00  0.00    +0.000 NA
ATOM      2  C   UNL     1       1.990   8.649  18.829  0.00  0.00    +0.000 C 
ATOM      3  C   UNL     1       0.704   9.494  18.845  0.00  0.00    +0.000 C 
ATOM      4  C   UNL     1       0.263   9.805  20.247  0.00  0.00    +0.000 A 
ATOM      5  N   UNL     1      -0.512  10.897  20.441  0.00  0.00    +0.000 NA
ATOM      6  C   UNL     1      -0.901  11.193  21.696  0.00  0.00    +0.000 A 
ATOM      7  N   UNL     1      -1.633  12.329  21.924  0.00  0.00    +0.000 N 
ATOM      8  C   UNL     1      -2.201  13.090  20.809  0.00  0.00    +0.000 C 
ATOM      9  C   UNL     1      -3.742  13.020  20.814  0.00  0.00    +0.000 C 
ATOM     10  N   UNL     1      -4.279  13.336  22.140  0.00  0.00    +0.000 N 
ATOM     11  C   UNL     1      -5.086  14.420  22.346  0.00  0.00    +0.000 A 
ATOM     12  N   UNL     1      -5.446  15.172  21.290  0.00  0.00    +0.000 NA
ATOM     13  C   UNL     1      -6.283  16.203  21.502  0.00  0.00    +0.000 A 
ATOM     14  C   UNL     1      -6.787  16.531  22.734  0.00  0.00    +0.000 A 
ATOM     15  C   UNL     1      -6.362  15.725  23.758  0.00  0.00    +0.000 A 
ATOM     16  N   UNL     1      -5.521  14.685  23.590  0.00  0.00    +0.000 NA
ATOM     17  C   UNL     1      -3.726  12.566  23.257  0.00  0.00    +0.000 C 
ATOM     18  C   UNL     1      -2.181  12.618  23.254  0.00  0.00    +0.000 C 
ATOM     19  N   UNL     1      -0.555  10.434  22.750  0.00  0.00    +0.000 NA
ATOM     20  C   UNL     1       0.201   9.349  22.518  0.00  0.00    +0.000 A 
ATOM     21  C   UNL     1       0.637   8.972  21.272  0.00  0.00    +0.000 A 
ATOM     22  C   UNL     1       1.508   7.776  21.089  0.00  0.00    +0.000 C 
ENDROOT
BRANCH   1  23
ATOM     23  C   UNL     1       3.116   6.614  19.690  0.00  0.00    +0.000 C 
BRANCH  23  28
ATOM     24  C   UNL     1       4.032   4.277  16.814  0.00  0.00    +0.000 A 
ATOM     25  C   UNL     1       3.094   3.255  16.948  0.00  0.00    +0.000 A 
ATOM     26  C   UNL     1       2.166   3.286  17.991  0.00  0.00    +0.000 A 
ATOM     27  C   UNL     1       2.139   4.350  18.899  0.00  0.00    +0.000 A 
ATOM     28  C   UNL     1       3.098   5.379  18.793  0.00  0.00    +0.000 A 
ATOM     29  C   UNL     1       4.043   5.314  17.745  0.00  0.00    +0.000 A 
BRANCH  24  31
ATOM     30  C   UNL     1       5.544   5.323  15.313  0.00  0.00    +0.000 C 
ATOM     31  O   UNL     1       4.857   4.152  15.730  0.00  0.00    +0.000 OA
ENDBRANCH  24  31
BRANCH  27  32
ATOM     32  O   UNL     1       1.210   4.449  19.905  0.00  0.00    +0.000 OA
ATOM     33  C   UNL     1       1.208   3.401  20.875  0.00  0.00    +0.000 C 
ENDBRANCH  27  32
ENDBRANCH  23  28
ENDBRANCH   1  23
TORSDOF 4
ENDMDL
MODEL 9
REMARK VINA RESULT:      -8.0      1.185      1.390
REMARK  Name = 
REMARK  6 active torsions:
REMARK  status: ('A' for Active; 'I' for Inactive)
REMARK    1  A    between atoms: C_1  and  O_2
REMARK    2  A    between atoms: O_2  and  C_3
REMARK    3  A    between atoms: C_6  and  O_7
REMARK    4  A    between atoms: O_7  and  C_8
REMARK    5  A    between atoms: C_9  and  C_10
REMARK    6  A    between atoms: C_10  and  N_11
REMARK                            x       y       z     vdW  Elec       q    Type
REMARK                         _______ _______ _______ _____ _____    ______ ____
ROOT
ATOM      1  N   UNL     1       4.083   4.921  18.250  0.00  0.00    +0.000 NA
ATOM      2  C   UNL     1       2.995   4.527  19.146  0.00  0.00    +0.000 C 
ATOM      3  C   UNL     1       2.561   5.653  20.102  0.00  0.00    +0.000 C 
ATOM      4  C   UNL     1       2.329   6.943  19.369  0.00  0.00    +0.000 A 
ATOM      5  N   UNL     1       1.502   7.854  19.933  0.00  0.00    +0.000 NA
ATOM      6  C   UNL     1       1.276   9.008  19.277  0.00  0.00    +0.000 A 
ATOM      7  N   UNL     1       0.393   9.917  19.799  0.00  0.00    +0.000 N 
ATOM      8  C   UNL     1      -0.118   9.766  21.163  0.00  0.00    +0.000 C 
ATOM      9  C   UNL     1       0.398  10.895  22.080  0.00  0.00    +0.000 C 
ATOM     10  N   UNL     1       0.192  12.208  21.464  0.00  0.00    +0.000 N 
ATOM     11  C   UNL     1      -0.618  13.149  22.037  0.00  0.00    +0.000 A 
ATOM     12  N   UNL     1      -1.184  12.880  23.228  0.00  0.00    +0.000 NA
ATOM     13  C   UNL     1      -1.935  13.836  23.803  0.00  0.00    +0.000 A 
ATOM     14  C   UNL     1      -2.158  15.067  23.242  0.00  0.00    +0.000 A 
ATOM     15  C   UNL     1      -1.558  15.256  22.024  0.00  0.00    +0.000 A 
ATOM     16  N   UNL     1      -0.801  14.324  21.411  0.00  0.00    +0.000 NA
ATOM     17  C   UNL     1       0.716  12.370  20.105  0.00  0.00    +0.000 C 
ATOM     18  C   UNL     1       0.216  11.236  19.182  0.00  0.00    +0.000 C 
ATOM     19  N   UNL     1       1.853   9.284  18.095  0.00  0.00    +0.000 NA
ATOM     20  C   UNL     1       2.679   8.365  17.573  0.00  0.00    +0.000 A 
ATOM     21  C   UNL     1       2.969   7.166  18.175  0.00  0.00    +0.000 A 
ATOM     22  C   UNL     1       3.867   6.171  17.521  0.00  0.00    +0.000 C 
ENDROOT
BRANCH   1  23
ATOM     23  C   UNL     1       4.573   3.854  17.354  0.00  0.00    +0.000 C 
BRANCH  23  28
ATOM     24  C   UNL     1       6.146   4.032  13.880  0.00  0.00    +0.000 A 
ATOM     25  C   UNL     1       7.361   4.667  14.134  0.00  0.00    +0.000 A 
ATOM     26  C   UNL     1       7.681   5.077  15.430  0.00  0.00    +0.000 A 
ATOM     27  C   UNL     1       6.810   4.836  16.497  0.00  0.00    +0.000 A 
ATOM     28  C   UNL     1       5.565   4.220  16.254  0.00  0.00    +0.000 A 
ATOM     29  C   UNL     1       5.251   3.835  14.931  0.00  0.00    +0.000 A 
BRANCH  24  31
ATOM     30  C   UNL     1       4.634   3.394  12.167  0.00  0.00    +0.000 C 
ATOM     31  O   UNL     1       5.969   3.643  12.582  0.00  0.00    +0.000 OA
ENDBRANCH  24  31
BRANCH  27  32
ATOM     32  O   UNL     1       7.108   5.173  17.795  0.00  0.00    +0.000 OA
ATOM     33  C   UNL     1       7.557   6.511  18.018  0.00  0.00    +0.000 C 
ENDBRANCH  27  32
ENDBRANCH  23  28
ENDBRANCH   1  23
TORSDOF 4
ENDMDL
