MODEL 1
REMARK VINA RESULT:      -8.0      0.000      0.000
REMARK  Name = 
REMARK  5 active torsions:
REMARK  status: ('A' for Active; 'I' for Inactive)
REMARK    1  A    between atoms: O_1  and  C_2
REMARK    2  A    between atoms: C_2  and  C_3
REMARK    3  A    between atoms: C_3  and  N_4
REMARK    4  A    between atoms: N_4  and  N_5
REMARK    5  A    between atoms: C_6  and  C_7
REMARK                            x       y       z     vdW  Elec       q    Type
REMARK                         _______ _______ _______ _____ _____    ______ ____
ROOT
ATOM      1  N   UNL     1       5.689   3.927  18.693  0.00  0.00    +0.000 NA
ATOM      2  C   UNL     1       4.480   4.316  19.027  0.00  0.00    +0.000 C 
ENDROOT
BRANCH   2   3
ATOM      3  C   UNL     1       3.711   5.606  18.780  0.00  0.00    +0.000 A 
ATOM      4  C   UNL     1       3.802   6.424  17.636  0.00  0.00    +0.000 A 
ATOM      5  C   UNL     1       3.088   7.616  17.522  0.00  0.00    +0.000 A 
ATOM      6  C   UNL     1       2.295   8.075  18.570  0.00  0.00    +0.000 A 
ATOM      7  C   UNL     1       1.656   9.316  18.476  0.00  0.00    +0.000 A 
ATOM      8  C   UNL     1       0.907   9.802  19.547  0.00  0.00    +0.000 A 
ATOM      9  C   UNL     1       0.765   9.035  20.707  0.00  0.00    +0.000 A 
ATOM     10  C   UNL     1       1.385   7.779  20.798  0.00  0.00    +0.000 A 
ATOM     11  C   UNL     1       2.169   7.289  19.734  0.00  0.00    +0.000 A 
ATOM     12  C   UNL     1       2.854   6.057  19.822  0.00  0.00    +0.000 A 
ENDBRANCH   2   3
BRANCH   1  13
ATOM     13  N   UNL     1       6.637   4.552  17.890  0.00  0.00    +0.000 N 
ATOM     14  C   UNL     1       6.596   4.490  16.468  0.00  0.00    +0.000 C 
ATOM     15  N   UNL     1       7.316   5.254  15.737  0.00  0.00    +0.000 NA
ATOM     16  C   UNL     1       7.019   5.029  14.349  0.00  0.00    +0.000 C 
ATOM     17  C   UNL     1       6.158   3.754  14.355  0.00  0.00    +0.000 C 
ATOM     18  N   UNL     1       5.799   3.603  15.731  0.00  0.00    +0.000 N 
ATOM     19  H   UNL     1       5.217   2.851  16.125  0.00  0.00    +0.000 HD
BRANCH  13  20
ATOM     20  C   UNL     1       7.904   5.032  18.443  0.00  0.00    +0.000 C 
BRANCH  20  21
ATOM     21  C   UNL     1       7.804   5.982  19.632  0.00  0.00    +0.000 C 
BRANCH  21  22
ATOM     22  O   UNL     1       8.249   5.289  20.771  0.00  0.00    +0.000 OA
ATOM     23  H   UNL     1       9.233   5.405  20.814  0.00  0.00    +0.000 HD
ENDBRANCH  21  22
ENDBRANCH  20  21
ENDBRANCH  13  20
ENDBRANCH   1  13
TORSDOF 5
ENDMDL
MODEL 2
REMARK VINA RESULT:      -7.3      2.163      3.214
REMARK  Name = 
REMARK  5 active torsions:
REMARK  status: ('A' for Active; 'I' for Inactive)
REMARK    1  A    between atoms: O_1  and  C_2
REMARK    2  A    between atoms: C_2  and  C_3
REMARK    3  A    between atoms: C_3  and  N_4
REMARK    4  A    between atoms: N_4  and  N_5
REMARK    5  A    between atoms: C_6  and  C_7
REMARK                            x       y       z     vdW  Elec       q    Type
REMARK                         _______ _______ _______ _____ _____    ______ ____
ROOT
ATOM      1  N   UNL     1       3.551   3.989  19.888  0.00  0.00    +0.000 NA
ATOM      2  C   UNL     1       2.745   4.937  20.308  0.00  0.00    +0.000 C 
ENDROOT
BRANCH   2   3
ATOM      3  C   UNL     1       2.353   6.285  19.721  0.00  0.00    +0.000 A 
ATOM      4  C   UNL     1       2.604   6.727  18.407  0.00  0.00    +0.000 A 
ATOM      5  C   UNL     1       2.244   8.003  17.975  0.00  0.00    +0.000 A 
ATOM      6  C   UNL     1       1.670   8.917  18.854  0.00  0.00    +0.000 A 
ATOM      7  C   UNL     1       1.397  10.223  18.431  0.00  0.00    +0.000 A 
ATOM      8  C   UNL     1       0.875  11.156  19.326  0.00  0.00    +0.000 A 
ATOM      9  C   UNL     1       0.590  10.780  20.641  0.00  0.00    +0.000 A 
ATOM     10  C   UNL     1       0.840   9.465  21.066  0.00  0.00    +0.000 A 
ATOM     11  C   UNL     1       1.397   8.521  20.179  0.00  0.00    +0.000 A 
ATOM     12  C   UNL     1       1.715   7.209  20.596  0.00  0.00    +0.000 A 
ENDBRANCH   2   3
BRANCH   1  13
ATOM     13  N   UNL     1       4.238   3.870  18.685  0.00  0.00    +0.000 N 
ATOM     14  C   UNL     1       5.555   4.379  18.501  0.00  0.00    +0.000 C 
ATOM     15  N   UNL     1       6.267   4.062  17.487  0.00  0.00    +0.000 NA
ATOM     16  C   UNL     1       7.571   4.656  17.596  0.00  0.00    +0.000 C 
ATOM     17  C   UNL     1       7.430   5.650  18.762  0.00  0.00    +0.000 C 
ATOM     18  N   UNL     1       6.195   5.269  19.375  0.00  0.00    +0.000 N 
ATOM     19  H   UNL     1       5.766   5.714  20.198  0.00  0.00    +0.000 HD
BRANCH  13  20
ATOM     20  C   UNL     1       3.544   3.515  17.446  0.00  0.00    +0.000 C 
BRANCH  20  21
ATOM     21  C   UNL     1       2.577   2.338  17.529  0.00  0.00    +0.000 C 
BRANCH  21  22
ATOM     22  O   UNL     1       3.128   1.396  18.417  0.00  0.00    +0.000 OA
ATOM     23  H   UNL     1       2.368   0.942  18.864  0.00  0.00    +0.000 HD
ENDBRANCH  21  22
ENDBRANCH  20  21
ENDBRANCH  13  20
ENDBRANCH   1  13
TORSDOF 5
ENDMDL
MODEL 3
REMARK VINA RESULT:      -7.2      2.340      4.372
REMARK  Name = 
REMARK  5 active torsions:
REMARK  status: ('A' for Active; 'I' for Inactive)
REMARK    1  A    between atoms: O_1  and  C_2
REMARK    2  A    between atoms: C_2  and  C_3
REMARK    3  A    between atoms: C_3  and  N_4
REMARK    4  A    between atoms: N_4  and  N_5
REMARK    5  A    between atoms: C_6  and  C_7
REMARK                            x       y       z     vdW  Elec       q    Type
REMARK                         _______ _______ _______ _____ _____    ______ ____
ROOT
ATOM      1  N   UNL     1       5.569   6.426  15.843  0.00  0.00    +0.000 NA
ATOM      2  C   UNL     1       4.417   6.826  16.331  0.00  0.00    +0.000 C 
ENDROOT
BRANCH   2   3
ATOM      3  C   UNL     1       3.554   6.313  17.475  0.00  0.00    +0.000 A 
ATOM      4  C   UNL     1       3.098   7.064  18.577  0.00  0.00    +0.000 A 
ATOM      5  C   UNL     1       2.346   6.491  19.601  0.00  0.00    +0.000 A 
ATOM      6  C   UNL     1       2.064   5.128  19.602  0.00  0.00    +0.000 A 
ATOM      7  C   UNL     1       1.387   4.551  20.681  0.00  0.00    +0.000 A 
ATOM      8  C   UNL     1       1.153   3.176  20.709  0.00  0.00    +0.000 A 
ATOM      9  C   UNL     1       1.566   2.375  19.642  0.00  0.00    +0.000 A 
ATOM     10  C   UNL     1       2.227   2.951  18.545  0.00  0.00    +0.000 A 
ATOM     11  C   UNL     1       2.496   4.335  18.519  0.00  0.00    +0.000 A 
ATOM     12  C   UNL     1       3.212   4.932  17.457  0.00  0.00    +0.000 A 
ENDBRANCH   2   3
BRANCH   1  13
ATOM     13  N   UNL     1       6.441   5.445  16.304  0.00  0.00    +0.000 N 
ATOM     14  C   UNL     1       7.184   5.587  17.510  0.00  0.00    +0.000 C 
ATOM     15  N   UNL     1       7.791   4.598  18.050  0.00  0.00    +0.000 NA
ATOM     16  C   UNL     1       8.393   5.008  19.289  0.00  0.00    +0.000 C 
ATOM     17  C   UNL     1       8.272   6.541  19.272  0.00  0.00    +0.000 C 
ATOM     18  N   UNL     1       7.342   6.789  18.213  0.00  0.00    +0.000 N 
ATOM     19  H   UNL     1       7.011   7.713  17.903  0.00  0.00    +0.000 HD
BRANCH  13  20
ATOM     20  C   UNL     1       6.897   4.363  15.430  0.00  0.00    +0.000 C 
BRANCH  20  21
ATOM     21  C   UNL     1       6.975   4.687  13.941  0.00  0.00    +0.000 C 
BRANCH  21  22
ATOM     22  O   UNL     1       7.998   5.635  13.763  0.00  0.00    +0.000 OA
ATOM     23  H   UNL     1       8.525   5.346  12.974  0.00  0.00    +0.000 HD
ENDBRANCH  21  22
ENDBRANCH  20  21
ENDBRANCH  13  20
ENDBRANCH   1  13
TORSDOF 5
ENDMDL
MODEL 4
REMARK VINA RESULT:      -7.2      1.782      3.249
REMARK  Name = 
REMARK  5 active torsions:
REMARK  status: ('A' for Active; 'I' for Inactive)
REMARK    1  A    between atoms: O_1  and  C_2
REMARK    2  A    between atoms: C_2  and  C_3
REMARK    3  A    between atoms: C_3  and  N_4
REMARK    4  A    between atoms: N_4  and  N_5
REMARK    5  A    between atoms: C_6  and  C_7
REMARK                            x       y       z     vdW  Elec       q    Type
REMARK                         _______ _______ _______ _____ _____    ______ ____
ROOT
ATOM      1  N   UNL     1       4.455   3.449  17.063  0.00  0.00    +0.000 NA
ATOM      2  C   UNL     1       3.368   3.633  17.778  0.00  0.00    +0.000 C 
ENDROOT
BRANCH   2   3
ATOM      3  C   UNL     1       2.873   4.807  18.608  0.00  0.00    +0.000 A 
ATOM      4  C   UNL     1       2.447   4.759  19.951  0.00  0.00    +0.000 A 
ATOM      5  C   UNL     1       1.965   5.886  20.614  0.00  0.00    +0.000 A 
ATOM      6  C   UNL     1       1.832   7.102  19.950  0.00  0.00    +0.000 A 
ATOM      7  C   UNL     1       1.263   8.201  20.602  0.00  0.00    +0.000 A 
ATOM      8  C   UNL     1       1.077   9.403  19.920  0.00  0.00    +0.000 A 
ATOM      9  C   UNL     1       1.489   9.524  18.591  0.00  0.00    +0.000 A 
ATOM     10  C   UNL     1       2.082   8.432  17.937  0.00  0.00    +0.000 A 
ATOM     11  C   UNL     1       2.248   7.202  18.606  0.00  0.00    +0.000 A 
ATOM     12  C   UNL     1       2.784   6.069  17.955  0.00  0.00    +0.000 A 
ENDBRANCH   2   3
BRANCH   1  13
ATOM     13  N   UNL     1       5.474   4.341  16.744  0.00  0.00    +0.000 N 
ATOM     14  C   UNL     1       6.367   4.864  17.721  0.00  0.00    +0.000 C 
ATOM     15  N   UNL     1       7.438   5.484  17.395  0.00  0.00    +0.000 NA
ATOM     16  C   UNL     1       8.182   5.833  18.574  0.00  0.00    +0.000 C 
ATOM     17  C   UNL     1       7.207   5.546  19.728  0.00  0.00    +0.000 C 
ATOM     18  N   UNL     1       6.176   4.774  19.106  0.00  0.00    +0.000 N 
ATOM     19  H   UNL     1       5.340   4.395  19.573  0.00  0.00    +0.000 HD
BRANCH  13  20
ATOM     20  C   UNL     1       5.491   5.047  15.462  0.00  0.00    +0.000 C 
BRANCH  20  21
ATOM     21  C   UNL     1       6.432   4.489  14.399  0.00  0.00    +0.000 C 
BRANCH  21  22
ATOM     22  O   UNL     1       7.598   5.276  14.405  0.00  0.00    +0.000 OA
ATOM     23  H   UNL     1       7.630   5.750  13.534  0.00  0.00    +0.000 HD
ENDBRANCH  21  22
ENDBRANCH  20  21
ENDBRANCH  13  20
ENDBRANCH   1  13
TORSDOF 5
ENDMDL
MODEL 5
REMARK VINA RESULT:      -7.2      2.265      3.727
REMARK  Name = 
REMARK  5 active torsions:
REMARK  status: ('A' for Active; 'I' for Inactive)
REMARK    1  A    between atoms: O_1  and  C_2
REMARK    2  A    between atoms: C_2  and  C_3
REMARK    3  A    between atoms: C_3  and  N_4
REMARK    4  A    between atoms: N_4  and  N_5
REMARK    5  A    between atoms: C_6  and  C_7
REMARK                            x       y       z     vdW  Elec       q    Type
REMARK                         _______ _______ _______ _____ _____    ______ ____
ROOT
ATOM      1  N   UNL     1       4.951   7.596  17.007  0.00  0.00    +0.000 NA
ATOM      2  C   UNL     1       3.778   7.643  17.598  0.00  0.00    +0.000 C 
ENDROOT
BRANCH   2   3
ATOM      3  C   UNL     1       3.001   6.625  18.419  0.00  0.00    +0.000 A 
ATOM      4  C   UNL     1       2.555   6.789  19.745  0.00  0.00    +0.000 A 
ATOM      5  C   UNL     1       1.887   5.776  20.431  0.00  0.00    +0.000 A 
ATOM      6  C   UNL     1       1.685   4.530  19.843  0.00  0.00    +0.000 A 
ATOM      7  C   UNL     1       1.094   3.495  20.575  0.00  0.00    +0.000 A 
ATOM      8  C   UNL     1       0.944   2.230  20.006  0.00  0.00    +0.000 A 
ATOM      9  C   UNL     1       1.353   2.002  18.690  0.00  0.00    +0.000 A 
ATOM     10  C   UNL     1       1.926   3.043  17.942  0.00  0.00    +0.000 A 
ATOM     11  C   UNL     1       2.112   4.318  18.515  0.00  0.00    +0.000 A 
ATOM     12  C   UNL     1       2.741   5.366  17.808  0.00  0.00    +0.000 A 
ENDBRANCH   2   3
BRANCH   1  13
ATOM     13  N   UNL     1       5.926   6.606  17.039  0.00  0.00    +0.000 N 
ATOM     14  C   UNL     1       6.068   5.637  16.005  0.00  0.00    +0.000 C 
ATOM     15  N   UNL     1       7.102   4.889  15.917  0.00  0.00    +0.000 NA
ATOM     16  C   UNL     1       7.015   4.064  14.743  0.00  0.00    +0.000 C 
ATOM     17  C   UNL     1       5.566   4.255  14.263  0.00  0.00    +0.000 C 
ATOM     18  N   UNL     1       5.117   5.392  15.005  0.00  0.00    +0.000 N 
ATOM     19  H   UNL     1       4.183   5.821  14.948  0.00  0.00    +0.000 HD
BRANCH  13  20
ATOM     20  C   UNL     1       6.648   6.290  18.272  0.00  0.00    +0.000 C 
BRANCH  20  21
ATOM     21  C   UNL     1       5.996   5.261  19.190  0.00  0.00    +0.000 C 
BRANCH  21  22
ATOM     22  O   UNL     1       6.382   3.985  18.743  0.00  0.00    +0.000 OA
ATOM     23  H   UNL     1       5.816   3.327  19.224  0.00  0.00    +0.000 HD
ENDBRANCH  21  22
ENDBRANCH  20  21
ENDBRANCH  13  20
ENDBRANCH   1  13
TORSDOF 5
ENDMDL
MODEL 6
REMARK VINA RESULT:      -7.1      2.310      3.430
REMARK  Name = 
REMARK  5 active torsions:
REMARK  status: ('A' for Active; 'I' for Inactive)
REMARK    1  A    between atoms: O_1  and  C_2
REMARK    2  A    between atoms: C_2  and  C_3
REMARK    3  A    between atoms: C_3  and  N_4
REMARK    4  A    between atoms: N_4  and  N_5
REMARK    5  A    between atoms: C_6  and  C_7
REMARK                            x       y       z     vdW  Elec       q    Type
REMARK                         _______ _______ _______ _____ _____    ______ ____
ROOT
ATOM      1  N   UNL     1       3.636   4.281  17.832  0.00  0.00    +0.000 NA
ATOM      2  C   UNL     1       2.696   5.195  17.746  0.00  0.00    +0.000 C 
ENDROOT
BRANCH   2   3
ATOM      3  C   UNL     1       2.305   6.353  18.652  0.00  0.00    +0.000 A 
ATOM      4  C   UNL     1       2.007   6.272  20.027  0.00  0.00    +0.000 A 
ATOM      5  C   UNL     1       1.613   7.387  20.765  0.00  0.00    +0.000 A 
ATOM      6  C   UNL     1       1.441   8.624  20.150  0.00  0.00    +0.000 A 
ATOM      7  C   UNL     1       0.959   9.713  20.884  0.00  0.00    +0.000 A 
ATOM      8  C   UNL     1       0.732  10.938  20.257  0.00  0.00    +0.000 A 
ATOM      9  C   UNL     1       1.019  11.091  18.898  0.00  0.00    +0.000 A 
ATOM     10  C   UNL     1       1.525  10.009  18.160  0.00  0.00    +0.000 A 
ATOM     11  C   UNL     1       1.729   8.757  18.776  0.00  0.00    +0.000 A 
ATOM     12  C   UNL     1       2.179   7.634  18.046  0.00  0.00    +0.000 A 
ENDBRANCH   2   3
BRANCH   1  13
ATOM     13  N   UNL     1       4.668   4.148  18.754  0.00  0.00    +0.000 N 
ATOM     14  C   UNL     1       5.854   4.934  18.693  0.00  0.00    +0.000 C 
ATOM     15  N   UNL     1       6.684   4.981  19.666  0.00  0.00    +0.000 NA
ATOM     16  C   UNL     1       7.744   5.904  19.364  0.00  0.00    +0.000 C 
ATOM     17  C   UNL     1       7.551   6.215  17.870  0.00  0.00    +0.000 C 
ATOM     18  N   UNL     1       6.242   5.709  17.592  0.00  0.00    +0.000 N 
ATOM     19  H   UNL     1       5.764   5.739  16.681  0.00  0.00    +0.000 HD
BRANCH  13  20
ATOM     20  C   UNL     1       4.753   2.985  19.638  0.00  0.00    +0.000 C 
BRANCH  20  21
ATOM     21  C   UNL     1       3.676   1.921  19.455  0.00  0.00    +0.000 C 
BRANCH  21  22
ATOM     22  O   UNL     1       4.012   1.164  18.318  0.00  0.00    +0.000 OA
ATOM     23  H   UNL     1       3.339   0.440  18.244  0.00  0.00    +0.000 HD
ENDBRANCH  21  22
ENDBRANCH  20  21
ENDBRANCH  13  20
ENDBRANCH   1  13
TORSDOF 5
ENDMDL
MODEL 7
REMARK VINA RESULT:      -7.1      2.755      4.570
REMARK  Name = 
REMARK  5 active torsions:
REMARK  status: ('A' for Active; 'I' for Inactive)
REMARK    1  A    between atoms: O_1  and  C_2
REMARK    2  A    between atoms: C_2  and  C_3
REMARK    3  A    between atoms: C_3  and  N_4
REMARK    4  A    between atoms: N_4  and  N_5
REMARK    5  A    between atoms: C_6  and  C_7
REMARK                            x       y       z     vdW  Elec       q    Type
REMARK                         _______ _______ _______ _____ _____    ______ ____
ROOT
ATOM      1  N   UNL     1       5.528   6.920  16.248  0.00  0.00    +0.000 NA
ATOM      2  C   UNL     1       4.238   6.820  16.479  0.00  0.00    +0.000 C 
ENDROOT
BRANCH   2   3
ATOM      3  C   UNL     1       3.446   6.242  17.642  0.00  0.00    +0.000 A 
ATOM      4  C   UNL     1       3.070   6.925  18.815  0.00  0.00    +0.000 A 
ATOM      5  C   UNL     1       2.380   6.293  19.849  0.00  0.00    +0.000 A 
ATOM      6  C   UNL     1       2.085   4.934  19.783  0.00  0.00    +0.000 A 
ATOM      7  C   UNL     1       1.473   4.294  20.866  0.00  0.00    +0.000 A 
ATOM      8  C   UNL     1       1.229   2.921  20.823  0.00  0.00    +0.000 A 
ATOM      9  C   UNL     1       1.565   2.186  19.684  0.00  0.00    +0.000 A 
ATOM     10  C   UNL     1       2.159   2.826  18.584  0.00  0.00    +0.000 A 
ATOM     11  C   UNL     1       2.439   4.208  18.627  0.00  0.00    +0.000 A 
ATOM     12  C   UNL     1       3.091   4.866  17.561  0.00  0.00    +0.000 A 
ENDBRANCH   2   3
BRANCH   1  13
ATOM     13  N   UNL     1       6.607   6.616  17.070  0.00  0.00    +0.000 N 
ATOM     14  C   UNL     1       7.417   7.619  17.672  0.00  0.00    +0.000 C 
ATOM     15  N   UNL     1       8.247   7.347  18.608  0.00  0.00    +0.000 NA
ATOM     16  C   UNL     1       8.871   8.553  19.078  0.00  0.00    +0.000 C 
ATOM     17  C   UNL     1       8.462   9.612  18.040  0.00  0.00    +0.000 C 
ATOM     18  N   UNL     1       7.409   8.973  17.312  0.00  0.00    +0.000 N 
ATOM     19  H   UNL     1       6.883   9.382  16.527  0.00  0.00    +0.000 HD
BRANCH  13  20
ATOM     20  C   UNL     1       7.178   5.268  17.108  0.00  0.00    +0.000 C 
BRANCH  20  21
ATOM     21  C   UNL     1       7.089   4.463  15.815  0.00  0.00    +0.000 C 
BRANCH  21  22
ATOM     22  O   UNL     1       7.621   5.254  14.782  0.00  0.00    +0.000 OA
ATOM     23  H   UNL     1       8.415   4.773  14.430  0.00  0.00    +0.000 HD
ENDBRANCH  21  22
ENDBRANCH  20  21
ENDBRANCH  13  20
ENDBRANCH   1  13
TORSDOF 5
ENDMDL
MODEL 8
REMARK VINA RESULT:      -7.1      1.930      2.595
REMARK  Name = 
REMARK  5 active torsions:
REMARK  status: ('A' for Active; 'I' for Inactive)
REMARK    1  A    between atoms: O_1  and  C_2
REMARK    2  A    between atoms: C_2  and  C_3
REMARK    3  A    between atoms: C_3  and  N_4
REMARK    4  A    between atoms: N_4  and  N_5
REMARK    5  A    between atoms: C_6  and  C_7
REMARK                            x       y       z     vdW  Elec       q    Type
REMARK                         _______ _______ _______ _____ _____    ______ ____
ROOT
ATOM      1  N   UNL     1       4.831   4.311  18.889  0.00  0.00    +0.000 NA
ATOM      2  C   UNL     1       4.322   5.322  19.555  0.00  0.00    +0.000 C 
ENDROOT
BRANCH   2   3
ATOM      3  C   UNL     1       3.393   6.456  19.146  0.00  0.00    +0.000 A 
ATOM      4  C   UNL     1       3.375   7.111  17.899  0.00  0.00    +0.000 A 
ATOM      5  C   UNL     1       2.513   8.174  17.635  0.00  0.00    +0.000 A 
ATOM      6  C   UNL     1       1.669   8.670  18.624  0.00  0.00    +0.000 A 
ATOM      7  C   UNL     1       0.874   9.794  18.372  0.00  0.00    +0.000 A 
ATOM      8  C   UNL     1       0.071  10.325  19.380  0.00  0.00    +0.000 A 
ATOM      9  C   UNL     1       0.030   9.716  20.637  0.00  0.00    +0.000 A 
ATOM     10  C   UNL     1       0.807   8.575  20.889  0.00  0.00    +0.000 A 
ATOM     11  C   UNL     1       1.647   8.045  19.888  0.00  0.00    +0.000 A 
ATOM     12  C   UNL     1       2.486   6.935  20.133  0.00  0.00    +0.000 A 
ENDBRANCH   2   3
BRANCH   1  13
ATOM     13  N   UNL     1       4.586   3.886  17.588  0.00  0.00    +0.000 N 
ATOM     14  C   UNL     1       5.467   4.177  16.509  0.00  0.00    +0.000 C 
ATOM     15  N   UNL     1       5.368   3.590  15.377  0.00  0.00    +0.000 NA
ATOM     16  C   UNL     1       6.425   4.020  14.504  0.00  0.00    +0.000 C 
ATOM     17  C   UNL     1       7.047   5.220  15.238  0.00  0.00    +0.000 C 
ATOM     18  N   UNL     1       6.502   5.121  16.557  0.00  0.00    +0.000 N 
ATOM     19  H   UNL     1       6.694   5.762  17.339  0.00  0.00    +0.000 HD
BRANCH  13  20
ATOM     20  C   UNL     1       3.266   3.402  17.183  0.00  0.00    +0.000 C 
BRANCH  20  21
ATOM     21  C   UNL     1       2.780   2.123  17.858  0.00  0.00    +0.000 C 
BRANCH  21  22
ATOM     22  O   UNL     1       3.914   1.411  18.289  0.00  0.00    +0.000 OA
ATOM     23  H   UNL     1       4.090   1.689  19.225  0.00  0.00    +0.000 HD
ENDBRANCH  21  22
ENDBRANCH  20  21
ENDBRANCH  13  20
ENDBRANCH   1  13
TORSDOF 5
ENDMDL
MODEL 9
REMARK VINA RESULT:      -7.0      2.338      3.783
REMARK  Name = 
REMARK  5 active torsions:
REMARK  status: ('A' for Active; 'I' for Inactive)
REMARK    1  A    between atoms: O_1  and  C_2
REMARK    2  A    between atoms: C_2  and  C_3
REMARK    3  A    between atoms: C_3  and  N_4
REMARK    4  A    between atoms: N_4  and  N_5
REMARK    5  A    between atoms: C_6  and  C_7
REMARK                            x       y       z     vdW  Elec       q    Type
REMARK                         _______ _______ _______ _____ _____    ______ ____
ROOT
ATOM      1  N   UNL     1       4.883   7.561  16.824  0.00  0.00    +0.000 NA
ATOM      2  C   UNL     1       3.728   7.619  17.449  0.00  0.00    +0.000 C 
ENDROOT
BRANCH   2   3
ATOM      3  C   UNL     1       2.990   6.627  18.336  0.00  0.00    +0.000 A 
ATOM      4  C   UNL     1       2.564   6.849  19.660  0.00  0.00    +0.000 A 
ATOM      5  C   UNL     1       1.932   5.858  20.409  0.00  0.00    +0.000 A 
ATOM      6  C   UNL     1       1.749   4.579  19.889  0.00  0.00    +0.000 A 
ATOM      7  C   UNL     1       1.195   3.570  20.684  0.00  0.00    +0.000 A 
ATOM      8  C   UNL     1       1.064   2.275  20.183  0.00  0.00    +0.000 A 
ATOM      9  C   UNL     1       1.455   1.989  18.873  0.00  0.00    +0.000 A 
ATOM     10  C   UNL     1       1.990   3.003  18.062  0.00  0.00    +0.000 A 
ATOM     11  C   UNL     1       2.157   4.309  18.567  0.00  0.00    +0.000 A 
ATOM     12  C   UNL     1       2.749   5.333  17.795  0.00  0.00    +0.000 A 
ENDBRANCH   2   3
BRANCH   1  13
ATOM     13  N   UNL     1       5.871   6.585  16.868  0.00  0.00    +0.000 N 
ATOM     14  C   UNL     1       6.013   5.592  15.857  0.00  0.00    +0.000 C 
ATOM     15  N   UNL     1       7.055   4.855  15.774  0.00  0.00    +0.000 NA
ATOM     16  C   UNL     1       6.962   3.999  14.623  0.00  0.00    +0.000 C 
ATOM     17  C   UNL     1       5.504   4.159  14.158  0.00  0.00    +0.000 C 
ATOM     18  N   UNL     1       5.051   5.309  14.878  0.00  0.00    +0.000 N 
ATOM     19  H   UNL     1       4.110   5.724  14.823  0.00  0.00    +0.000 HD
BRANCH  13  20
ATOM     20  C   UNL     1       6.615   6.310  18.098  0.00  0.00    +0.000 C 
BRANCH  20  21
ATOM     21  C   UNL     1       7.887   7.125  18.312  0.00  0.00    +0.000 C 
BRANCH  21  22
ATOM     22  O   UNL     1       7.904   8.151  17.350  0.00  0.00    +0.000 OA
ATOM     23  H   UNL     1       8.077   8.998  17.835  0.00  0.00    +0.000 HD
ENDBRANCH  21  22
ENDBRANCH  20  21
ENDBRANCH  13  20
ENDBRANCH   1  13
TORSDOF 5
ENDMDL
