MODEL 1
REMARK VINA RESULT:      -7.9      0.000      0.000
REMARK  Name = 
REMARK  8 active torsions:
REMARK  status: ('A' for Active; 'I' for Inactive)
REMARK    1  A    between atoms: C_1  and  O_2
REMARK    2  A    between atoms: O_2  and  N_3
REMARK    3  A    between atoms: N_3  and  C_4
REMARK    4  A    between atoms: N_3  and  C_6
REMARK    5  A    between atoms: C_6  and  C_7
REMARK    6  A    between atoms: N_9  and  C_10
REMARK    7  A    between atoms: C_13  and  N_14
REMARK    8  A    between atoms: N_17  and  C_18
REMARK                            x       y       z     vdW  Elec       q    Type
REMARK                         _______ _______ _______ _____ _____    ______ ____
ROOT
ATOM      1  C   UNL     1       2.341   7.091  19.025  0.00  0.00    +0.000 A 
ATOM      2  C   UNL     1       2.114   8.114  18.100  0.00  0.00    +0.000 A 
ATOM      3  C   UNL     1       1.461   9.299  18.459  0.00  0.00    +0.000 A 
ATOM      4  C   UNL     1       0.994   9.533  19.757  0.00  0.00    +0.000 A 
ATOM      5  C   UNL     1       1.205   8.491  20.671  0.00  0.00    +0.000 A 
ATOM      6  F   UNL     1       0.801   8.614  21.947  0.00  0.00    +0.000 F 
ATOM      7  C   UNL     1       1.875   7.303  20.326  0.00  0.00    +0.000 A 
ENDROOT
BRANCH   1  10
ATOM      8  C   UNL     1       4.564   4.169  18.479  0.00  0.00    +0.000 C 
ATOM      9  C   UNL     1       4.391   5.627  18.861  0.00  0.00    +0.000 C 
ATOM     10  N   UNL     1       2.993   5.884  18.650  0.00  0.00    +0.000 N 
ATOM     11  C   UNL     1       2.411   4.808  17.996  0.00  0.00    +0.000 C 
ATOM     12  O   UNL     1       1.277   4.689  17.563  0.00  0.00    +0.000 OA
ATOM     13  O   UNL     1       3.312   3.790  17.883  0.00  0.00    +0.000 OA
BRANCH   8  14
ATOM     14  C   UNL     1       5.639   3.878  17.434  0.00  0.00    +0.000 C 
BRANCH  14  15
ATOM     15  N   UNL     1       6.685   4.879  17.261  0.00  0.00    +0.000 N 
BRANCH  15  17
ATOM     16  C   UNL     1       7.976   5.608  19.070  0.00  0.00    +0.000 C 
ATOM     17  O   UNL     1       7.781   4.559  18.119  0.00  0.00    +0.000 OA
ENDBRANCH  15  17
BRANCH  15  18
ATOM     18  C   UNL     1       7.103   5.082  15.933  0.00  0.00    +0.000 C 
ATOM     19  S   UNL     1       6.523   4.367  14.539  0.00  0.00    +0.000 S 
ENDBRANCH  15  18
ENDBRANCH  14  15
ENDBRANCH   8  14
ENDBRANCH   1  10
BRANCH   4  20
ATOM     20  N   UNL     1       0.367  10.727  20.051  0.00  0.00    +0.000 N 
ATOM     21  C   UNL     1       0.957  11.768  20.915  0.00  0.00    +0.000 C 
ATOM     22  C   UNL     1       1.200  13.088  20.147  0.00  0.00    +0.000 C 
ATOM     23  N   UNL     1      -0.040  13.492  19.453  0.00  0.00    +0.000 N 
ATOM     24  C   UNL     1      -0.561  12.469  18.530  0.00  0.00    +0.000 C 
ATOM     25  C   UNL     1      -0.828  11.152  19.288  0.00  0.00    +0.000 C 
BRANCH  23  26
ATOM     26  C   UNL     1      -0.511  14.786  19.426  0.00  0.00    +0.000 A 
ATOM     27  C   UNL     1      -1.440  15.261  20.363  0.00  0.00    +0.000 A 
ATOM     28  C   UNL     1      -1.946  16.567  20.300  0.00  0.00    +0.000 A 
ATOM     29  C   UNL     1      -1.536  17.426  19.288  0.00  0.00    +0.000 A 
ATOM     30  C   UNL     1      -0.619  16.975  18.348  0.00  0.00    +0.000 A 
ATOM     31 CL   UNL     1      -0.119  18.019  17.071  0.00  0.00    +0.000 Cl
ATOM     32  C   UNL     1      -0.111  15.677  18.417  0.00  0.00    +0.000 A 
ENDBRANCH  23  26
ENDBRANCH   4  20
TORSDOF 7
ENDMDL
MODEL 2
REMARK VINA RESULT:      -7.8      0.883      1.217
REMARK  Name = 
REMARK  8 active torsions:
REMARK  status: ('A' for Active; 'I' for Inactive)
REMARK    1  A    between atoms: C_1  and  O_2
REMARK    2  A    between atoms: O_2  and  N_3
REMARK    3  A    between atoms: N_3  and  C_4
REMARK    4  A    between atoms: N_3  and  C_6
REMARK    5  A    between atoms: C_6  and  C_7
REMARK    6  A    between atoms: N_9  and  C_10
REMARK    7  A    between atoms: C_13  and  N_14
REMARK    8  A    between atoms: N_17  and  C_18
REMARK                            x       y       z     vdW  Elec       q    Type
REMARK                         _______ _______ _______ _____ _____    ______ ____
ROOT
ATOM      1  C   UNL     1       2.382   7.089  19.024  0.00  0.00    +0.000 A 
ATOM      2  C   UNL     1       1.815   7.341  20.276  0.00  0.00    +0.000 A 
ATOM      3  C   UNL     1       1.198   8.562  20.573  0.00  0.00    +0.000 A 
ATOM      4  C   UNL     1       1.112   9.603  19.642  0.00  0.00    +0.000 A 
ATOM      5  C   UNL     1       1.706   9.349  18.397  0.00  0.00    +0.000 A 
ATOM      6  F   UNL     1       1.674  10.280  17.427  0.00  0.00    +0.000 F 
ATOM      7  C   UNL     1       2.314   8.121  18.082  0.00  0.00    +0.000 A 
ENDROOT
BRANCH   1  10
ATOM      8  C   UNL     1       4.564   4.104  18.696  0.00  0.00    +0.000 C 
ATOM      9  C   UNL     1       4.410   5.586  18.984  0.00  0.00    +0.000 C 
ATOM     10  N   UNL     1       3.020   5.851  18.734  0.00  0.00    +0.000 N 
ATOM     11  C   UNL     1       2.430   4.746  18.139  0.00  0.00    +0.000 C 
ATOM     12  O   UNL     1       1.301   4.618  17.695  0.00  0.00    +0.000 OA
ATOM     13  O   UNL     1       3.315   3.709  18.104  0.00  0.00    +0.000 OA
BRANCH   8  14
ATOM     14  C   UNL     1       5.650   3.732  17.690  0.00  0.00    +0.000 C 
BRANCH  14  15
ATOM     15  N   UNL     1       6.690   4.722  17.438  0.00  0.00    +0.000 N 
BRANCH  15  17
ATOM     16  C   UNL     1       7.958   5.723  19.129  0.00  0.00    +0.000 C 
ATOM     17  O   UNL     1       7.752   4.528  18.372  0.00  0.00    +0.000 OA
ENDBRANCH  15  17
BRANCH  15  18
ATOM     18  C   UNL     1       7.161   4.769  16.113  0.00  0.00    +0.000 C 
ATOM     19  S   UNL     1       6.363   4.345  14.708  0.00  0.00    +0.000 S 
ENDBRANCH  15  18
ENDBRANCH  14  15
ENDBRANCH   8  14
ENDBRANCH   1  10
BRANCH   4  20
ATOM     20  N   UNL     1       0.481  10.780  19.991  0.00  0.00    +0.000 N 
ATOM     21  C   UNL     1       1.112  11.833  20.809  0.00  0.00    +0.000 C 
ATOM     22  C   UNL     1       1.259  13.161  20.031  0.00  0.00    +0.000 C 
ATOM     23  N   UNL     1      -0.043  13.535  19.441  0.00  0.00    +0.000 N 
ATOM     24  C   UNL     1      -0.611  12.502  18.558  0.00  0.00    +0.000 C 
ATOM     25  C   UNL     1      -0.782  11.176  19.329  0.00  0.00    +0.000 C 
BRANCH  23  26
ATOM     26  C   UNL     1      -0.547  14.816  19.459  0.00  0.00    +0.000 A 
ATOM     27  C   UNL     1      -1.452  15.248  20.439  0.00  0.00    +0.000 A 
ATOM     28  C   UNL     1      -1.992  16.542  20.422  0.00  0.00    +0.000 A 
ATOM     29  C   UNL     1      -1.643  17.432  19.413  0.00  0.00    +0.000 A 
ATOM     30  C   UNL     1      -0.750  17.023  18.431  0.00  0.00    +0.000 A 
ATOM     31 CL   UNL     1      -0.325  18.105  17.159  0.00  0.00    +0.000 Cl
ATOM     32  C   UNL     1      -0.207  15.738  18.455  0.00  0.00    +0.000 A 
ENDBRANCH  23  26
ENDBRANCH   4  20
TORSDOF 7
ENDMDL
MODEL 3
REMARK VINA RESULT:      -7.5      1.368      1.813
REMARK  Name = 
REMARK  8 active torsions:
REMARK  status: ('A' for Active; 'I' for Inactive)
REMARK    1  A    between atoms: C_1  and  O_2
REMARK    2  A    between atoms: O_2  and  N_3
REMARK    3  A    between atoms: N_3  and  C_4
REMARK    4  A    between atoms: N_3  and  C_6
REMARK    5  A    between atoms: C_6  and  C_7
REMARK    6  A    between atoms: N_9  and  C_10
REMARK    7  A    between atoms: C_13  and  N_14
REMARK    8  A    between atoms: N_17  and  C_18
REMARK                            x       y       z     vdW  Elec       q    Type
REMARK                         _______ _______ _______ _____ _____    ______ ____
ROOT
ATOM      1  C   UNL     1       2.274   7.068  19.251  0.00  0.00    +0.000 A 
ATOM      2  C   UNL     1       1.713   7.362  20.497  0.00  0.00    +0.000 A 
ATOM      3  C   UNL     1       1.118   8.601  20.763  0.00  0.00    +0.000 A 
ATOM      4  C   UNL     1       1.051   9.620  19.806  0.00  0.00    +0.000 A 
ATOM      5  C   UNL     1       1.639   9.324  18.568  0.00  0.00    +0.000 A 
ATOM      6  F   UNL     1       1.623  10.231  17.575  0.00  0.00    +0.000 F 
ATOM      7  C   UNL     1       2.224   8.077  18.284  0.00  0.00    +0.000 A 
ENDROOT
BRANCH   1  10
ATOM      8  C   UNL     1       4.323   3.977  19.104  0.00  0.00    +0.000 C 
ATOM      9  C   UNL     1       4.196   5.446  19.463  0.00  0.00    +0.000 C 
ATOM     10  N   UNL     1       2.889   5.812  18.993  0.00  0.00    +0.000 N 
ATOM     11  C   UNL     1       2.359   4.783  18.230  0.00  0.00    +0.000 C 
ATOM     12  O   UNL     1       1.322   4.752  17.587  0.00  0.00    +0.000 OA
ATOM     13  O   UNL     1       3.182   3.696  18.278  0.00  0.00    +0.000 OA
BRANCH   8  14
ATOM     14  C   UNL     1       5.551   3.597  18.279  0.00  0.00    +0.000 C 
BRANCH  14  15
ATOM     15  N   UNL     1       6.409   4.685  17.825  0.00  0.00    +0.000 N 
BRANCH  15  17
ATOM     16  C   UNL     1       7.896   5.848  19.207  0.00  0.00    +0.000 C 
ATOM     17  O   UNL     1       7.654   4.616  18.521  0.00  0.00    +0.000 OA
ENDBRANCH  15  17
BRANCH  15  18
ATOM     18  C   UNL     1       6.592   4.759  16.433  0.00  0.00    +0.000 C 
ATOM     19  S   UNL     1       5.577   5.421  15.282  0.00  0.00    +0.000 S 
ENDBRANCH  15  18
ENDBRANCH  14  15
ENDBRANCH   8  14
ENDBRANCH   1  10
BRANCH   4  20
ATOM     20  N   UNL     1       0.441  10.816  20.126  0.00  0.00    +0.000 N 
ATOM     21  C   UNL     1       1.120  11.911  20.847  0.00  0.00    +0.000 C 
ATOM     22  C   UNL     1       1.221  13.193  19.989  0.00  0.00    +0.000 C 
ATOM     23  N   UNL     1      -0.113  13.539  19.456  0.00  0.00    +0.000 N 
ATOM     24  C   UNL     1      -0.732  12.460  18.666  0.00  0.00    +0.000 C 
ATOM     25  C   UNL     1      -0.858  11.180  19.518  0.00  0.00    +0.000 C 
BRANCH  23  26
ATOM     26  C   UNL     1      -0.615  14.821  19.432  0.00  0.00    +0.000 A 
ATOM     27  C   UNL     1      -0.172  15.778  18.508  0.00  0.00    +0.000 A 
ATOM     28  C   UNL     1      -0.659  17.092  18.520  0.00  0.00    +0.000 A 
ATOM     29  C   UNL     1      -1.599  17.480  19.468  0.00  0.00    +0.000 A 
ATOM     30  C   UNL     1      -2.048  16.549  20.394  0.00  0.00    +0.000 A 
ATOM     31 CL   UNL     1      -3.194  17.019  21.592  0.00  0.00    +0.000 Cl
ATOM     32  C   UNL     1      -1.568  15.239  20.375  0.00  0.00    +0.000 A 
ENDBRANCH  23  26
ENDBRANCH   4  20
TORSDOF 7
ENDMDL
MODEL 4
REMARK VINA RESULT:      -7.4      1.208      1.473
REMARK  Name = 
REMARK  8 active torsions:
REMARK  status: ('A' for Active; 'I' for Inactive)
REMARK    1  A    between atoms: C_1  and  O_2
REMARK    2  A    between atoms: O_2  and  N_3
REMARK    3  A    between atoms: N_3  and  C_4
REMARK    4  A    between atoms: N_3  and  C_6
REMARK    5  A    between atoms: C_6  and  C_7
REMARK    6  A    between atoms: N_9  and  C_10
REMARK    7  A    between atoms: C_13  and  N_14
REMARK    8  A    between atoms: N_17  and  C_18
REMARK                            x       y       z     vdW  Elec       q    Type
REMARK                         _______ _______ _______ _____ _____    ______ ____
ROOT
ATOM      1  C   UNL     1       2.378   7.212  19.210  0.00  0.00    +0.000 A 
ATOM      2  C   UNL     1       2.196   8.219  18.257  0.00  0.00    +0.000 A 
ATOM      3  C   UNL     1       1.447   9.368  18.535  0.00  0.00    +0.000 A 
ATOM      4  C   UNL     1       0.834   9.581  19.775  0.00  0.00    +0.000 A 
ATOM      5  C   UNL     1       1.003   8.554  20.715  0.00  0.00    +0.000 A 
ATOM      6  F   UNL     1       0.461   8.660  21.941  0.00  0.00    +0.000 F 
ATOM      7  C   UNL     1       1.767   7.403  20.453  0.00  0.00    +0.000 A 
ENDROOT
BRANCH   1  10
ATOM      8  C   UNL     1       4.795   4.409  18.929  0.00  0.00    +0.000 C 
ATOM      9  C   UNL     1       4.506   5.856  19.282  0.00  0.00    +0.000 C 
ATOM     10  N   UNL     1       3.129   6.041  18.915  0.00  0.00    +0.000 N 
ATOM     11  C   UNL     1       2.680   4.937  18.206  0.00  0.00    +0.000 C 
ATOM     12  O   UNL     1       1.609   4.760  17.649  0.00  0.00    +0.000 OA
ATOM     13  O   UNL     1       3.639   3.967  18.199  0.00  0.00    +0.000 OA
BRANCH   8  14
ATOM     14  C   UNL     1       5.994   4.175  18.013  0.00  0.00    +0.000 C 
BRANCH  14  15
ATOM     15  N   UNL     1       6.159   5.088  16.888  0.00  0.00    +0.000 N 
BRANCH  15  17
ATOM     16  C   UNL     1       7.465   6.959  17.405  0.00  0.00    +0.000 C 
ATOM     17  O   UNL     1       7.486   5.617  16.911  0.00  0.00    +0.000 OA
ENDBRANCH  15  17
BRANCH  15  18
ATOM     18  C   UNL     1       5.832   4.552  15.630  0.00  0.00    +0.000 C 
ATOM     19  S   UNL     1       6.725   4.588  14.219  0.00  0.00    +0.000 S 
ENDBRANCH  15  18
ENDBRANCH  14  15
ENDBRANCH   8  14
ENDBRANCH   1  10
BRANCH   4  20
ATOM     20  N   UNL     1       0.117  10.740  19.991  0.00  0.00    +0.000 N 
ATOM     21  C   UNL     1       0.343  11.638  21.141  0.00  0.00    +0.000 C 
ATOM     22  C   UNL     1       0.811  13.042  20.695  0.00  0.00    +0.000 C 
ATOM     23  N   UNL     1      -0.116  13.571  19.673  0.00  0.00    +0.000 N 
ATOM     24  C   UNL     1      -0.258  12.698  18.495  0.00  0.00    +0.000 C 
ATOM     25  C   UNL     1      -0.744  11.297  18.924  0.00  0.00    +0.000 C 
BRANCH  23  26
ATOM     26  C   UNL     1      -0.577  14.868  19.660  0.00  0.00    +0.000 A 
ATOM     27  C   UNL     1      -0.293  15.750  18.607  0.00  0.00    +0.000 A 
ATOM     28  C   UNL     1      -0.730  17.082  18.625  0.00  0.00    +0.000 A 
ATOM     29  C   UNL     1      -1.459  17.563  19.706  0.00  0.00    +0.000 A 
ATOM     30  C   UNL     1      -1.749  16.707  20.761  0.00  0.00    +0.000 A 
ATOM     31 CL   UNL     1      -2.629  17.294  22.121  0.00  0.00    +0.000 Cl
ATOM     32  C   UNL     1      -1.319  15.380  20.737  0.00  0.00    +0.000 A 
ENDBRANCH  23  26
ENDBRANCH   4  20
TORSDOF 7
ENDMDL
MODEL 5
REMARK VINA RESULT:      -7.3      1.063      1.078
REMARK  Name = 
REMARK  8 active torsions:
REMARK  status: ('A' for Active; 'I' for Inactive)
REMARK    1  A    between atoms: C_1  and  O_2
REMARK    2  A    between atoms: O_2  and  N_3
REMARK    3  A    between atoms: N_3  and  C_4
REMARK    4  A    between atoms: N_3  and  C_6
REMARK    5  A    between atoms: C_6  and  C_7
REMARK    6  A    between atoms: N_9  and  C_10
REMARK    7  A    between atoms: C_13  and  N_14
REMARK    8  A    between atoms: N_17  and  C_18
REMARK                            x       y       z     vdW  Elec       q    Type
REMARK                         _______ _______ _______ _____ _____    ______ ____
ROOT
ATOM      1  C   UNL     1       2.074   7.634  19.656  0.00  0.00    +0.000 A 
ATOM      2  C   UNL     1       1.870   8.549  18.619  0.00  0.00    +0.000 A 
ATOM      3  C   UNL     1       1.216   9.769  18.831  0.00  0.00    +0.000 A 
ATOM      4  C   UNL     1       0.727  10.147  20.087  0.00  0.00    +0.000 A 
ATOM      5  C   UNL     1       0.915   9.211  21.114  0.00  0.00    +0.000 A 
ATOM      6  F   UNL     1       0.488   9.477  22.361  0.00  0.00    +0.000 F 
ATOM      7  C   UNL     1       1.585   7.990  20.916  0.00  0.00    +0.000 A 
ENDROOT
BRANCH   1  10
ATOM      8  C   UNL     1       4.342   4.795  18.898  0.00  0.00    +0.000 C 
ATOM      9  C   UNL     1       3.962   6.252  18.708  0.00  0.00    +0.000 C 
ATOM     10  N   UNL     1       2.726   6.391  19.429  0.00  0.00    +0.000 N 
ATOM     11  C   UNL     1       2.266   5.142  19.818  0.00  0.00    +0.000 C 
ATOM     12  O   UNL     1       1.216   4.840  20.360  0.00  0.00    +0.000 OA
ATOM     13  O   UNL     1       3.195   4.189  19.516  0.00  0.00    +0.000 OA
BRANCH   8  14
ATOM     14  C   UNL     1       4.604   4.005  17.618  0.00  0.00    +0.000 C 
BRANCH  14  15
ATOM     15  N   UNL     1       5.734   4.424  16.798  0.00  0.00    +0.000 N 
BRANCH  15  17
ATOM     16  C   UNL     1       7.410   5.885  17.524  0.00  0.00    +0.000 C 
ATOM     17  O   UNL     1       6.888   4.559  17.629  0.00  0.00    +0.000 OA
ENDBRANCH  15  17
BRANCH  15  18
ATOM     18  C   UNL     1       5.991   3.615  15.676  0.00  0.00    +0.000 C 
ATOM     19  S   UNL     1       6.331   4.085  14.109  0.00  0.00    +0.000 S 
ENDBRANCH  15  18
ENDBRANCH  14  15
ENDBRANCH   8  14
ENDBRANCH   1  10
BRANCH   4  20
ATOM     20  N   UNL     1       0.100  11.368  20.234  0.00  0.00    +0.000 N 
ATOM     21  C   UNL     1       0.600  12.440  21.117  0.00  0.00    +0.000 C 
ATOM     22  C   UNL     1       0.981  13.712  20.325  0.00  0.00    +0.000 C 
ATOM     23  N   UNL     1      -0.144  14.106  19.451  0.00  0.00    +0.000 N 
ATOM     24  C   UNL     1      -0.567  13.047  18.518  0.00  0.00    +0.000 C 
ATOM     25  C   UNL     1      -0.970  11.778  19.298  0.00  0.00    +0.000 C 
BRANCH  23  26
ATOM     26  C   UNL     1      -0.570  15.406  19.297  0.00  0.00    +0.000 A 
ATOM     27  C   UNL     1      -1.461  16.010  20.196  0.00  0.00    +0.000 A 
ATOM     28  C   UNL     1      -1.922  17.320  20.006  0.00  0.00    +0.000 A 
ATOM     29  C   UNL     1      -1.505  18.054  18.901  0.00  0.00    +0.000 A 
ATOM     30  C   UNL     1      -0.625  17.473  17.998  0.00  0.00    +0.000 A 
ATOM     31 CL   UNL     1      -0.117  18.359  16.610  0.00  0.00    +0.000 Cl
ATOM     32  C   UNL     1      -0.161  16.172  18.194  0.00  0.00    +0.000 A 
ENDBRANCH  23  26
ENDBRANCH   4  20
TORSDOF 7
ENDMDL
MODEL 6
REMARK VINA RESULT:      -7.3      2.710      3.164
REMARK  Name = 
REMARK  8 active torsions:
REMARK  status: ('A' for Active; 'I' for Inactive)
REMARK    1  A    between atoms: C_1  and  O_2
REMARK    2  A    between atoms: O_2  and  N_3
REMARK    3  A    between atoms: N_3  and  C_4
REMARK    4  A    between atoms: N_3  and  C_6
REMARK    5  A    between atoms: C_6  and  C_7
REMARK    6  A    between atoms: N_9  and  C_10
REMARK    7  A    between atoms: C_13  and  N_14
REMARK    8  A    between atoms: N_17  and  C_18
REMARK                            x       y       z     vdW  Elec       q    Type
REMARK                         _______ _______ _______ _____ _____    ______ ____
ROOT
ATOM      1  C   UNL     1       2.474   7.245  18.673  0.00  0.00    +0.000 A 
ATOM      2  C   UNL     1       2.215   8.317  17.815  0.00  0.00    +0.000 A 
ATOM      3  C   UNL     1       1.554   9.470  18.256  0.00  0.00    +0.000 A 
ATOM      4  C   UNL     1       1.110   9.620  19.575  0.00  0.00    +0.000 A 
ATOM      5  C   UNL     1       1.353   8.528  20.421  0.00  0.00    +0.000 A 
ATOM      6  F   UNL     1       0.974   8.570  21.710  0.00  0.00    +0.000 F 
ATOM      7  C   UNL     1       2.031   7.372  19.993  0.00  0.00    +0.000 A 
ENDROOT
BRANCH   1  10
ATOM      8  C   UNL     1       4.779   4.483  17.761  0.00  0.00    +0.000 C 
ATOM      9  C   UNL     1       4.561   5.945  18.100  0.00  0.00    +0.000 C 
ATOM     10  N   UNL     1       3.134   6.072  18.214  0.00  0.00    +0.000 N 
ATOM     11  C   UNL     1       2.523   4.908  17.773  0.00  0.00    +0.000 C 
ATOM     12  O   UNL     1       1.336   4.666  17.627  0.00  0.00    +0.000 OA
ATOM     13  O   UNL     1       3.466   3.961  17.499  0.00  0.00    +0.000 OA
BRANCH   8  14
ATOM     14  C   UNL     1       5.606   4.207  16.506  0.00  0.00    +0.000 C 
BRANCH  14  15
ATOM     15  N   UNL     1       7.050   4.375  16.612  0.00  0.00    +0.000 N 
BRANCH  15  17
ATOM     16  C   UNL     1       6.917   4.971  14.354  0.00  0.00    +0.000 C 
ATOM     17  O   UNL     1       7.483   5.310  15.622  0.00  0.00    +0.000 OA
ENDBRANCH  15  17
BRANCH  15  18
ATOM     18  C   UNL     1       7.519   4.716  17.893  0.00  0.00    +0.000 C 
ATOM     19  S   UNL     1       7.863   6.231  18.508  0.00  0.00    +0.000 S 
ENDBRANCH  15  18
ENDBRANCH  14  15
ENDBRANCH   8  14
ENDBRANCH   1  10
BRANCH   4  20
ATOM     20  N   UNL     1       0.473  10.785  19.952  0.00  0.00    +0.000 N 
ATOM     21  C   UNL     1      -0.489  11.504  19.094  0.00  0.00    +0.000 C 
ATOM     22  C   UNL     1      -1.899  11.557  19.725  0.00  0.00    +0.000 C 
ATOM     23  N   UNL     1      -1.803  12.069  21.108  0.00  0.00    +0.000 N 
ATOM     24  C   UNL     1      -0.903  11.282  21.969  0.00  0.00    +0.000 C 
ATOM     25  C   UNL     1       0.514  11.238  21.360  0.00  0.00    +0.000 C 
BRANCH  23  26
ATOM     26  C   UNL     1      -2.674  12.994  21.641  0.00  0.00    +0.000 A 
ATOM     27  C   UNL     1      -3.705  13.569  20.884  0.00  0.00    +0.000 A 
ATOM     28  C   UNL     1      -4.558  14.541  21.424  0.00  0.00    +0.000 A 
ATOM     29  C   UNL     1      -4.391  14.966  22.738  0.00  0.00    +0.000 A 
ATOM     30  C   UNL     1      -3.374  14.410  23.503  0.00  0.00    +0.000 A 
ATOM     31 CL   UNL     1      -3.137  14.943  25.124  0.00  0.00    +0.000 Cl
ATOM     32  C   UNL     1      -2.531  13.437  22.966  0.00  0.00    +0.000 A 
ENDBRANCH  23  26
ENDBRANCH   4  20
TORSDOF 7
ENDMDL
MODEL 7
REMARK VINA RESULT:      -7.3      2.455      2.945
REMARK  Name = 
REMARK  8 active torsions:
REMARK  status: ('A' for Active; 'I' for Inactive)
REMARK    1  A    between atoms: C_1  and  O_2
REMARK    2  A    between atoms: O_2  and  N_3
REMARK    3  A    between atoms: N_3  and  C_4
REMARK    4  A    between atoms: N_3  and  C_6
REMARK    5  A    between atoms: C_6  and  C_7
REMARK    6  A    between atoms: N_9  and  C_10
REMARK    7  A    between atoms: C_13  and  N_14
REMARK    8  A    between atoms: N_17  and  C_18
REMARK                            x       y       z     vdW  Elec       q    Type
REMARK                         _______ _______ _______ _____ _____    ______ ____
ROOT
ATOM      1  C   UNL     1       2.368   7.078  19.194  0.00  0.00    +0.000 A 
ATOM      2  C   UNL     1       1.848   7.368  20.459  0.00  0.00    +0.000 A 
ATOM      3  C   UNL     1       1.197   8.578  20.727  0.00  0.00    +0.000 A 
ATOM      4  C   UNL     1       1.028   9.569  19.753  0.00  0.00    +0.000 A 
ATOM      5  C   UNL     1       1.574   9.277  18.495  0.00  0.00    +0.000 A 
ATOM      6  F   UNL     1       1.461  10.158  17.485  0.00  0.00    +0.000 F 
ATOM      7  C   UNL     1       2.215   8.058  18.210  0.00  0.00    +0.000 A 
ENDROOT
BRANCH   1  10
ATOM      8  C   UNL     1       4.666   4.182  18.865  0.00  0.00    +0.000 C 
ATOM      9  C   UNL     1       4.461   5.673  19.056  0.00  0.00    +0.000 C 
ATOM     10  N   UNL     1       3.040   5.852  18.934  0.00  0.00    +0.000 N 
ATOM     11  C   UNL     1       2.456   4.676  18.488  0.00  0.00    +0.000 C 
ATOM     12  O   UNL     1       1.296   4.460  18.175  0.00  0.00    +0.000 OA
ATOM     13  O   UNL     1       3.389   3.682  18.438  0.00  0.00    +0.000 OA
BRANCH   8  14
ATOM     14  C   UNL     1       5.665   3.782  17.782  0.00  0.00    +0.000 C 
BRANCH  14  15
ATOM     15  N   UNL     1       6.723   4.735  17.469  0.00  0.00    +0.000 N 
BRANCH  15  17
ATOM     16  C   UNL     1       8.017   5.753  19.130  0.00  0.00    +0.000 C 
ATOM     17  O   UNL     1       7.801   4.551  18.387  0.00  0.00    +0.000 OA
ENDBRANCH  15  17
BRANCH  15  18
ATOM     18  C   UNL     1       7.166   4.718  16.134  0.00  0.00    +0.000 C 
ATOM     19  S   UNL     1       6.300   4.344  14.754  0.00  0.00    +0.000 S 
ENDBRANCH  15  18
ENDBRANCH  14  15
ENDBRANCH   8  14
ENDBRANCH   1  10
BRANCH   4  20
ATOM     20  N   UNL     1       0.366  10.737  20.077  0.00  0.00    +0.000 N 
ATOM     21  C   UNL     1      -0.818  10.788  20.954  0.00  0.00    +0.000 C 
ATOM     22  C   UNL     1      -0.553  11.608  22.238  0.00  0.00    +0.000 C 
ATOM     23  N   UNL     1       0.003  12.928  21.874  0.00  0.00    +0.000 N 
ATOM     24  C   UNL     1       1.236  12.850  21.071  0.00  0.00    +0.000 C 
ATOM     25  C   UNL     1       0.979  12.050  19.776  0.00  0.00    +0.000 C 
BRANCH  23  26
ATOM     26  C   UNL     1      -0.395  14.110  22.459  0.00  0.00    +0.000 A 
ATOM     27  C   UNL     1       0.175  15.343  22.111  0.00  0.00    +0.000 A 
ATOM     28  C   UNL     1      -0.207  16.534  22.742  0.00  0.00    +0.000 A 
ATOM     29  C   UNL     1      -1.168  16.515  23.747  0.00  0.00    +0.000 A 
ATOM     30  C   UNL     1      -1.743  15.304  24.108  0.00  0.00    +0.000 A 
ATOM     31 CL   UNL     1      -2.917  15.258  25.369  0.00  0.00    +0.000 Cl
ATOM     32  C   UNL     1      -1.367  14.120  23.472  0.00  0.00    +0.000 A 
ENDBRANCH  23  26
ENDBRANCH   4  20
TORSDOF 7
ENDMDL
MODEL 8
REMARK VINA RESULT:      -7.3      2.851      3.482
REMARK  Name = 
REMARK  8 active torsions:
REMARK  status: ('A' for Active; 'I' for Inactive)
REMARK    1  A    between atoms: C_1  and  O_2
REMARK    2  A    between atoms: O_2  and  N_3
REMARK    3  A    between atoms: N_3  and  C_4
REMARK    4  A    between atoms: N_3  and  C_6
REMARK    5  A    between atoms: C_6  and  C_7
REMARK    6  A    between atoms: N_9  and  C_10
REMARK    7  A    between atoms: C_13  and  N_14
REMARK    8  A    between atoms: N_17  and  C_18
REMARK                            x       y       z     vdW  Elec       q    Type
REMARK                         _______ _______ _______ _____ _____    ______ ____
ROOT
ATOM      1  C   UNL     1       3.294   6.825  18.250  0.00  0.00    +0.000 A 
ATOM      2  C   UNL     1       2.898   7.888  17.434  0.00  0.00    +0.000 A 
ATOM      3  C   UNL     1       2.035   8.889  17.895  0.00  0.00    +0.000 A 
ATOM      4  C   UNL     1       1.516   8.889  19.194  0.00  0.00    +0.000 A 
ATOM      5  C   UNL     1       1.900   7.806  19.997  0.00  0.00    +0.000 A 
ATOM      6  F   UNL     1       1.463   7.712  21.266  0.00  0.00    +0.000 F 
ATOM      7  C   UNL     1       2.780   6.803  19.550  0.00  0.00    +0.000 A 
ENDROOT
BRANCH   1  10
ATOM      8  C   UNL     1       5.845   4.686  16.607  0.00  0.00    +0.000 C 
ATOM      9  C   UNL     1       4.979   5.933  16.596  0.00  0.00    +0.000 C 
ATOM     10  N   UNL     1       4.160   5.805  17.770  0.00  0.00    +0.000 N 
ATOM     11  C   UNL     1       4.317   4.539  18.315  0.00  0.00    +0.000 C 
ATOM     12  O   UNL     1       3.726   4.022  19.250  0.00  0.00    +0.000 OA
ATOM     13  O   UNL     1       5.297   3.863  17.651  0.00  0.00    +0.000 OA
BRANCH   8  14
ATOM     14  C   UNL     1       5.811   3.842  15.336  0.00  0.00    +0.000 C 
BRANCH  14  15
ATOM     15  N   UNL     1       6.220   4.491  14.096  0.00  0.00    +0.000 N 
BRANCH  15  17
ATOM     16  C   UNL     1       8.095   5.432  13.063  0.00  0.00    +0.000 C 
ATOM     17  O   UNL     1       7.454   5.176  14.315  0.00  0.00    +0.000 OA
ENDBRANCH  15  17
BRANCH  15  18
ATOM     18  C   UNL     1       6.283   3.646  12.973  0.00  0.00    +0.000 C 
ATOM     19  S   UNL     1       5.069   3.255  11.894  0.00  0.00    +0.000 S 
ENDBRANCH  15  18
ENDBRANCH  14  15
ENDBRANCH   8  14
ENDBRANCH   1  10
BRANCH   4  20
ATOM     20  N   UNL     1       0.678   9.911  19.594  0.00  0.00    +0.000 N 
ATOM     21  C   UNL     1      -0.526   9.703  20.421  0.00  0.00    +0.000 C 
ATOM     22  C   UNL     1      -0.424  10.427  21.784  0.00  0.00    +0.000 C 
ATOM     23  N   UNL     1      -0.062  11.842  21.566  0.00  0.00    +0.000 N 
ATOM     24  C   UNL     1       1.191  12.023  20.812  0.00  0.00    +0.000 C 
ATOM     25  C   UNL     1       1.095  11.323  19.441  0.00  0.00    +0.000 C 
BRANCH  23  26
ATOM     26  C   UNL     1      -0.649  12.891  22.237  0.00  0.00    +0.000 A 
ATOM     27  C   UNL     1      -0.093  14.178  22.242  0.00  0.00    +0.000 A 
ATOM     28  C   UNL     1      -0.676  15.229  22.965  0.00  0.00    +0.000 A 
ATOM     29  C   UNL     1      -1.831  15.009  23.707  0.00  0.00    +0.000 A 
ATOM     30  C   UNL     1      -2.396  13.741  23.717  0.00  0.00    +0.000 A 
ATOM     31 CL   UNL     1      -3.813  13.445  24.652  0.00  0.00    +0.000 Cl
ATOM     32  C   UNL     1      -1.819  12.699  22.991  0.00  0.00    +0.000 A 
ENDBRANCH  23  26
ENDBRANCH   4  20
TORSDOF 7
ENDMDL
MODEL 9
REMARK VINA RESULT:      -7.2      1.216      1.327
REMARK  Name = 
REMARK  8 active torsions:
REMARK  status: ('A' for Active; 'I' for Inactive)
REMARK    1  A    between atoms: C_1  and  O_2
REMARK    2  A    between atoms: O_2  and  N_3
REMARK    3  A    between atoms: N_3  and  C_4
REMARK    4  A    between atoms: N_3  and  C_6
REMARK    5  A    between atoms: C_6  and  C_7
REMARK    6  A    between atoms: N_9  and  C_10
REMARK    7  A    between atoms: C_13  and  N_14
REMARK    8  A    between atoms: N_17  and  C_18
REMARK                            x       y       z     vdW  Elec       q    Type
REMARK                         _______ _______ _______ _____ _____    ______ ____
ROOT
ATOM      1  C   UNL     1       2.303   7.150  19.172  0.00  0.00    +0.000 A 
ATOM      2  C   UNL     1       2.285   8.137  18.182  0.00  0.00    +0.000 A 
ATOM      3  C   UNL     1       1.716   9.396  18.408  0.00  0.00    +0.000 A 
ATOM      4  C   UNL     1       1.130   9.743  19.631  0.00  0.00    +0.000 A 
ATOM      5  C   UNL     1       1.132   8.738  20.608  0.00  0.00    +0.000 A 
ATOM      6  F   UNL     1       0.600   8.969  21.821  0.00  0.00    +0.000 F 
ATOM      7  C   UNL     1       1.715   7.476  20.398  0.00  0.00    +0.000 A 
ENDROOT
BRANCH   1  10
ATOM      8  C   UNL     1       4.248   3.991  19.052  0.00  0.00    +0.000 C 
ATOM      9  C   UNL     1       4.177   5.471  19.377  0.00  0.00    +0.000 C 
ATOM     10  N   UNL     1       2.871   5.868  18.930  0.00  0.00    +0.000 N 
ATOM     11  C   UNL     1       2.290   4.839  18.204  0.00  0.00    +0.000 C 
ATOM     12  O   UNL     1       1.237   4.828  17.587  0.00  0.00    +0.000 OA
ATOM     13  O   UNL     1       3.079   3.728  18.259  0.00  0.00    +0.000 OA
BRANCH   8  14
ATOM     14  C   UNL     1       5.443   3.552  18.208  0.00  0.00    +0.000 C 
BRANCH  14  15
ATOM     15  N   UNL     1       6.342   4.598  17.734  0.00  0.00    +0.000 N 
BRANCH  15  17
ATOM     16  C   UNL     1       7.771   6.105  18.810  0.00  0.00    +0.000 C 
ATOM     17  O   UNL     1       7.430   4.726  18.650  0.00  0.00    +0.000 OA
ENDBRANCH  15  17
BRANCH  15  18
ATOM     18  C   UNL     1       6.789   4.445  16.409  0.00  0.00    +0.000 C 
ATOM     19  S   UNL     1       6.117   5.056  15.006  0.00  0.00    +0.000 S 
ENDBRANCH  15  18
ENDBRANCH  14  15
ENDBRANCH   8  14
ENDBRANCH   1  10
BRANCH   4  20
ATOM     20  N   UNL     1       0.595  11.006  19.796  0.00  0.00    +0.000 N 
ATOM     21  C   UNL     1       0.847  11.851  20.978  0.00  0.00    +0.000 C 
ATOM     22  C   UNL     1       1.582  13.160  20.609  0.00  0.00    +0.000 C 
ATOM     23  N   UNL     1       0.864  13.836  19.509  0.00  0.00    +0.000 N 
ATOM     24  C   UNL     1       0.702  13.001  18.306  0.00  0.00    +0.000 C 
ATOM     25  C   UNL     1      -0.049  11.699  18.658  0.00  0.00    +0.000 C 
BRANCH  23  26
ATOM     26  C   UNL     1       0.627  15.192  19.474  0.00  0.00    +0.000 A 
ATOM     27  C   UNL     1      -0.449  15.743  18.762  0.00  0.00    +0.000 A 
ATOM     28  C   UNL     1      -0.656  17.128  18.697  0.00  0.00    +0.000 A 
ATOM     29  C   UNL     1       0.219  17.995  19.342  0.00  0.00    +0.000 A 
ATOM     30  C   UNL     1       1.291  17.471  20.050  0.00  0.00    +0.000 A 
ATOM     31 CL   UNL     1       2.399  18.533  20.833  0.00  0.00    +0.000 Cl
ATOM     32  C   UNL     1       1.491  16.091  20.119  0.00  0.00    +0.000 A 
ENDBRANCH  23  26
ENDBRANCH   4  20
TORSDOF 7
ENDMDL
