MODEL 1
REMARK VINA RESULT:      -7.3      0.000      0.000
REMARK  Name = 
REMARK  12 active torsions:
REMARK  status: ('A' for Active; 'I' for Inactive)
REMARK    1  A    between atoms: C_1  and  N_2
REMARK    2  A    between atoms: N_2  and  C_10
REMARK    3  A    between atoms: C_3  and  O_5
REMARK    4  A    between atoms: O_5  and  C_6
REMARK    5  A    between atoms: C_6  and  C_7
REMARK    6  A    between atoms: C_6  and  C_8
REMARK    7  A    between atoms: C_6  and  C_9
REMARK    8  A    between atoms: C_10  and  C_11
REMARK    9  A    between atoms: N_13  and  C_14
REMARK   10  A    between atoms: C_14  and  C_15
REMARK   11  A    between atoms: C_15  and  C_16
REMARK   12  A    between atoms: N_20  and  C_21
REMARK                            x       y       z     vdW  Elec       q    Type
REMARK                         _______ _______ _______ _____ _____    ______ ____
ROOT
ATOM      1  C   UNL     1       2.497   4.453  19.443  0.00  0.00    +0.000 C 
ATOM      2  C   UNL     1       1.202   3.583  19.207  0.00  0.00    +0.000 C 
ATOM      3  C   UNL     1       1.178   3.274  20.711  0.00  0.00    +0.000 C 
ATOM      4  C   UNL     1       2.668   3.618  20.763  0.00  0.00    +0.000 C 
ENDROOT
BRANCH   1   6
ATOM      5  C   UNL     1       3.491   3.284  17.381  0.00  0.00    +0.000 C 
ATOM      6  N   UNL     1       3.664   4.188  18.502  0.00  0.00    +0.000 N 
ATOM      7  C   UNL     1       4.873   4.812  18.785  0.00  0.00    +0.000 C 
ATOM      8  O   UNL     1       4.998   5.569  19.743  0.00  0.00    +0.000 OA
BRANCH   7   9
ATOM      9  O   UNL     1       5.880   4.490  17.923  0.00  0.00    +0.000 OA
BRANCH   9  10
ATOM     10  C   UNL     1       6.389   5.499  17.006  0.00  0.00    +0.000 C 
ATOM     11  C   UNL     1       7.453   6.375  17.683  0.00  0.00    +0.000 C 
ATOM     12  C   UNL     1       7.069   4.746  15.847  0.00  0.00    +0.000 C 
ATOM     13  C   UNL     1       5.237   6.322  16.412  0.00  0.00    +0.000 C 
ENDBRANCH   9  10
ENDBRANCH   7   9
ENDBRANCH   1   6
BRANCH   1  14
ATOM     14  C   UNL     1       2.139   6.013  19.520  0.00  0.00    +0.000 C 
ATOM     15  O   UNL     1       2.055   6.738  18.519  0.00  0.00    +0.000 OA
ATOM     16  N   UNL     1       1.893   6.526  20.777  0.00  0.00    +0.000 N 
ATOM     17  H   UNL     1       2.243   5.993  21.572  0.00  0.00    +0.000 HD
BRANCH  16  18
ATOM     18  C   UNL     1       1.536   7.921  20.978  0.00  0.00    +0.000 C 
BRANCH  18  19
ATOM     19  C   UNL     1       0.045   8.142  21.291  0.00  0.00    +0.000 C 
BRANCH  19  20
ATOM     20  C   UNL     1      -0.224   9.511  21.827  0.00  0.00    +0.000 A 
ATOM     21  C   UNL     1      -0.367   9.947  23.128  0.00  0.00    +0.000 A 
ATOM     22  N   UNL     1      -0.650  11.285  23.172  0.00  0.00    +0.000 NA
ATOM     23  C   UNL     1      -0.670  11.673  21.919  0.00  0.00    +0.000 A 
ATOM     24  N   UNL     1      -0.405  10.637  21.069  0.00  0.00    +0.000 N 
ATOM     25  C   UNL     1      -0.337  10.745  19.630  0.00  0.00    +0.000 C 
ENDBRANCH  19  20
ENDBRANCH  18  19
ENDBRANCH  16  18
ENDBRANCH   1  14
TORSDOF 7
ENDMDL
MODEL 2
REMARK VINA RESULT:      -7.0      1.762      2.008
REMARK  Name = 
REMARK  12 active torsions:
REMARK  status: ('A' for Active; 'I' for Inactive)
REMARK    1  A    between atoms: C_1  and  N_2
REMARK    2  A    between atoms: N_2  and  C_10
REMARK    3  A    between atoms: C_3  and  O_5
REMARK    4  A    between atoms: O_5  and  C_6
REMARK    5  A    between atoms: C_6  and  C_7
REMARK    6  A    between atoms: C_6  and  C_8
REMARK    7  A    between atoms: C_6  and  C_9
REMARK    8  A    between atoms: C_10  and  C_11
REMARK    9  A    between atoms: N_13  and  C_14
REMARK   10  A    between atoms: C_14  and  C_15
REMARK   11  A    between atoms: C_15  and  C_16
REMARK   12  A    between atoms: N_20  and  C_21
REMARK                            x       y       z     vdW  Elec       q    Type
REMARK                         _______ _______ _______ _____ _____    ______ ____
ROOT
ATOM      1  C   UNL     1       2.478   4.612  19.440  0.00  0.00    +0.000 C 
ATOM      2  C   UNL     1       1.114   3.835  19.282  0.00  0.00    +0.000 C 
ATOM      3  C   UNL     1       1.184   3.480  20.775  0.00  0.00    +0.000 C 
ATOM      4  C   UNL     1       2.694   3.726  20.719  0.00  0.00    +0.000 C 
ENDROOT
BRANCH   1   6
ATOM      5  C   UNL     1       3.215   3.504  17.240  0.00  0.00    +0.000 C 
ATOM      6  N   UNL     1       3.550   4.304  18.404  0.00  0.00    +0.000 N 
ATOM      7  C   UNL     1       4.832   4.784  18.641  0.00  0.00    +0.000 C 
ATOM      8  O   UNL     1       5.095   5.455  19.635  0.00  0.00    +0.000 OA
BRANCH   7   9
ATOM      9  O   UNL     1       5.744   4.430  17.690  0.00  0.00    +0.000 OA
BRANCH   9  10
ATOM     10  C   UNL     1       6.320   5.454  16.832  0.00  0.00    +0.000 C 
ATOM     11  C   UNL     1       7.430   6.225  17.559  0.00  0.00    +0.000 C 
ATOM     12  C   UNL     1       6.961   4.723  15.637  0.00  0.00    +0.000 C 
ATOM     13  C   UNL     1       5.225   6.376  16.279  0.00  0.00    +0.000 C 
ENDBRANCH   9  10
ENDBRANCH   7   9
ENDBRANCH   1   6
BRANCH   1  14
ATOM     14  C   UNL     1       2.232   6.189  19.588  0.00  0.00    +0.000 C 
ATOM     15  O   UNL     1       1.835   6.715  20.638  0.00  0.00    +0.000 OA
ATOM     16  N   UNL     1       2.512   6.962  18.481  0.00  0.00    +0.000 N 
ATOM     17  H   UNL     1       2.555   6.485  17.581  0.00  0.00    +0.000 HD
BRANCH  16  18
ATOM     18  C   UNL     1       2.351   8.407  18.496  0.00  0.00    +0.000 C 
BRANCH  18  19
ATOM     19  C   UNL     1       1.112   8.902  17.728  0.00  0.00    +0.000 C 
BRANCH  19  20
ATOM     20  C   UNL     1       0.403  10.003  18.448  0.00  0.00    +0.000 A 
ATOM     21  C   UNL     1       0.825  10.804  19.488  0.00  0.00    +0.000 A 
ATOM     22  N   UNL     1      -0.163  11.665  19.881  0.00  0.00    +0.000 NA
ATOM     23  C   UNL     1      -1.177  11.409  19.089  0.00  0.00    +0.000 A 
ATOM     24  N   UNL     1      -0.877  10.419  18.196  0.00  0.00    +0.000 N 
ATOM     25  C   UNL     1      -1.776   9.923  17.180  0.00  0.00    +0.000 C 
ENDBRANCH  19  20
ENDBRANCH  18  19
ENDBRANCH  16  18
ENDBRANCH   1  14
TORSDOF 7
ENDMDL
MODEL 3
REMARK VINA RESULT:      -7.0      4.289      7.307
REMARK  Name = 
REMARK  12 active torsions:
REMARK  status: ('A' for Active; 'I' for Inactive)
REMARK    1  A    between atoms: C_1  and  N_2
REMARK    2  A    between atoms: N_2  and  C_10
REMARK    3  A    between atoms: C_3  and  O_5
REMARK    4  A    between atoms: O_5  and  C_6
REMARK    5  A    between atoms: C_6  and  C_7
REMARK    6  A    between atoms: C_6  and  C_8
REMARK    7  A    between atoms: C_6  and  C_9
REMARK    8  A    between atoms: C_10  and  C_11
REMARK    9  A    between atoms: N_13  and  C_14
REMARK   10  A    between atoms: C_14  and  C_15
REMARK   11  A    between atoms: C_15  and  C_16
REMARK   12  A    between atoms: N_20  and  C_21
REMARK                            x       y       z     vdW  Elec       q    Type
REMARK                         _______ _______ _______ _____ _____    ______ ____
ROOT
ATOM      1  C   UNL     1       5.897   5.739  17.118  0.00  0.00    +0.000 C 
ATOM      2  C   UNL     1       6.373   4.337  16.572  0.00  0.00    +0.000 C 
ATOM      3  C   UNL     1       6.386   4.933  15.156  0.00  0.00    +0.000 C 
ATOM      4  C   UNL     1       5.419   6.012  15.646  0.00  0.00    +0.000 C 
ENDROOT
BRANCH   1   6
ATOM      5  C   UNL     1       3.638   6.694  17.889  0.00  0.00    +0.000 C 
ATOM      6  N   UNL     1       4.702   5.722  18.060  0.00  0.00    +0.000 N 
ATOM      7  C   UNL     1       4.699   4.777  19.079  0.00  0.00    +0.000 C 
ATOM      8  O   UNL     1       5.612   3.967  19.208  0.00  0.00    +0.000 OA
BRANCH   7   9
ATOM      9  O   UNL     1       3.617   4.853  19.906  0.00  0.00    +0.000 OA
BRANCH   9  10
ATOM     10  C   UNL     1       2.594   3.821  19.846  0.00  0.00    +0.000 C 
ATOM     11  C   UNL     1       2.614   3.101  18.490  0.00  0.00    +0.000 C 
ATOM     12  C   UNL     1       2.941   2.786  20.932  0.00  0.00    +0.000 C 
ATOM     13  C   UNL     1       1.215   4.404  20.184  0.00  0.00    +0.000 C 
ENDBRANCH   9  10
ENDBRANCH   7   9
ENDBRANCH   1   6
BRANCH   1  14
ATOM     14  C   UNL     1       7.124   6.568  17.729  0.00  0.00    +0.000 C 
ATOM     15  O   UNL     1       7.925   6.088  18.543  0.00  0.00    +0.000 OA
ATOM     16  N   UNL     1       7.275   7.864  17.281  0.00  0.00    +0.000 N 
ATOM     17  H   UNL     1       6.462   8.304  16.852  0.00  0.00    +0.000 HD
BRANCH  16  18
ATOM     18  C   UNL     1       8.363   8.712  17.743  0.00  0.00    +0.000 C 
BRANCH  18  19
ATOM     19  C   UNL     1       7.920  10.133  18.134  0.00  0.00    +0.000 C 
BRANCH  19  20
ATOM     20  C   UNL     1       9.030  11.126  18.011  0.00  0.00    +0.000 A 
ATOM     21  C   UNL     1      10.384  10.980  18.229  0.00  0.00    +0.000 A 
ATOM     22  N   UNL     1      11.045  12.163  18.041  0.00  0.00    +0.000 NA
ATOM     23  C   UNL     1      10.116  13.025  17.700  0.00  0.00    +0.000 A 
ATOM     24  N   UNL     1       8.883  12.440  17.656  0.00  0.00    +0.000 N 
ATOM     25  C   UNL     1       7.659  13.118  17.296  0.00  0.00    +0.000 C 
ENDBRANCH  19  20
ENDBRANCH  18  19
ENDBRANCH  16  18
ENDBRANCH   1  14
TORSDOF 7
ENDMDL
MODEL 4
REMARK VINA RESULT:      -6.9      4.228      7.427
REMARK  Name = 
REMARK  12 active torsions:
REMARK  status: ('A' for Active; 'I' for Inactive)
REMARK    1  A    between atoms: C_1  and  N_2
REMARK    2  A    between atoms: N_2  and  C_10
REMARK    3  A    between atoms: C_3  and  O_5
REMARK    4  A    between atoms: O_5  and  C_6
REMARK    5  A    between atoms: C_6  and  C_7
REMARK    6  A    between atoms: C_6  and  C_8
REMARK    7  A    between atoms: C_6  and  C_9
REMARK    8  A    between atoms: C_10  and  C_11
REMARK    9  A    between atoms: N_13  and  C_14
REMARK   10  A    between atoms: C_14  and  C_15
REMARK   11  A    between atoms: C_15  and  C_16
REMARK   12  A    between atoms: N_20  and  C_21
REMARK                            x       y       z     vdW  Elec       q    Type
REMARK                         _______ _______ _______ _____ _____    ______ ____
ROOT
ATOM      1  C   UNL     1       5.867   5.833  17.360  0.00  0.00    +0.000 C 
ATOM      2  C   UNL     1       6.284   4.448  16.727  0.00  0.00    +0.000 C 
ATOM      3  C   UNL     1       6.277   5.117  15.345  0.00  0.00    +0.000 C 
ATOM      4  C   UNL     1       5.357   6.197  15.919  0.00  0.00    +0.000 C 
ENDROOT
BRANCH   1   6
ATOM      5  C   UNL     1       3.664   6.814  18.250  0.00  0.00    +0.000 C 
ATOM      6  N   UNL     1       4.699   5.800  18.335  0.00  0.00    +0.000 N 
ATOM      7  C   UNL     1       4.693   4.801  19.300  0.00  0.00    +0.000 C 
ATOM      8  O   UNL     1       5.582   3.956  19.357  0.00  0.00    +0.000 OA
BRANCH   7   9
ATOM      9  O   UNL     1       3.638   4.864  20.162  0.00  0.00    +0.000 OA
BRANCH   9  10
ATOM     10  C   UNL     1       2.546   3.912  20.030  0.00  0.00    +0.000 C 
ATOM     11  C   UNL     1       2.439   3.388  18.592  0.00  0.00    +0.000 C 
ATOM     12  C   UNL     1       2.885   2.717  20.941  0.00  0.00    +0.000 C 
ATOM     13  C   UNL     1       1.231   4.523  20.536  0.00  0.00    +0.000 C 
ENDBRANCH   9  10
ENDBRANCH   7   9
ENDBRANCH   1   6
BRANCH   1  14
ATOM     14  C   UNL     1       7.136   6.591  17.978  0.00  0.00    +0.000 C 
ATOM     15  O   UNL     1       7.849   6.103  18.867  0.00  0.00    +0.000 OA
ATOM     16  N   UNL     1       7.430   7.831  17.448  0.00  0.00    +0.000 N 
ATOM     17  H   UNL     1       6.684   8.308  16.945  0.00  0.00    +0.000 HD
BRANCH  16  18
ATOM     18  C   UNL     1       8.569   8.609  17.908  0.00  0.00    +0.000 C 
BRANCH  18  19
ATOM     19  C   UNL     1       8.212  10.048  18.321  0.00  0.00    +0.000 C 
BRANCH  19  20
ATOM     20  C   UNL     1       9.426  10.872  18.607  0.00  0.00    +0.000 A 
ATOM     21  C   UNL     1      10.402  11.346  17.756  0.00  0.00    +0.000 A 
ATOM     22  N   UNL     1      11.368  12.029  18.444  0.00  0.00    +0.000 NA
ATOM     23  C   UNL     1      10.989  11.988  19.700  0.00  0.00    +0.000 A 
ATOM     24  N   UNL     1       9.813  11.309  19.846  0.00  0.00    +0.000 N 
ATOM     25  C   UNL     1       9.126  11.107  21.101  0.00  0.00    +0.000 C 
ENDBRANCH  19  20
ENDBRANCH  18  19
ENDBRANCH  16  18
ENDBRANCH   1  14
TORSDOF 7
ENDMDL
MODEL 5
REMARK VINA RESULT:      -6.9      0.764      1.618
REMARK  Name = 
REMARK  12 active torsions:
REMARK  status: ('A' for Active; 'I' for Inactive)
REMARK    1  A    between atoms: C_1  and  N_2
REMARK    2  A    between atoms: N_2  and  C_10
REMARK    3  A    between atoms: C_3  and  O_5
REMARK    4  A    between atoms: O_5  and  C_6
REMARK    5  A    between atoms: C_6  and  C_7
REMARK    6  A    between atoms: C_6  and  C_8
REMARK    7  A    between atoms: C_6  and  C_9
REMARK    8  A    between atoms: C_10  and  C_11
REMARK    9  A    between atoms: N_13  and  C_14
REMARK   10  A    between atoms: C_14  and  C_15
REMARK   11  A    between atoms: C_15  and  C_16
REMARK   12  A    between atoms: N_20  and  C_21
REMARK                            x       y       z     vdW  Elec       q    Type
REMARK                         _______ _______ _______ _____ _____    ______ ____
ROOT
ATOM      1  C   UNL     1       2.424   4.172  19.583  0.00  0.00    +0.000 C 
ATOM      2  C   UNL     1       1.097   3.318  19.568  0.00  0.00    +0.000 C 
ATOM      3  C   UNL     1       1.166   3.248  21.101  0.00  0.00    +0.000 C 
ATOM      4  C   UNL     1       2.664   3.547  21.005  0.00  0.00    +0.000 C 
ENDROOT
BRANCH   1   6
ATOM      5  C   UNL     1       3.288   2.595  17.746  0.00  0.00    +0.000 C 
ATOM      6  N   UNL     1       3.519   3.725  18.625  0.00  0.00    +0.000 N 
ATOM      7  C   UNL     1       4.725   4.415  18.659  0.00  0.00    +0.000 C 
ATOM      8  O   UNL     1       4.901   5.366  19.415  0.00  0.00    +0.000 OA
BRANCH   7   9
ATOM      9  O   UNL     1       5.669   3.929  17.803  0.00  0.00    +0.000 OA
BRANCH   9  10
ATOM     10  C   UNL     1       6.004   4.680  16.603  0.00  0.00    +0.000 C 
ATOM     11  C   UNL     1       4.955   5.762  16.317  0.00  0.00    +0.000 C 
ATOM     12  C   UNL     1       7.344   5.387  16.880  0.00  0.00    +0.000 C 
ATOM     13  C   UNL     1       6.217   3.734  15.413  0.00  0.00    +0.000 C 
ENDBRANCH   9  10
ENDBRANCH   7   9
ENDBRANCH   1   6
BRANCH   1  14
ATOM     14  C   UNL     1       2.108   5.735  19.437  0.00  0.00    +0.000 C 
ATOM     15  O   UNL     1       1.849   6.274  18.351  0.00  0.00    +0.000 OA
ATOM     16  N   UNL     1       2.106   6.474  20.602  0.00  0.00    +0.000 N 
ATOM     17  H   UNL     1       2.590   6.075  21.405  0.00  0.00    +0.000 HD
BRANCH  16  18
ATOM     18  C   UNL     1       1.811   7.898  20.605  0.00  0.00    +0.000 C 
BRANCH  18  19
ATOM     19  C   UNL     1       0.503   8.260  21.332  0.00  0.00    +0.000 C 
BRANCH  19  20
ATOM     20  C   UNL     1      -0.062   9.562  20.864  0.00  0.00    +0.000 A 
ATOM     21  C   UNL     1      -0.107  10.111  19.600  0.00  0.00    +0.000 A 
ATOM     22  N   UNL     1      -0.681  11.353  19.621  0.00  0.00    +0.000 NA
ATOM     23  C   UNL     1      -0.998  11.564  20.877  0.00  0.00    +0.000 A 
ATOM     24  N   UNL     1      -0.654  10.502  21.664  0.00  0.00    +0.000 N 
ATOM     25  C   UNL     1      -0.887  10.420  23.088  0.00  0.00    +0.000 C 
ENDBRANCH  19  20
ENDBRANCH  18  19
ENDBRANCH  16  18
ENDBRANCH   1  14
TORSDOF 7
ENDMDL
MODEL 6
REMARK VINA RESULT:      -6.8      1.899      4.429
REMARK  Name = 
REMARK  12 active torsions:
REMARK  status: ('A' for Active; 'I' for Inactive)
REMARK    1  A    between atoms: C_1  and  N_2
REMARK    2  A    between atoms: N_2  and  C_10
REMARK    3  A    between atoms: C_3  and  O_5
REMARK    4  A    between atoms: O_5  and  C_6
REMARK    5  A    between atoms: C_6  and  C_7
REMARK    6  A    between atoms: C_6  and  C_8
REMARK    7  A    between atoms: C_6  and  C_9
REMARK    8  A    between atoms: C_10  and  C_11
REMARK    9  A    between atoms: N_13  and  C_14
REMARK   10  A    between atoms: C_14  and  C_15
REMARK   11  A    between atoms: C_15  and  C_16
REMARK   12  A    between atoms: N_20  and  C_21
REMARK                            x       y       z     vdW  Elec       q    Type
REMARK                         _______ _______ _______ _____ _____    ______ ____
ROOT
ATOM      1  C   UNL     1       5.093   4.796  16.907  0.00  0.00    +0.000 C 
ATOM      2  C   UNL     1       6.614   4.406  17.064  0.00  0.00    +0.000 C 
ATOM      3  C   UNL     1       6.782   4.594  15.550  0.00  0.00    +0.000 C 
ATOM      4  C   UNL     1       5.273   4.394  15.399  0.00  0.00    +0.000 C 
ENDROOT
BRANCH   1   6
ATOM      5  C   UNL     1       2.938   3.396  16.834  0.00  0.00    +0.000 C 
ATOM      6  N   UNL     1       4.090   3.869  17.579  0.00  0.00    +0.000 N 
ATOM      7  C   UNL     1       4.310   3.537  18.910  0.00  0.00    +0.000 C 
ATOM      8  O   UNL     1       5.289   3.953  19.523  0.00  0.00    +0.000 OA
BRANCH   7   9
ATOM      9  O   UNL     1       3.346   2.739  19.452  0.00  0.00    +0.000 OA
BRANCH   9  10
ATOM     10  C   UNL     1       2.352   3.318  20.342  0.00  0.00    +0.000 C 
ATOM     11  C   UNL     1       2.467   4.849  20.378  0.00  0.00    +0.000 C 
ATOM     12  C   UNL     1       0.971   2.965  19.758  0.00  0.00    +0.000 C 
ATOM     13  C   UNL     1       2.441   2.687  21.739  0.00  0.00    +0.000 C 
ENDBRANCH   9  10
ENDBRANCH   7   9
ENDBRANCH   1   6
BRANCH   1  14
ATOM     14  C   UNL     1       4.845   6.328  17.305  0.00  0.00    +0.000 C 
ATOM     15  O   UNL     1       5.757   7.164  17.378  0.00  0.00    +0.000 OA
ATOM     16  N   UNL     1       3.537   6.699  17.541  0.00  0.00    +0.000 N 
ATOM     17  H   UNL     1       2.875   5.953  17.750  0.00  0.00    +0.000 HD
BRANCH  16  18
ATOM     18  C   UNL     1       3.179   8.065  17.888  0.00  0.00    +0.000 C 
BRANCH  18  19
ATOM     19  C   UNL     1       1.661   8.313  17.949  0.00  0.00    +0.000 C 
BRANCH  19  20
ATOM     20  C   UNL     1       1.311   9.460  18.840  0.00  0.00    +0.000 A 
ATOM     21  C   UNL     1       1.131  10.795  18.545  0.00  0.00    +0.000 A 
ATOM     22  N   UNL     1       0.859  11.519  19.675  0.00  0.00    +0.000 NA
ATOM     23  C   UNL     1       0.859  10.643  20.652  0.00  0.00    +0.000 A 
ATOM     24  N   UNL     1       1.116   9.382  20.193  0.00  0.00    +0.000 N 
ATOM     25  C   UNL     1       1.166   8.197  21.018  0.00  0.00    +0.000 C 
ENDBRANCH  19  20
ENDBRANCH  18  19
ENDBRANCH  16  18
ENDBRANCH   1  14
TORSDOF 7
ENDMDL
MODEL 7
REMARK VINA RESULT:      -6.8      0.877      1.312
REMARK  Name = 
REMARK  12 active torsions:
REMARK  status: ('A' for Active; 'I' for Inactive)
REMARK    1  A    between atoms: C_1  and  N_2
REMARK    2  A    between atoms: N_2  and  C_10
REMARK    3  A    between atoms: C_3  and  O_5
REMARK    4  A    between atoms: O_5  and  C_6
REMARK    5  A    between atoms: C_6  and  C_7
REMARK    6  A    between atoms: C_6  and  C_8
REMARK    7  A    between atoms: C_6  and  C_9
REMARK    8  A    between atoms: C_10  and  C_11
REMARK    9  A    between atoms: N_13  and  C_14
REMARK   10  A    between atoms: C_14  and  C_15
REMARK   11  A    between atoms: C_15  and  C_16
REMARK   12  A    between atoms: N_20  and  C_21
REMARK                            x       y       z     vdW  Elec       q    Type
REMARK                         _______ _______ _______ _____ _____    ______ ____
ROOT
ATOM      1  C   UNL     1       2.482   4.246  19.699  0.00  0.00    +0.000 C 
ATOM      2  C   UNL     1       1.091   3.559  19.989  0.00  0.00    +0.000 C 
ATOM      3  C   UNL     1       1.596   3.208  21.396  0.00  0.00    +0.000 C 
ATOM      4  C   UNL     1       3.027   3.354  20.873  0.00  0.00    +0.000 C 
ENDROOT
BRANCH   1   6
ATOM      5  C   UNL     1       2.352   3.497  17.244  0.00  0.00    +0.000 C 
ATOM      6  N   UNL     1       3.160   3.862  18.392  0.00  0.00    +0.000 N 
ATOM      7  C   UNL     1       4.549   3.848  18.368  0.00  0.00    +0.000 C 
ATOM      8  O   UNL     1       5.214   4.155  19.353  0.00  0.00    +0.000 OA
BRANCH   7   9
ATOM      9  O   UNL     1       5.081   3.452  17.176  0.00  0.00    +0.000 OA
BRANCH   9  10
ATOM     10  C   UNL     1       5.888   4.385  16.405  0.00  0.00    +0.000 C 
ATOM     11  C   UNL     1       5.990   3.947  14.937  0.00  0.00    +0.000 C 
ATOM     12  C   UNL     1       5.158   5.741  16.441  0.00  0.00    +0.000 C 
ATOM     13  C   UNL     1       7.263   4.581  17.059  0.00  0.00    +0.000 C 
ENDBRANCH   9  10
ENDBRANCH   7   9
ENDBRANCH   1   6
BRANCH   1  14
ATOM     14  C   UNL     1       2.390   5.836  19.876  0.00  0.00    +0.000 C 
ATOM     15  O   UNL     1       3.026   6.632  19.171  0.00  0.00    +0.000 OA
ATOM     16  N   UNL     1       1.530   6.298  20.851  0.00  0.00    +0.000 N 
ATOM     17  H   UNL     1       1.255   5.638  21.577  0.00  0.00    +0.000 HD
BRANCH  16  18
ATOM     18  C   UNL     1       1.341   7.719  21.094  0.00  0.00    +0.000 C 
BRANCH  18  19
ATOM     19  C   UNL     1      -0.115   8.107  21.409  0.00  0.00    +0.000 C 
BRANCH  19  20
ATOM     20  C   UNL     1      -0.237   9.524  21.867  0.00  0.00    +0.000 A 
ATOM     21  C   UNL     1      -0.471  10.036  23.126  0.00  0.00    +0.000 A 
ATOM     22  N   UNL     1      -0.551  11.402  23.097  0.00  0.00    +0.000 NA
ATOM     23  C   UNL     1      -0.356  11.730  21.842  0.00  0.00    +0.000 A 
ATOM     24  N   UNL     1      -0.149  10.628  21.062  0.00  0.00    +0.000 N 
ATOM     25  C   UNL     1       0.112  10.658  19.642  0.00  0.00    +0.000 C 
ENDBRANCH  19  20
ENDBRANCH  18  19
ENDBRANCH  16  18
ENDBRANCH   1  14
TORSDOF 7
ENDMDL
MODEL 8
REMARK VINA RESULT:      -6.8      1.949      2.339
REMARK  Name = 
REMARK  12 active torsions:
REMARK  status: ('A' for Active; 'I' for Inactive)
REMARK    1  A    between atoms: C_1  and  N_2
REMARK    2  A    between atoms: N_2  and  C_10
REMARK    3  A    between atoms: C_3  and  O_5
REMARK    4  A    between atoms: O_5  and  C_6
REMARK    5  A    between atoms: C_6  and  C_7
REMARK    6  A    between atoms: C_6  and  C_8
REMARK    7  A    between atoms: C_6  and  C_9
REMARK    8  A    between atoms: C_10  and  C_11
REMARK    9  A    between atoms: N_13  and  C_14
REMARK   10  A    between atoms: C_14  and  C_15
REMARK   11  A    between atoms: C_15  and  C_16
REMARK   12  A    between atoms: N_20  and  C_21
REMARK                            x       y       z     vdW  Elec       q    Type
REMARK                         _______ _______ _______ _____ _____    ______ ____
ROOT
ATOM      1  C   UNL     1       2.501   4.234  19.459  0.00  0.00    +0.000 C 
ATOM      2  C   UNL     1       1.168   3.436  19.187  0.00  0.00    +0.000 C 
ATOM      3  C   UNL     1       1.272   2.847  20.602  0.00  0.00    +0.000 C 
ATOM      4  C   UNL     1       2.770   3.162  20.577  0.00  0.00    +0.000 C 
ENDROOT
BRANCH   1   6
ATOM      5  C   UNL     1       3.262   3.499  17.117  0.00  0.00    +0.000 C 
ATOM      6  N   UNL     1       3.570   4.142  18.380  0.00  0.00    +0.000 N 
ATOM      7  C   UNL     1       4.826   4.661  18.671  0.00  0.00    +0.000 C 
ATOM      8  O   UNL     1       5.066   5.198  19.749  0.00  0.00    +0.000 OA
BRANCH   7   9
ATOM      9  O   UNL     1       5.740   4.503  17.671  0.00  0.00    +0.000 OA
BRANCH   9  10
ATOM     10  C   UNL     1       6.241   5.672  16.965  0.00  0.00    +0.000 C 
ATOM     11  C   UNL     1       7.338   6.378  17.773  0.00  0.00    +0.000 C 
ATOM     12  C   UNL     1       6.875   5.163  15.656  0.00  0.00    +0.000 C 
ATOM     13  C   UNL     1       5.088   6.612  16.587  0.00  0.00    +0.000 C 
ENDBRANCH   9  10
ENDBRANCH   7   9
ENDBRANCH   1   6
BRANCH   1  14
ATOM     14  C   UNL     1       2.193   5.754  19.863  0.00  0.00    +0.000 C 
ATOM     15  O   UNL     1       1.822   6.091  20.996  0.00  0.00    +0.000 OA
ATOM     16  N   UNL     1       2.389   6.703  18.881  0.00  0.00    +0.000 N 
ATOM     17  H   UNL     1       2.412   6.374  17.917  0.00  0.00    +0.000 HD
BRANCH  16  18
ATOM     18  C   UNL     1       2.166   8.118  19.129  0.00  0.00    +0.000 C 
BRANCH  18  19
ATOM     19  C   UNL     1       1.652   8.891  17.901  0.00  0.00    +0.000 C 
BRANCH  19  20
ATOM     20  C   UNL     1       1.472  10.347  18.184  0.00  0.00    +0.000 A 
ATOM     21  C   UNL     1       2.356  11.397  18.046  0.00  0.00    +0.000 A 
ATOM     22  N   UNL     1       1.794  12.574  18.462  0.00  0.00    +0.000 NA
ATOM     23  C   UNL     1       0.578  12.259  18.839  0.00  0.00    +0.000 A 
ATOM     24  N   UNL     1       0.333  10.925  18.677  0.00  0.00    +0.000 N 
ATOM     25  C   UNL     1      -0.918  10.271  18.984  0.00  0.00    +0.000 C 
ENDBRANCH  19  20
ENDBRANCH  18  19
ENDBRANCH  16  18
ENDBRANCH   1  14
TORSDOF 7
ENDMDL
MODEL 9
REMARK VINA RESULT:      -6.8      1.788      4.319
REMARK  Name = 
REMARK  12 active torsions:
REMARK  status: ('A' for Active; 'I' for Inactive)
REMARK    1  A    between atoms: C_1  and  N_2
REMARK    2  A    between atoms: N_2  and  C_10
REMARK    3  A    between atoms: C_3  and  O_5
REMARK    4  A    between atoms: O_5  and  C_6
REMARK    5  A    between atoms: C_6  and  C_7
REMARK    6  A    between atoms: C_6  and  C_8
REMARK    7  A    between atoms: C_6  and  C_9
REMARK    8  A    between atoms: C_10  and  C_11
REMARK    9  A    between atoms: N_13  and  C_14
REMARK   10  A    between atoms: C_14  and  C_15
REMARK   11  A    between atoms: C_15  and  C_16
REMARK   12  A    between atoms: N_20  and  C_21
REMARK                            x       y       z     vdW  Elec       q    Type
REMARK                         _______ _______ _______ _____ _____    ______ ____
ROOT
ATOM      1  C   UNL     1       5.122   4.794  16.855  0.00  0.00    +0.000 C 
ATOM      2  C   UNL     1       6.636   4.365  16.968  0.00  0.00    +0.000 C 
ATOM      3  C   UNL     1       6.775   4.581  15.454  0.00  0.00    +0.000 C 
ATOM      4  C   UNL     1       5.258   4.420  15.334  0.00  0.00    +0.000 C 
ENDROOT
BRANCH   1   6
ATOM      5  C   UNL     1       2.946   3.427  16.793  0.00  0.00    +0.000 C 
ATOM      6  N   UNL     1       4.112   3.877  17.530  0.00  0.00    +0.000 N 
ATOM      7  C   UNL     1       4.341   3.532  18.856  0.00  0.00    +0.000 C 
ATOM      8  O   UNL     1       5.333   3.928  19.462  0.00  0.00    +0.000 OA
BRANCH   7   9
ATOM      9  O   UNL     1       3.371   2.744  19.402  0.00  0.00    +0.000 OA
BRANCH   9  10
ATOM     10  C   UNL     1       2.397   3.331  20.309  0.00  0.00    +0.000 C 
ATOM     11  C   UNL     1       2.505   4.862  20.322  0.00  0.00    +0.000 C 
ATOM     12  C   UNL     1       1.003   2.964  19.765  0.00  0.00    +0.000 C 
ATOM     13  C   UNL     1       2.523   2.718  21.711  0.00  0.00    +0.000 C 
ENDBRANCH   9  10
ENDBRANCH   7   9
ENDBRANCH   1   6
BRANCH   1  14
ATOM     14  C   UNL     1       4.920   6.323  17.289  0.00  0.00    +0.000 C 
ATOM     15  O   UNL     1       5.862   7.117  17.425  0.00  0.00    +0.000 OA
ATOM     16  N   UNL     1       3.620   6.741  17.485  0.00  0.00    +0.000 N 
ATOM     17  H   UNL     1       2.920   6.018  17.643  0.00  0.00    +0.000 HD
BRANCH  16  18
ATOM     18  C   UNL     1       3.304   8.110  17.859  0.00  0.00    +0.000 C 
BRANCH  18  19
ATOM     19  C   UNL     1       1.795   8.409  17.904  0.00  0.00    +0.000 C 
BRANCH  19  20
ATOM     20  C   UNL     1       1.339   8.815  19.268  0.00  0.00    +0.000 A 
ATOM     21  C   UNL     1       1.634   8.277  20.503  0.00  0.00    +0.000 A 
ATOM     22  N   UNL     1       0.965   8.932  21.501  0.00  0.00    +0.000 NA
ATOM     23  C   UNL     1       0.276   9.870  20.894  0.00  0.00    +0.000 A 
ATOM     24  N   UNL     1       0.481   9.846  19.543  0.00  0.00    +0.000 N 
ATOM     25  C   UNL     1      -0.120  10.761  18.601  0.00  0.00    +0.000 C 
ENDBRANCH  19  20
ENDBRANCH  18  19
ENDBRANCH  16  18
ENDBRANCH   1  14
TORSDOF 7
ENDMDL
