MODEL 1
REMARK VINA RESULT:      -6.1      0.000      0.000
REMARK  Name = 
REMARK  1 active torsions:
REMARK  status: ('A' for Active; 'I' for Inactive)
REMARK    1  A    between atoms: C_1  and  N_2
REMARK                            x       y       z     vdW  Elec       q    Type
REMARK                         _______ _______ _______ _____ _____    ______ ____
ROOT
ATOM      1  C   UNL     1       1.874   4.287  17.704  0.00  0.00    +0.000 C 
ATOM      2  N   UNL     1       2.778   3.591  18.598  0.00  0.00    +0.000 N 
ATOM      3  C   UNL     1       4.071   3.274  18.191  0.00  0.00    +0.000 A 
ATOM      4  O   UNL     1       4.532   3.550  17.083  0.00  0.00    +0.000 OA
ATOM      5  N   UNL     1       4.876   2.607  19.099  0.00  0.00    +0.000 N 
ATOM      6  C   UNL     1       4.545   2.215  20.376  0.00  0.00    +0.000 A 
ATOM      7  O   UNL     1       5.320   1.626  21.119  0.00  0.00    +0.000 OA
ATOM      8  C   UNL     1       3.218   2.571  20.717  0.00  0.00    +0.000 A 
ATOM      9  N   UNL     1       2.504   2.376  21.861  0.00  0.00    +0.000 N 
ATOM     10  C   UNL     1       1.265   2.923  21.647  0.00  0.00    +0.000 A 
ATOM     11  N   UNL     1       1.161   3.448  20.439  0.00  0.00    +0.000 NA
ATOM     12  C   UNL     1       2.377   3.228  19.867  0.00  0.00    +0.000 A 
ATOM     13  H   UNL     1       5.807   2.388  18.784  0.00  0.00    +0.000 HD
ATOM     14  H   UNL     1       2.829   1.916  22.702  0.00  0.00    +0.000 HD
ENDROOT
TORSDOF 0
ENDMDL
MODEL 2
REMARK VINA RESULT:      -5.7      3.722      4.510
REMARK  Name = 
REMARK  1 active torsions:
REMARK  status: ('A' for Active; 'I' for Inactive)
REMARK    1  A    between atoms: C_1  and  N_2
REMARK                            x       y       z     vdW  Elec       q    Type
REMARK                         _______ _______ _______ _____ _____    ______ ____
ROOT
ATOM      1  C   UNL     1       5.202   6.608  15.774  0.00  0.00    +0.000 C 
ATOM      2  N   UNL     1       5.897   6.238  16.990  0.00  0.00    +0.000 N 
ATOM      3  C   UNL     1       7.004   6.963  17.422  0.00  0.00    +0.000 A 
ATOM      4  O   UNL     1       7.463   7.940  16.828  0.00  0.00    +0.000 OA
ATOM      5  N   UNL     1       7.617   6.549  18.593  0.00  0.00    +0.000 N 
ATOM      6  C   UNL     1       7.255   5.489  19.392  0.00  0.00    +0.000 A 
ATOM      7  O   UNL     1       7.853   5.188  20.418  0.00  0.00    +0.000 OA
ATOM      8  C   UNL     1       6.124   4.802  18.890  0.00  0.00    +0.000 A 
ATOM      9  N   UNL     1       5.452   3.717  19.365  0.00  0.00    +0.000 N 
ATOM     10  C   UNL     1       4.431   3.471  18.482  0.00  0.00    +0.000 A 
ATOM     11  N   UNL     1       4.425   4.337  17.485  0.00  0.00    +0.000 NA
ATOM     12  C   UNL     1       5.478   5.161  17.744  0.00  0.00    +0.000 A 
ATOM     13  H   UNL     1       8.415   7.088  18.886  0.00  0.00    +0.000 HD
ATOM     14  H   UNL     1       5.667   3.196  20.207  0.00  0.00    +0.000 HD
ENDROOT
TORSDOF 0
ENDMDL
MODEL 3
REMARK VINA RESULT:      -5.7      3.397      4.443
REMARK  Name = 
REMARK  1 active torsions:
REMARK  status: ('A' for Active; 'I' for Inactive)
REMARK    1  A    between atoms: C_1  and  N_2
REMARK                            x       y       z     vdW  Elec       q    Type
REMARK                         _______ _______ _______ _____ _____    ______ ____
ROOT
ATOM      1  C   UNL     1       5.194   4.249  14.426  0.00  0.00    +0.000 C 
ATOM      2  N   UNL     1       5.906   4.479  15.667  0.00  0.00    +0.000 N 
ATOM      3  C   UNL     1       7.140   5.123  15.667  0.00  0.00    +0.000 A 
ATOM      4  O   UNL     1       7.703   5.534  14.651  0.00  0.00    +0.000 OA
ATOM      5  N   UNL     1       7.760   5.306  16.891  0.00  0.00    +0.000 N 
ATOM      6  C   UNL     1       7.294   4.922  18.127  0.00  0.00    +0.000 A 
ATOM      7  O   UNL     1       7.908   5.122  19.168  0.00  0.00    +0.000 OA
ATOM      8  C   UNL     1       6.037   4.275  18.047  0.00  0.00    +0.000 A 
ATOM      9  N   UNL     1       5.238   3.747  19.016  0.00  0.00    +0.000 N 
ATOM     10  C   UNL     1       4.133   3.242  18.380  0.00  0.00    +0.000 A 
ATOM     11  N   UNL     1       4.193   3.423  17.073  0.00  0.00    +0.000 NA
ATOM     12  C   UNL     1       5.377   4.065  16.872  0.00  0.00    +0.000 A 
ATOM     13  H   UNL     1       8.651   5.775  16.867  0.00  0.00    +0.000 HD
ATOM     14  H   UNL     1       5.428   3.732  20.010  0.00  0.00    +0.000 HD
ENDROOT
TORSDOF 0
ENDMDL
MODEL 4
REMARK VINA RESULT:      -5.7      3.210      5.013
REMARK  Name = 
REMARK  1 active torsions:
REMARK  status: ('A' for Active; 'I' for Inactive)
REMARK    1  A    between atoms: C_1  and  N_2
REMARK                            x       y       z     vdW  Elec       q    Type
REMARK                         _______ _______ _______ _____ _____    ______ ____
ROOT
ATOM      1  C   UNL     1       3.154   3.580  17.039  0.00  0.00    +0.000 C 
ATOM      2  N   UNL     1       4.454   3.996  17.526  0.00  0.00    +0.000 N 
ATOM      3  C   UNL     1       4.680   4.156  18.891  0.00  0.00    +0.000 A 
ATOM      4  O   UNL     1       3.828   3.964  19.759  0.00  0.00    +0.000 OA
ATOM      5  N   UNL     1       5.948   4.557  19.281  0.00  0.00    +0.000 N 
ATOM      6  C   UNL     1       7.026   4.819  18.467  0.00  0.00    +0.000 A 
ATOM      7  O   UNL     1       8.118   5.170  18.893  0.00  0.00    +0.000 OA
ATOM      8  C   UNL     1       6.719   4.634  17.097  0.00  0.00    +0.000 A 
ATOM      9  N   UNL     1       7.485   4.782  15.980  0.00  0.00    +0.000 N 
ATOM     10  C   UNL     1       6.682   4.473  14.912  0.00  0.00    +0.000 A 
ATOM     11  N   UNL     1       5.463   4.140  15.294  0.00  0.00    +0.000 NA
ATOM     12  C   UNL     1       5.491   4.241  16.651  0.00  0.00    +0.000 A 
ATOM     13  H   UNL     1       6.089   4.666  20.272  0.00  0.00    +0.000 HD
ATOM     14  H   UNL     1       8.456   5.066  15.950  0.00  0.00    +0.000 HD
ENDROOT
TORSDOF 0
ENDMDL
MODEL 5
REMARK VINA RESULT:      -5.6      1.861      3.263
REMARK  Name = 
REMARK  1 active torsions:
REMARK  status: ('A' for Active; 'I' for Inactive)
REMARK    1  A    between atoms: C_1  and  N_2
REMARK                            x       y       z     vdW  Elec       q    Type
REMARK                         _______ _______ _______ _____ _____    ______ ____
ROOT
ATOM      1  C   UNL     1       1.503   4.642  17.686  0.00  0.00    +0.000 C 
ATOM      2  N   UNL     1       2.462   3.890  18.470  0.00  0.00    +0.000 N 
ATOM      3  C   UNL     1       2.033   2.934  19.386  0.00  0.00    +0.000 A 
ATOM      4  O   UNL     1       0.850   2.660  19.594  0.00  0.00    +0.000 OA
ATOM      5  N   UNL     1       3.008   2.256  20.100  0.00  0.00    +0.000 N 
ATOM      6  C   UNL     1       4.371   2.419  20.009  0.00  0.00    +0.000 A 
ATOM      7  O   UNL     1       5.170   1.777  20.679  0.00  0.00    +0.000 OA
ATOM      8  C   UNL     1       4.730   3.406  19.060  0.00  0.00    +0.000 A 
ATOM      9  N   UNL     1       5.949   3.870  18.667  0.00  0.00    +0.000 N 
ATOM     10  C   UNL     1       5.714   4.830  17.715  0.00  0.00    +0.000 A 
ATOM     11  N   UNL     1       4.423   4.993  17.490  0.00  0.00    +0.000 NA
ATOM     12  C   UNL     1       3.817   4.107  18.327  0.00  0.00    +0.000 A 
ATOM     13  H   UNL     1       2.675   1.568  20.755  0.00  0.00    +0.000 HD
ATOM     14  H   UNL     1       6.850   3.563  19.013  0.00  0.00    +0.000 HD
ENDROOT
TORSDOF 0
ENDMDL
MODEL 6
REMARK VINA RESULT:      -5.6      1.060      1.060
REMARK  Name = 
REMARK  1 active torsions:
REMARK  status: ('A' for Active; 'I' for Inactive)
REMARK    1  A    between atoms: C_1  and  N_2
REMARK                            x       y       z     vdW  Elec       q    Type
REMARK                         _______ _______ _______ _____ _____    ______ ____
ROOT
ATOM      1  C   UNL     1       2.615   5.918  18.162  0.00  0.00    +0.000 C 
ATOM      2  N   UNL     1       3.267   4.780  18.779  0.00  0.00    +0.000 N 
ATOM      3  C   UNL     1       4.564   4.425  18.420  0.00  0.00    +0.000 A 
ATOM      4  O   UNL     1       5.236   5.028  17.582  0.00  0.00    +0.000 OA
ATOM      5  N   UNL     1       5.120   3.326  19.052  0.00  0.00    +0.000 N 
ATOM      6  C   UNL     1       4.532   2.530  20.008  0.00  0.00    +0.000 A 
ATOM      7  O   UNL     1       5.095   1.570  20.520  0.00  0.00    +0.000 OA
ATOM      8  C   UNL     1       3.217   2.951  20.321  0.00  0.00    +0.000 A 
ATOM      9  N   UNL     1       2.301   2.452  21.197  0.00  0.00    +0.000 N 
ATOM     10  C   UNL     1       1.189   3.248  21.096  0.00  0.00    +0.000 A 
ATOM     11  N   UNL     1       1.355   4.214  20.211  0.00  0.00    +0.000 NA
ATOM     12  C   UNL     1       2.616   4.025  19.733  0.00  0.00    +0.000 A 
ATOM     13  H   UNL     1       6.059   3.088  18.777  0.00  0.00    +0.000 HD
ATOM     14  H   UNL     1       2.423   1.649  21.802  0.00  0.00    +0.000 HD
ENDROOT
TORSDOF 0
ENDMDL
MODEL 7
REMARK VINA RESULT:      -5.6      3.320      3.946
REMARK  Name = 
REMARK  1 active torsions:
REMARK  status: ('A' for Active; 'I' for Inactive)
REMARK    1  A    between atoms: C_1  and  N_2
REMARK                            x       y       z     vdW  Elec       q    Type
REMARK                         _______ _______ _______ _____ _____    ______ ____
ROOT
ATOM      1  C   UNL     1       5.080   4.443  15.278  0.00  0.00    +0.000 C 
ATOM      2  N   UNL     1       5.674   4.727  16.569  0.00  0.00    +0.000 N 
ATOM      3  C   UNL     1       7.058   4.740  16.724  0.00  0.00    +0.000 A 
ATOM      4  O   UNL     1       7.856   4.521  15.812  0.00  0.00    +0.000 OA
ATOM      5  N   UNL     1       7.552   5.018  17.987  0.00  0.00    +0.000 N 
ATOM      6  C   UNL     1       6.827   5.287  19.125  0.00  0.00    +0.000 A 
ATOM      7  O   UNL     1       7.343   5.525  20.210  0.00  0.00    +0.000 OA
ATOM      8  C   UNL     1       5.431   5.256  18.889  0.00  0.00    +0.000 A 
ATOM      9  N   UNL     1       4.376   5.463  19.727  0.00  0.00    +0.000 N 
ATOM     10  C   UNL     1       3.242   5.310  18.972  0.00  0.00    +0.000 A 
ATOM     11  N   UNL     1       3.523   5.020  17.715  0.00  0.00    +0.000 NA
ATOM     12  C   UNL     1       4.884   4.989  17.669  0.00  0.00    +0.000 A 
ATOM     13  H   UNL     1       8.555   5.023  18.076  0.00  0.00    +0.000 HD
ATOM     14  H   UNL     1       4.426   5.686  20.713  0.00  0.00    +0.000 HD
ENDROOT
TORSDOF 0
ENDMDL
MODEL 8
REMARK VINA RESULT:      -5.6      2.098      2.601
REMARK  Name = 
REMARK  1 active torsions:
REMARK  status: ('A' for Active; 'I' for Inactive)
REMARK    1  A    between atoms: C_1  and  N_2
REMARK                            x       y       z     vdW  Elec       q    Type
REMARK                         _______ _______ _______ _____ _____    ______ ____
ROOT
ATOM      1  C   UNL     1       1.312   2.150  18.951  0.00  0.00    +0.000 C 
ATOM      2  N   UNL     1       2.594   2.818  19.048  0.00  0.00    +0.000 N 
ATOM      3  C   UNL     1       3.774   2.128  18.786  0.00  0.00    +0.000 A 
ATOM      4  O   UNL     1       3.821   0.940  18.463  0.00  0.00    +0.000 OA
ATOM      5  N   UNL     1       4.961   2.832  18.901  0.00  0.00    +0.000 N 
ATOM      6  C   UNL     1       5.114   4.155  19.248  0.00  0.00    +0.000 A 
ATOM      7  O   UNL     1       6.205   4.706  19.327  0.00  0.00    +0.000 OA
ATOM      8  C   UNL     1       3.873   4.789  19.498  0.00  0.00    +0.000 A 
ATOM      9  N   UNL     1       3.579   6.069  19.862  0.00  0.00    +0.000 N 
ATOM     10  C   UNL     1       2.213   6.140  19.970  0.00  0.00    +0.000 A 
ATOM     11  N   UNL     1       1.637   4.984  19.695  0.00  0.00    +0.000 NA
ATOM     12  C   UNL     1       2.672   4.149  19.403  0.00  0.00    +0.000 A 
ATOM     13  H   UNL     1       5.801   2.313  18.706  0.00  0.00    +0.000 HD
ATOM     14  H   UNL     1       4.242   6.817  20.021  0.00  0.00    +0.000 HD
ENDROOT
TORSDOF 0
ENDMDL
MODEL 9
REMARK VINA RESULT:      -5.5      2.398      3.472
REMARK  Name = 
REMARK  1 active torsions:
REMARK  status: ('A' for Active; 'I' for Inactive)
REMARK    1  A    between atoms: C_1  and  N_2
REMARK                            x       y       z     vdW  Elec       q    Type
REMARK                         _______ _______ _______ _____ _____    ______ ____
ROOT
ATOM      1  C   UNL     1       1.929   5.747  20.443  0.00  0.00    +0.000 C 
ATOM      2  N   UNL     1       2.449   4.501  19.916  0.00  0.00    +0.000 N 
ATOM      3  C   UNL     1       1.639   3.372  19.838  0.00  0.00    +0.000 A 
ATOM      4  O   UNL     1       0.460   3.343  20.196  0.00  0.00    +0.000 OA
ATOM      5  N   UNL     1       2.206   2.218  19.324  0.00  0.00    +0.000 N 
ATOM      6  C   UNL     1       3.495   2.053  18.874  0.00  0.00    +0.000 A 
ATOM      7  O   UNL     1       3.921   0.993  18.431  0.00  0.00    +0.000 OA
ATOM      8  C   UNL     1       4.257   3.241  18.984  0.00  0.00    +0.000 A 
ATOM      9  N   UNL     1       5.552   3.508  18.658  0.00  0.00    +0.000 N 
ATOM     10  C   UNL     1       5.772   4.825  18.975  0.00  0.00    +0.000 A 
ATOM     11  N   UNL     1       4.693   5.395  19.479  0.00  0.00    +0.000 NA
ATOM     12  C   UNL     1       3.755   4.408  19.481  0.00  0.00    +0.000 A 
ATOM     13  H   UNL     1       1.601   1.414  19.276  0.00  0.00    +0.000 HD
ATOM     14  H   UNL     1       6.219   2.858  18.260  0.00  0.00    +0.000 HD
ENDROOT
TORSDOF 0
ENDMDL
