MODEL 1
REMARK VINA RESULT:      -9.0      0.000      0.000
REMARK  Name = 
REMARK  5 active torsions:
REMARK  status: ('A' for Active; 'I' for Inactive)
REMARK    1  A    between atoms: C_1  and  C_2
REMARK    2  A    between atoms: C_5  and  C_6
REMARK    3  A    between atoms: C_6  and  N_7
REMARK    4  A    between atoms: C_10  and  C_11
REMARK    5  A    between atoms: C_11  and  N_12
REMARK                            x       y       z     vdW  Elec       q    Type
REMARK                         _______ _______ _______ _____ _____    ______ ____
ROOT
ATOM      1  N   UNL     1       0.914  11.247  19.578  0.00  0.00    +0.000 N 
ATOM      2  C   UNL     1       1.574  11.172  18.398  0.00  0.00    +0.000 A 
ATOM      3  C   UNL     1       2.059   9.957  17.940  0.00  0.00    +0.000 A 
ATOM      4  C   UNL     1       1.832   8.790  18.662  0.00  0.00    +0.000 A 
ATOM      5  C   UNL     1       1.209   8.898  19.912  0.00  0.00    +0.000 A 
ATOM      6  C   UNL     1       0.761  10.145  20.351  0.00  0.00    +0.000 A 
ENDROOT
BRANCH   1   7
ATOM      7  C   UNL     1       0.221  12.504  19.919  0.00  0.00    +0.000 C 
BRANCH   7  12
ATOM      8  C   UNL     1      -5.579  12.467  19.446  0.00  0.00    +0.000 C 
ATOM      9  C   UNL     1      -4.094  12.363  19.613  0.00  0.00    +0.000 A 
ATOM     10  C   UNL     1      -3.466  12.875  20.759  0.00  0.00    +0.000 A 
ATOM     11  C   UNL     1      -2.080  12.886  20.867  0.00  0.00    +0.000 A 
ATOM     12  C   UNL     1      -1.283  12.378  19.827  0.00  0.00    +0.000 A 
ATOM     13  C   UNL     1      -1.903  11.849  18.685  0.00  0.00    +0.000 A 
ATOM     14  C   UNL     1      -3.288  11.847  18.591  0.00  0.00    +0.000 A 
ENDBRANCH   7  12
ENDBRANCH   1   7
BRANCH   4  15
ATOM     15  C   UNL     1       1.998   7.449  17.975  0.00  0.00    +0.000 C 
BRANCH  15  16
ATOM     16  N   UNL     1       2.952   6.461  18.518  0.00  0.00    +0.000 N 
ATOM     17  C   UNL     1       3.927   6.006  17.621  0.00  0.00    +0.000 A 
ATOM     18  C   UNL     1       4.857   6.701  16.835  0.00  0.00    +0.000 A 
ATOM     19  C   UNL     1       5.661   5.952  15.973  0.00  0.00    +0.000 A 
ATOM     20  C   UNL     1       5.524   4.567  15.888  0.00  0.00    +0.000 A 
ATOM     21  C   UNL     1       4.513   3.904  16.594  0.00  0.00    +0.000 A 
ATOM     22  C   UNL     1       3.679   4.639  17.458  0.00  0.00    +0.000 A 
ATOM     23  C   UNL     1       2.557   4.331  18.288  0.00  0.00    +0.000 A 
ATOM     24  C   UNL     1       1.632   3.288  18.425  0.00  0.00    +0.000 A 
ATOM     25  C   UNL     1       0.913   3.199  19.622  0.00  0.00    +0.000 A 
ATOM     26  C   UNL     1       1.214   4.045  20.695  0.00  0.00    +0.000 A 
ATOM     27  C   UNL     1       2.029   5.167  20.521  0.00  0.00    +0.000 A 
ATOM     28  C   UNL     1       2.536   5.351  19.234  0.00  0.00    +0.000 A 
ENDBRANCH  15  16
ENDBRANCH   4  15
TORSDOF 4
ENDMDL
MODEL 2
REMARK VINA RESULT:      -8.9      1.378      3.187
REMARK  Name = 
REMARK  5 active torsions:
REMARK  status: ('A' for Active; 'I' for Inactive)
REMARK    1  A    between atoms: C_1  and  C_2
REMARK    2  A    between atoms: C_5  and  C_6
REMARK    3  A    between atoms: C_6  and  N_7
REMARK    4  A    between atoms: C_10  and  C_11
REMARK    5  A    between atoms: C_11  and  N_12
REMARK                            x       y       z     vdW  Elec       q    Type
REMARK                         _______ _______ _______ _____ _____    ______ ____
ROOT
ATOM      1  N   UNL     1       0.924  10.455  18.884  0.00  0.00    +0.000 N 
ATOM      2  C   UNL     1       1.607   9.822  17.901  0.00  0.00    +0.000 A 
ATOM      3  C   UNL     1       2.210   8.598  18.142  0.00  0.00    +0.000 A 
ATOM      4  C   UNL     1       2.081   7.978  19.380  0.00  0.00    +0.000 A 
ATOM      5  C   UNL     1       1.430   8.680  20.403  0.00  0.00    +0.000 A 
ATOM      6  C   UNL     1       0.860   9.924  20.128  0.00  0.00    +0.000 A 
ENDROOT
BRANCH   1   7
ATOM      7  C   UNL     1       0.110  11.634  18.531  0.00  0.00    +0.000 C 
BRANCH   7  12
ATOM      8  C   UNL     1      -5.612  10.771  17.925  0.00  0.00    +0.000 C 
ATOM      9  C   UNL     1      -4.140  10.906  18.167  0.00  0.00    +0.000 A 
ATOM     10  C   UNL     1      -3.646  11.885  19.042  0.00  0.00    +0.000 A 
ATOM     11  C   UNL     1      -2.278  12.091  19.182  0.00  0.00    +0.000 A 
ATOM     12  C   UNL     1      -1.365  11.316  18.447  0.00  0.00    +0.000 A 
ATOM     13  C   UNL     1      -1.850  10.323  17.582  0.00  0.00    +0.000 A 
ATOM     14  C   UNL     1      -3.219  10.131  17.452  0.00  0.00    +0.000 A 
ENDBRANCH   7  12
ENDBRANCH   1   7
BRANCH   4  15
ATOM     15  C   UNL     1       2.382   6.498  19.504  0.00  0.00    +0.000 C 
BRANCH  15  16
ATOM     16  N   UNL     1       2.821   5.737  18.317  0.00  0.00    +0.000 N 
ATOM     17  C   UNL     1       2.502   4.374  18.321  0.00  0.00    +0.000 A 
ATOM     18  C   UNL     1       1.277   3.711  18.483  0.00  0.00    +0.000 A 
ATOM     19  C   UNL     1       1.298   2.315  18.510  0.00  0.00    +0.000 A 
ATOM     20  C   UNL     1       2.497   1.613  18.399  0.00  0.00    +0.000 A 
ATOM     21  C   UNL     1       3.721   2.293  18.354  0.00  0.00    +0.000 A 
ATOM     22  C   UNL     1       3.728   3.701  18.341  0.00  0.00    +0.000 A 
ATOM     23  C   UNL     1       4.741   4.709  18.335  0.00  0.00    +0.000 A 
ATOM     24  C   UNL     1       6.114   4.792  18.602  0.00  0.00    +0.000 A 
ATOM     25  C   UNL     1       6.814   5.899  18.108  0.00  0.00    +0.000 A 
ATOM     26  C   UNL     1       6.185   6.815  17.260  0.00  0.00    +0.000 A 
ATOM     27  C   UNL     1       4.796   6.817  17.104  0.00  0.00    +0.000 A 
ATOM     28  C   UNL     1       4.108   5.833  17.814  0.00  0.00    +0.000 A 
ENDBRANCH  15  16
ENDBRANCH   4  15
TORSDOF 4
ENDMDL
MODEL 3
REMARK VINA RESULT:      -8.9      1.012      1.523
REMARK  Name = 
REMARK  5 active torsions:
REMARK  status: ('A' for Active; 'I' for Inactive)
REMARK    1  A    between atoms: C_1  and  C_2
REMARK    2  A    between atoms: C_5  and  C_6
REMARK    3  A    between atoms: C_6  and  N_7
REMARK    4  A    between atoms: C_10  and  C_11
REMARK    5  A    between atoms: C_11  and  N_12
REMARK                            x       y       z     vdW  Elec       q    Type
REMARK                         _______ _______ _______ _____ _____    ______ ____
ROOT
ATOM      1  N   UNL     1       0.895  11.345  19.512  0.00  0.00    +0.000 N 
ATOM      2  C   UNL     1       1.655  11.263  18.393  0.00  0.00    +0.000 A 
ATOM      3  C   UNL     1       2.136  10.038  17.960  0.00  0.00    +0.000 A 
ATOM      4  C   UNL     1       1.805   8.869  18.638  0.00  0.00    +0.000 A 
ATOM      5  C   UNL     1       1.078   8.983  19.830  0.00  0.00    +0.000 A 
ATOM      6  C   UNL     1       0.636  10.239  20.249  0.00  0.00    +0.000 A 
ENDROOT
BRANCH   1   7
ATOM      7  C   UNL     1       0.218  12.621  19.812  0.00  0.00    +0.000 C 
BRANCH   7  12
ATOM      8  C   UNL     1      -3.869  12.485  23.952  0.00  0.00    +0.000 C 
ATOM      9  C   UNL     1      -2.832  12.399  22.875  0.00  0.00    +0.000 A 
ATOM     10  C   UNL     1      -1.471  12.286  23.199  0.00  0.00    +0.000 A 
ATOM     11  C   UNL     1      -0.497  12.322  22.207  0.00  0.00    +0.000 A 
ATOM     12  C   UNL     1      -0.862  12.470  20.859  0.00  0.00    +0.000 A 
ATOM     13  C   UNL     1      -2.222  12.567  20.524  0.00  0.00    +0.000 A 
ATOM     14  C   UNL     1      -3.183  12.531  21.525  0.00  0.00    +0.000 A 
ENDBRANCH   7  12
ENDBRANCH   1   7
BRANCH   4  15
ATOM     15  C   UNL     1       1.985   7.533  17.946  0.00  0.00    +0.000 C 
BRANCH  15  16
ATOM     16  N   UNL     1       2.929   6.542  18.500  0.00  0.00    +0.000 N 
ATOM     17  C   UNL     1       3.903   6.072  17.611  0.00  0.00    +0.000 A 
ATOM     18  C   UNL     1       4.842   6.753  16.823  0.00  0.00    +0.000 A 
ATOM     19  C   UNL     1       5.643   5.990  15.970  0.00  0.00    +0.000 A 
ATOM     20  C   UNL     1       5.495   4.605  15.896  0.00  0.00    +0.000 A 
ATOM     21  C   UNL     1       4.475   3.956  16.603  0.00  0.00    +0.000 A 
ATOM     22  C   UNL     1       3.645   4.706  17.458  0.00  0.00    +0.000 A 
ATOM     23  C   UNL     1       2.517   4.414  18.286  0.00  0.00    +0.000 A 
ATOM     24  C   UNL     1       1.582   3.379  18.428  0.00  0.00    +0.000 A 
ATOM     25  C   UNL     1       0.858   3.307  19.623  0.00  0.00    +0.000 A 
ATOM     26  C   UNL     1       1.162   4.158  20.690  0.00  0.00    +0.000 A 
ATOM     27  C   UNL     1       1.987   5.272  20.510  0.00  0.00    +0.000 A 
ATOM     28  C   UNL     1       2.501   5.441  19.224  0.00  0.00    +0.000 A 
ENDBRANCH  15  16
ENDBRANCH   4  15
TORSDOF 4
ENDMDL
MODEL 4
REMARK VINA RESULT:      -8.9      1.337      3.265
REMARK  Name = 
REMARK  5 active torsions:
REMARK  status: ('A' for Active; 'I' for Inactive)
REMARK    1  A    between atoms: C_1  and  C_2
REMARK    2  A    between atoms: C_5  and  C_6
REMARK    3  A    between atoms: C_6  and  N_7
REMARK    4  A    between atoms: C_10  and  C_11
REMARK    5  A    between atoms: C_11  and  N_12
REMARK                            x       y       z     vdW  Elec       q    Type
REMARK                         _______ _______ _______ _____ _____    ______ ____
ROOT
ATOM      1  N   UNL     1       0.583  10.164  19.366  0.00  0.00    +0.000 N 
ATOM      2  C   UNL     1       0.715   9.372  20.456  0.00  0.00    +0.000 A 
ATOM      3  C   UNL     1       1.452   8.200  20.388  0.00  0.00    +0.000 A 
ATOM      4  C   UNL     1       2.108   7.847  19.214  0.00  0.00    +0.000 A 
ATOM      5  C   UNL     1       1.903   8.643  18.079  0.00  0.00    +0.000 A 
ATOM      6  C   UNL     1       1.129   9.800  18.182  0.00  0.00    +0.000 A 
ENDROOT
BRANCH   1   7
ATOM      7  C   UNL     1      -0.012  11.504  19.535  0.00  0.00    +0.000 C 
BRANCH   7  12
ATOM      8  C   UNL     1      -5.641  11.986  18.142  0.00  0.00    +0.000 C 
ATOM      9  C   UNL     1      -4.222  11.763  18.566  0.00  0.00    +0.000 A 
ATOM     10  C   UNL     1      -3.689  12.449  19.669  0.00  0.00    +0.000 A 
ATOM     11  C   UNL     1      -2.342  12.334  19.998  0.00  0.00    +0.000 A 
ATOM     12  C   UNL     1      -1.491  11.524  19.228  0.00  0.00    +0.000 A 
ATOM     13  C   UNL     1      -2.019  10.821  18.133  0.00  0.00    +0.000 A 
ATOM     14  C   UNL     1      -3.365  10.948  17.817  0.00  0.00    +0.000 A 
ENDBRANCH   7  12
ENDBRANCH   1   7
BRANCH   4  15
ATOM     15  C   UNL     1       3.215   6.813  19.265  0.00  0.00    +0.000 C 
BRANCH  15  16
ATOM     16  N   UNL     1       3.565   6.052  18.048  0.00  0.00    +0.000 N 
ATOM     17  C   UNL     1       3.043   4.755  17.976  0.00  0.00    +0.000 A 
ATOM     18  C   UNL     1       1.728   4.279  18.081  0.00  0.00    +0.000 A 
ATOM     19  C   UNL     1       1.538   2.896  18.037  0.00  0.00    +0.000 A 
ATOM     20  C   UNL     1       2.620   2.026  17.912  0.00  0.00    +0.000 A 
ATOM     21  C   UNL     1       3.934   2.514  17.924  0.00  0.00    +0.000 A 
ATOM     22  C   UNL     1       4.153   3.903  17.984  0.00  0.00    +0.000 A 
ATOM     23  C   UNL     1       5.306   4.745  18.049  0.00  0.00    +0.000 A 
ATOM     24  C   UNL     1       6.669   4.605  18.345  0.00  0.00    +0.000 A 
ATOM     25  C   UNL     1       7.541   5.615  17.922  0.00  0.00    +0.000 A 
ATOM     26  C   UNL     1       7.080   6.656  17.111  0.00  0.00    +0.000 A 
ATOM     27  C   UNL     1       5.712   6.877  16.930  0.00  0.00    +0.000 A 
ATOM     28  C   UNL     1       4.864   5.976  17.575  0.00  0.00    +0.000 A 
ENDBRANCH  15  16
ENDBRANCH   4  15
TORSDOF 4
ENDMDL
MODEL 5
REMARK VINA RESULT:      -8.9      1.192      1.393
REMARK  Name = 
REMARK  5 active torsions:
REMARK  status: ('A' for Active; 'I' for Inactive)
REMARK    1  A    between atoms: C_1  and  C_2
REMARK    2  A    between atoms: C_5  and  C_6
REMARK    3  A    between atoms: C_6  and  N_7
REMARK    4  A    between atoms: C_10  and  C_11
REMARK    5  A    between atoms: C_11  and  N_12
REMARK                            x       y       z     vdW  Elec       q    Type
REMARK                         _______ _______ _______ _____ _____    ______ ____
ROOT
ATOM      1  N   UNL     1       1.107  10.150  19.435  0.00  0.00    +0.000 N 
ATOM      2  C   UNL     1       1.685  10.082  18.212  0.00  0.00    +0.000 A 
ATOM      3  C   UNL     1       2.259   8.900  17.772  0.00  0.00    +0.000 A 
ATOM      4  C   UNL     1       2.205   7.754  18.558  0.00  0.00    +0.000 A 
ATOM      5  C   UNL     1       1.665   7.863  19.846  0.00  0.00    +0.000 A 
ATOM      6  C   UNL     1       1.123   9.080  20.263  0.00  0.00    +0.000 A 
ENDROOT
BRANCH   1   7
ATOM      7  C   UNL     1       0.314  11.348  19.773  0.00  0.00    +0.000 C 
BRANCH   7  12
ATOM      8  C   UNL     1      -5.054  11.421  17.529  0.00  0.00    +0.000 C 
ATOM      9  C   UNL     1      -3.710  11.312  18.180  0.00  0.00    +0.000 A 
ATOM     10  C   UNL     1      -3.362  12.154  19.247  0.00  0.00    +0.000 A 
ATOM     11  C   UNL     1      -2.077  12.136  19.779  0.00  0.00    +0.000 A 
ATOM     12  C   UNL     1      -1.104  11.268  19.255  0.00  0.00    +0.000 A 
ATOM     13  C   UNL     1      -1.448  10.411  18.198  0.00  0.00    +0.000 A 
ATOM     14  C   UNL     1      -2.734  10.441  17.677  0.00  0.00    +0.000 A 
ENDBRANCH   7  12
ENDBRANCH   1   7
BRANCH   4  15
ATOM     15  C   UNL     1       2.458   6.403  17.919  0.00  0.00    +0.000 C 
BRANCH  15  16
ATOM     16  N   UNL     1       3.581   5.567  18.392  0.00  0.00    +0.000 N 
ATOM     17  C   UNL     1       4.648   5.427  17.496  0.00  0.00    +0.000 A 
ATOM     18  C   UNL     1       5.436   6.382  16.839  0.00  0.00    +0.000 A 
ATOM     19  C   UNL     1       6.396   5.917  15.937  0.00  0.00    +0.000 A 
ATOM     20  C   UNL     1       6.546   4.553  15.691  0.00  0.00    +0.000 A 
ATOM     21  C   UNL     1       5.674   3.621  16.270  0.00  0.00    +0.000 A 
ATOM     22  C   UNL     1       4.688   4.068  17.170  0.00  0.00    +0.000 A 
ATOM     23  C   UNL     1       3.633   3.445  17.906  0.00  0.00    +0.000 A 
ATOM     24  C   UNL     1       2.937   2.229  17.881  0.00  0.00    +0.000 A 
ATOM     25  C   UNL     1       2.223   1.857  19.026  0.00  0.00    +0.000 A 
ATOM     26  C   UNL     1       2.320   2.611  20.200  0.00  0.00    +0.000 A 
ATOM     27  C   UNL     1       2.893   3.886  20.191  0.00  0.00    +0.000 A 
ATOM     28  C   UNL     1       3.383   4.319  18.959  0.00  0.00    +0.000 A 
ENDBRANCH  15  16
ENDBRANCH   4  15
TORSDOF 4
ENDMDL
MODEL 6
REMARK VINA RESULT:      -8.8      1.232      3.328
REMARK  Name = 
REMARK  5 active torsions:
REMARK  status: ('A' for Active; 'I' for Inactive)
REMARK    1  A    between atoms: C_1  and  C_2
REMARK    2  A    between atoms: C_5  and  C_6
REMARK    3  A    between atoms: C_6  and  N_7
REMARK    4  A    between atoms: C_10  and  C_11
REMARK    5  A    between atoms: C_11  and  N_12
REMARK                            x       y       z     vdW  Elec       q    Type
REMARK                         _______ _______ _______ _____ _____    ______ ____
ROOT
ATOM      1  N   UNL     1       0.913  10.476  19.067  0.00  0.00    +0.000 N 
ATOM      2  C   UNL     1       0.784   9.665  20.145  0.00  0.00    +0.000 A 
ATOM      3  C   UNL     1       1.351   8.401  20.143  0.00  0.00    +0.000 A 
ATOM      4  C   UNL     1       2.101   7.965  19.056  0.00  0.00    +0.000 A 
ATOM      5  C   UNL     1       2.163   8.790  17.925  0.00  0.00    +0.000 A 
ATOM      6  C   UNL     1       1.554  10.045  17.956  0.00  0.00    +0.000 A 
ENDROOT
BRANCH   1   7
ATOM      7  C   UNL     1       0.496  11.886  19.193  0.00  0.00    +0.000 C 
BRANCH   7  12
ATOM      8  C   UNL     1      -5.319  12.068  19.316  0.00  0.00    +0.000 C 
ATOM      9  C   UNL     1      -3.824  12.134  19.236  0.00  0.00    +0.000 A 
ATOM     10  C   UNL     1      -3.142  11.581  18.141  0.00  0.00    +0.000 A 
ATOM     11  C   UNL     1      -1.752  11.536  18.117  0.00  0.00    +0.000 A 
ATOM     12  C   UNL     1      -1.006  12.048  19.192  0.00  0.00    +0.000 A 
ATOM     13  C   UNL     1      -1.681  12.618  20.283  0.00  0.00    +0.000 A 
ATOM     14  C   UNL     1      -3.068  12.654  20.294  0.00  0.00    +0.000 A 
ENDBRANCH   7  12
ENDBRANCH   1   7
BRANCH   4  15
ATOM     15  C   UNL     1       3.034   6.782  19.224  0.00  0.00    +0.000 C 
BRANCH  15  16
ATOM     16  N   UNL     1       3.427   5.986  18.045  0.00  0.00    +0.000 N 
ATOM     17  C   UNL     1       2.955   4.668  18.020  0.00  0.00    +0.000 A 
ATOM     18  C   UNL     1       1.657   4.148  18.129  0.00  0.00    +0.000 A 
ATOM     19  C   UNL     1       1.517   2.759  18.140  0.00  0.00    +0.000 A 
ATOM     20  C   UNL     1       2.633   1.925  18.065  0.00  0.00    +0.000 A 
ATOM     21  C   UNL     1       3.927   2.461  18.072  0.00  0.00    +0.000 A 
ATOM     22  C   UNL     1       4.094   3.859  18.077  0.00  0.00    +0.000 A 
ATOM     23  C   UNL     1       5.215   4.744  18.121  0.00  0.00    +0.000 A 
ATOM     24  C   UNL     1       6.578   4.667  18.439  0.00  0.00    +0.000 A 
ATOM     25  C   UNL     1       7.418   5.691  17.985  0.00  0.00    +0.000 A 
ATOM     26  C   UNL     1       6.931   6.680  17.126  0.00  0.00    +0.000 A 
ATOM     27  C   UNL     1       5.558   6.842  16.919  0.00  0.00    +0.000 A 
ATOM     28  C   UNL     1       4.735   5.938  17.591  0.00  0.00    +0.000 A 
ENDBRANCH  15  16
ENDBRANCH   4  15
TORSDOF 4
ENDMDL
MODEL 7
REMARK VINA RESULT:      -8.7      1.228      1.748
REMARK  Name = 
REMARK  5 active torsions:
REMARK  status: ('A' for Active; 'I' for Inactive)
REMARK    1  A    between atoms: C_1  and  C_2
REMARK    2  A    between atoms: C_5  and  C_6
REMARK    3  A    between atoms: C_6  and  N_7
REMARK    4  A    between atoms: C_10  and  C_11
REMARK    5  A    between atoms: C_11  and  N_12
REMARK                            x       y       z     vdW  Elec       q    Type
REMARK                         _______ _______ _______ _____ _____    ______ ____
ROOT
ATOM      1  N   UNL     1       0.758  10.647  20.382  0.00  0.00    +0.000 N 
ATOM      2  C   UNL     1       1.213   9.499  20.939  0.00  0.00    +0.000 A 
ATOM      3  C   UNL     1       1.575   8.426  20.140  0.00  0.00    +0.000 A 
ATOM      4  C   UNL     1       1.522   8.529  18.754  0.00  0.00    +0.000 A 
ATOM      5  C   UNL     1       0.983   9.698  18.200  0.00  0.00    +0.000 A 
ATOM      6  C   UNL     1       0.603  10.745  19.040  0.00  0.00    +0.000 A 
ENDROOT
BRANCH   1   7
ATOM      7  C   UNL     1       0.601  11.834  21.243  0.00  0.00    +0.000 C 
BRANCH   7  12
ATOM      8  C   UNL     1      -4.777  13.076  23.086  0.00  0.00    +0.000 C 
ATOM      9  C   UNL     1      -3.440  12.659  22.555  0.00  0.00    +0.000 A 
ATOM     10  C   UNL     1      -2.567  11.890  23.340  0.00  0.00    +0.000 A 
ATOM     11  C   UNL     1      -1.281  11.598  22.898  0.00  0.00    +0.000 A 
ATOM     12  C   UNL     1      -0.835  12.068  21.651  0.00  0.00    +0.000 A 
ATOM     13  C   UNL     1      -1.708  12.824  20.852  0.00  0.00    +0.000 A 
ATOM     14  C   UNL     1      -2.988  13.108  21.308  0.00  0.00    +0.000 A 
ENDBRANCH   7  12
ENDBRANCH   1   7
BRANCH   4  15
ATOM     15  C   UNL     1       2.286   7.532  17.906  0.00  0.00    +0.000 C 
BRANCH  15  16
ATOM     16  N   UNL     1       3.120   6.502  18.559  0.00  0.00    +0.000 N 
ATOM     17  C   UNL     1       4.228   6.066  17.823  0.00  0.00    +0.000 A 
ATOM     18  C   UNL     1       5.289   6.775  17.241  0.00  0.00    +0.000 A 
ATOM     19  C   UNL     1       6.219   6.047  16.496  0.00  0.00    +0.000 A 
ATOM     20  C   UNL     1       6.082   4.670  16.325  0.00  0.00    +0.000 A 
ATOM     21  C   UNL     1       4.955   3.998  16.817  0.00  0.00    +0.000 A 
ATOM     22  C   UNL     1       3.995   4.713  17.558  0.00  0.00    +0.000 A 
ATOM     23  C   UNL     1       2.742   4.393  18.168  0.00  0.00    +0.000 A 
ATOM     24  C   UNL     1       1.794   3.363  18.096  0.00  0.00    +0.000 A 
ATOM     25  C   UNL     1       0.879   3.239  19.148  0.00  0.00    +0.000 A 
ATOM     26  C   UNL     1       1.001   4.031  20.293  0.00  0.00    +0.000 A 
ATOM     27  C   UNL     1       1.848   5.142  20.313  0.00  0.00    +0.000 A 
ATOM     28  C   UNL     1       2.572   5.371  19.142  0.00  0.00    +0.000 A 
ENDBRANCH  15  16
ENDBRANCH   4  15
TORSDOF 4
ENDMDL
MODEL 8
REMARK VINA RESULT:      -8.7      1.718      3.580
REMARK  Name = 
REMARK  5 active torsions:
REMARK  status: ('A' for Active; 'I' for Inactive)
REMARK    1  A    between atoms: C_1  and  C_2
REMARK    2  A    between atoms: C_5  and  C_6
REMARK    3  A    between atoms: C_6  and  N_7
REMARK    4  A    between atoms: C_10  and  C_11
REMARK    5  A    between atoms: C_11  and  N_12
REMARK                            x       y       z     vdW  Elec       q    Type
REMARK                         _______ _______ _______ _____ _____    ______ ____
ROOT
ATOM      1  N   UNL     1       0.138   9.987  19.939  0.00  0.00    +0.000 N 
ATOM      2  C   UNL     1       1.033   9.782  18.943  0.00  0.00    +0.000 A 
ATOM      3  C   UNL     1       1.923   8.722  19.007  0.00  0.00    +0.000 A 
ATOM      4  C   UNL     1       1.877   7.824  20.068  0.00  0.00    +0.000 A 
ATOM      5  C   UNL     1       0.991   8.093  21.120  0.00  0.00    +0.000 A 
ATOM      6  C   UNL     1       0.131   9.188  21.032  0.00  0.00    +0.000 A 
ENDROOT
BRANCH   1   7
ATOM      7  C   UNL     1      -0.934  10.980  19.730  0.00  0.00    +0.000 C 
BRANCH   7  12
ATOM      8  C   UNL     1      -3.837  10.301  14.732  0.00  0.00    +0.000 C 
ATOM      9  C   UNL     1      -3.158  10.386  16.065  0.00  0.00    +0.000 A 
ATOM     10  C   UNL     1      -3.577  11.323  17.022  0.00  0.00    +0.000 A 
ATOM     11  C   UNL     1      -2.879  11.485  18.214  0.00  0.00    +0.000 A 
ATOM     12  C   UNL     1      -1.740  10.707  18.481  0.00  0.00    +0.000 A 
ATOM     13  C   UNL     1      -1.324   9.756  17.536  0.00  0.00    +0.000 A 
ATOM     14  C   UNL     1      -2.030   9.607  16.350  0.00  0.00    +0.000 A 
ENDBRANCH   7  12
ENDBRANCH   1   7
BRANCH   4  15
ATOM     15  C   UNL     1       2.553   6.475  19.928  0.00  0.00    +0.000 C 
BRANCH  15  16
ATOM     16  N   UNL     1       2.721   5.874  18.589  0.00  0.00    +0.000 N 
ATOM     17  C   UNL     1       2.333   4.533  18.476  0.00  0.00    +0.000 A 
ATOM     18  C   UNL     1       1.125   3.891  18.780  0.00  0.00    +0.000 A 
ATOM     19  C   UNL     1       1.073   2.505  18.619  0.00  0.00    +0.000 A 
ATOM     20  C   UNL     1       2.191   1.790  18.190  0.00  0.00    +0.000 A 
ATOM     21  C   UNL     1       3.421   2.434  18.001  0.00  0.00    +0.000 A 
ATOM     22  C   UNL     1       3.503   3.829  18.172  0.00  0.00    +0.000 A 
ATOM     23  C   UNL     1       4.551   4.798  18.106  0.00  0.00    +0.000 A 
ATOM     24  C   UNL     1       5.953   4.802  18.114  0.00  0.00    +0.000 A 
ATOM     25  C   UNL     1       6.609   5.946  17.645  0.00  0.00    +0.000 A 
ATOM     26  C   UNL     1       5.886   6.990  17.060  0.00  0.00    +0.000 A 
ATOM     27  C   UNL     1       4.494   7.054  17.174  0.00  0.00    +0.000 A 
ATOM     28  C   UNL     1       3.896   6.001  17.867  0.00  0.00    +0.000 A 
ENDBRANCH  15  16
ENDBRANCH   4  15
TORSDOF 4
ENDMDL
MODEL 9
REMARK VINA RESULT:      -8.7      2.290      4.738
REMARK  Name = 
REMARK  5 active torsions:
REMARK  status: ('A' for Active; 'I' for Inactive)
REMARK    1  A    between atoms: C_1  and  C_2
REMARK    2  A    between atoms: C_5  and  C_6
REMARK    3  A    between atoms: C_6  and  N_7
REMARK    4  A    between atoms: C_10  and  C_11
REMARK    5  A    between atoms: C_11  and  N_12
REMARK                            x       y       z     vdW  Elec       q    Type
REMARK                         _______ _______ _______ _____ _____    ______ ____
ROOT
ATOM      1  N   UNL     1       0.864  10.368  19.084  0.00  0.00    +0.000 N 
ATOM      2  C   UNL     1       0.900   9.653  20.234  0.00  0.00    +0.000 A 
ATOM      3  C   UNL     1       1.467   8.389  20.256  0.00  0.00    +0.000 A 
ATOM      4  C   UNL     1       2.052   7.857  19.113  0.00  0.00    +0.000 A 
ATOM      5  C   UNL     1       1.943   8.582  17.918  0.00  0.00    +0.000 A 
ATOM      6  C   UNL     1       1.338   9.840  17.931  0.00  0.00    +0.000 A 
ENDROOT
BRANCH   1   7
ATOM      7  C   UNL     1       0.462  11.786  19.149  0.00  0.00    +0.000 C 
BRANCH   7  12
ATOM      8  C   UNL     1       4.719  15.710  19.733  0.00  0.00    +0.000 C 
ATOM      9  C   UNL     1       3.708  14.613  19.596  0.00  0.00    +0.000 A 
ATOM     10  C   UNL     1       3.315  14.158  18.328  0.00  0.00    +0.000 A 
ATOM     11  C   UNL     1       2.294  13.222  18.192  0.00  0.00    +0.000 A 
ATOM     12  C   UNL     1       1.641  12.715  19.327  0.00  0.00    +0.000 A 
ATOM     13  C   UNL     1       2.040  13.152  20.600  0.00  0.00    +0.000 A 
ATOM     14  C   UNL     1       3.059  14.087  20.720  0.00  0.00    +0.000 A 
ENDBRANCH   7  12
ENDBRANCH   1   7
BRANCH   4  15
ATOM     15  C   UNL     1       3.007   6.687  19.242  0.00  0.00    +0.000 C 
BRANCH  15  16
ATOM     16  N   UNL     1       3.337   5.875  18.054  0.00  0.00    +0.000 N 
ATOM     17  C   UNL     1       2.857   4.559  18.068  0.00  0.00    +0.000 A 
ATOM     18  C   UNL     1       1.564   4.048  18.248  0.00  0.00    +0.000 A 
ATOM     19  C   UNL     1       1.419   2.660  18.282  0.00  0.00    +0.000 A 
ATOM     20  C   UNL     1       2.525   1.819  18.160  0.00  0.00    +0.000 A 
ATOM     21  C   UNL     1       3.820   2.348  18.097  0.00  0.00    +0.000 A 
ATOM     22  C   UNL     1       3.994   3.745  18.077  0.00  0.00    +0.000 A 
ATOM     23  C   UNL     1       5.121   4.625  18.055  0.00  0.00    +0.000 A 
ATOM     24  C   UNL     1       6.497   4.544  18.306  0.00  0.00    +0.000 A 
ATOM     25  C   UNL     1       7.318   5.558  17.798  0.00  0.00    +0.000 A 
ATOM     26  C   UNL     1       6.793   6.540  16.953  0.00  0.00    +0.000 A 
ATOM     27  C   UNL     1       5.412   6.707  16.813  0.00  0.00    +0.000 A 
ATOM     28  C   UNL     1       4.620   5.815  17.536  0.00  0.00    +0.000 A 
ENDBRANCH  15  16
ENDBRANCH   4  15
TORSDOF 4
ENDMDL
