MODEL 1
REMARK VINA RESULT:      -7.5      0.000      0.000
REMARK  Name = 
REMARK  8 active torsions:
REMARK  status: ('A' for Active; 'I' for Inactive)
REMARK    1  A    between atoms: C_1  and  C_2
REMARK    2  A    between atoms: C_2  and  C_3
REMARK    3  A    between atoms: C_2  and  C_4
REMARK    4  A    between atoms: N_7  and  C_8
REMARK    5  A    between atoms: N_21  and  C_22
REMARK    6  A    between atoms: C_22  and  C_23
REMARK    7  A    between atoms: C_23  and  S_24
REMARK    8  A    between atoms: S_24  and  C_26
REMARK                            x       y       z     vdW  Elec       q    Type
REMARK                         _______ _______ _______ _____ _____    ______ ____
ROOT
ATOM      1  C   UNL     1       2.967   4.376  19.681  0.00  0.00    +0.000 C 
ATOM      2  C   UNL     1       2.046   5.529  20.096  0.00  0.00    +0.000 C 
ATOM      3  O   UNL     1       1.067   5.424  20.819  0.00  0.00    +0.000 OA
ATOM      4  N   UNL     1       2.460   6.668  19.440  0.00  0.00    +0.000 N 
ATOM      5  C   UNL     1       3.636   6.451  18.742  0.00  0.00    +0.000 C 
ATOM      6  S   UNL     1       4.523   7.584  17.888  0.00  0.00    +0.000 S 
ATOM      7  N   UNL     1       4.009   5.115  18.950  0.00  0.00    +0.000 N 
ENDROOT
BRANCH   4   8
ATOM      8  C   UNL     1       1.770   7.894  19.557  0.00  0.00    +0.000 A 
ATOM      9  C   UNL     1       1.262   8.535  18.421  0.00  0.00    +0.000 A 
ATOM     10  F   UNL     1       1.391   7.967  17.213  0.00  0.00    +0.000 F 
ATOM     11  C   UNL     1       0.544   9.720  18.543  0.00  0.00    +0.000 A 
ATOM     12  F   UNL     1       0.021  10.299  17.452  0.00  0.00    +0.000 F 
ATOM     13  C   UNL     1       0.344  10.289  19.792  0.00  0.00    +0.000 A 
ATOM     14  F   UNL     1      -0.358  11.425  19.909  0.00  0.00    +0.000 F 
ATOM     15  C   UNL     1       0.869   9.679  20.923  0.00  0.00    +0.000 A 
ATOM     16  F   UNL     1       0.694  10.237  22.129  0.00  0.00    +0.000 F 
ATOM     17  C   UNL     1       1.577   8.490  20.807  0.00  0.00    +0.000 A 
ATOM     18  F   UNL     1       2.124   7.942  21.903  0.00  0.00    +0.000 F 
ENDBRANCH   4   8
BRANCH   1  20
ATOM     19  C   UNL     1       1.407   2.338  19.659  0.00  0.00    +0.000 C 
ATOM     20  C   UNL     1       2.252   3.304  18.819  0.00  0.00    +0.000 C 
ATOM     21  C   UNL     1       1.386   3.884  17.694  0.00  0.00    +0.000 C 
ENDBRANCH   1  20
BRANCH   7  22
ATOM     22  C   UNL     1       5.223   4.433  18.472  0.00  0.00    +0.000 C 
BRANCH  22  23
ATOM     23  C   UNL     1       5.410   4.377  16.952  0.00  0.00    +0.000 C 
BRANCH  23  24
ATOM     24  S   UNL     1       6.991   5.116  16.443  0.00  0.00    +0.000 S 
ATOM     25  O   UNL     1       8.134   4.237  17.069  0.00  0.00    +0.000 OA
BRANCH  24  26
ATOM     26  C   UNL     1       6.896   4.700  14.681  0.00  0.00    +0.000 A 
ATOM     27  C   UNL     1       5.966   3.757  14.223  0.00  0.00    +0.000 A 
ATOM     28  C   UNL     1       5.904   3.433  12.863  0.00  0.00    +0.000 A 
ATOM     29  C   UNL     1       6.760   4.056  11.956  0.00  0.00    +0.000 A 
ATOM     30  C   UNL     1       7.670   5.012  12.403  0.00  0.00    +0.000 A 
ATOM     31  C   UNL     1       7.736   5.336  13.760  0.00  0.00    +0.000 A 
ENDBRANCH  24  26
ENDBRANCH  23  24
ENDBRANCH  22  23
ENDBRANCH   7  22
TORSDOF 6
ENDMDL
MODEL 2
REMARK VINA RESULT:      -7.4      0.267      2.108
REMARK  Name = 
REMARK  8 active torsions:
REMARK  status: ('A' for Active; 'I' for Inactive)
REMARK    1  A    between atoms: C_1  and  C_2
REMARK    2  A    between atoms: C_2  and  C_3
REMARK    3  A    between atoms: C_2  and  C_4
REMARK    4  A    between atoms: N_7  and  C_8
REMARK    5  A    between atoms: N_21  and  C_22
REMARK    6  A    between atoms: C_22  and  C_23
REMARK    7  A    between atoms: C_23  and  S_24
REMARK    8  A    between atoms: S_24  and  C_26
REMARK                            x       y       z     vdW  Elec       q    Type
REMARK                         _______ _______ _______ _____ _____    ______ ____
ROOT
ATOM      1  C   UNL     1       2.862   4.157  19.490  0.00  0.00    +0.000 C 
ATOM      2  C   UNL     1       1.967   5.309  19.961  0.00  0.00    +0.000 C 
ATOM      3  O   UNL     1       0.951   5.185  20.628  0.00  0.00    +0.000 OA
ATOM      4  N   UNL     1       2.456   6.481  19.426  0.00  0.00    +0.000 N 
ATOM      5  C   UNL     1       3.656   6.274  18.765  0.00  0.00    +0.000 C 
ATOM      6  S   UNL     1       4.626   7.436  18.054  0.00  0.00    +0.000 S 
ATOM      7  N   UNL     1       3.966   4.910  18.874  0.00  0.00    +0.000 N 
ENDROOT
BRANCH   4   8
ATOM      8  C   UNL     1       1.809   7.721  19.617  0.00  0.00    +0.000 A 
ATOM      9  C   UNL     1       1.586   8.216  20.907  0.00  0.00    +0.000 A 
ATOM     10  F   UNL     1       2.024   7.533  21.975  0.00  0.00    +0.000 F 
ATOM     11  C   UNL     1       0.988   9.458  21.091  0.00  0.00    +0.000 A 
ATOM     12  F   UNL     1       0.823   9.943  22.330  0.00  0.00    +0.000 F 
ATOM     13  C   UNL     1       0.586  10.208  19.995  0.00  0.00    +0.000 A 
ATOM     14  F   UNL     1       0.021  11.410  20.174  0.00  0.00    +0.000 F 
ATOM     15  C   UNL     1       0.774   9.714  18.711  0.00  0.00    +0.000 A 
ATOM     16  F   UNL     1       0.370  10.428  17.651  0.00  0.00    +0.000 F 
ATOM     17  C   UNL     1       1.381   8.479  18.523  0.00  0.00    +0.000 A 
ATOM     18  F   UNL     1       1.506   7.992  17.279  0.00  0.00    +0.000 F 
ENDBRANCH   4   8
BRANCH   1  20
ATOM     19  C   UNL     1       1.220   2.203  19.221  0.00  0.00    +0.000 C 
ATOM     20  C   UNL     1       2.149   3.193  18.508  0.00  0.00    +0.000 C 
ATOM     21  C   UNL     1       1.370   3.902  17.393  0.00  0.00    +0.000 C 
ENDBRANCH   1  20
BRANCH   7  22
ATOM     22  C   UNL     1       5.174   4.220  18.394  0.00  0.00    +0.000 C 
BRANCH  22  23
ATOM     23  C   UNL     1       5.389   4.215  16.877  0.00  0.00    +0.000 C 
BRANCH  23  24
ATOM     24  S   UNL     1       6.933   5.056  16.414  0.00  0.00    +0.000 S 
ATOM     25  O   UNL     1       8.115   4.228  17.037  0.00  0.00    +0.000 OA
BRANCH  24  26
ATOM     26  C   UNL     1       6.889   4.684  14.641  0.00  0.00    +0.000 A 
ATOM     27  C   UNL     1       7.753   5.342  13.755  0.00  0.00    +0.000 A 
ATOM     28  C   UNL     1       7.707   5.058  12.386  0.00  0.00    +0.000 A 
ATOM     29  C   UNL     1       6.809   4.109  11.899  0.00  0.00    +0.000 A 
ATOM     30  C   UNL     1       5.965   3.434  12.777  0.00  0.00    +0.000 A 
ATOM     31  C   UNL     1       6.007   3.718  14.144  0.00  0.00    +0.000 A 
ENDBRANCH  24  26
ENDBRANCH  23  24
ENDBRANCH  22  23
ENDBRANCH   7  22
TORSDOF 6
ENDMDL
MODEL 3
REMARK VINA RESULT:      -7.3      5.058     10.423
REMARK  Name = 
REMARK  8 active torsions:
REMARK  status: ('A' for Active; 'I' for Inactive)
REMARK    1  A    between atoms: C_1  and  C_2
REMARK    2  A    between atoms: C_2  and  C_3
REMARK    3  A    between atoms: C_2  and  C_4
REMARK    4  A    between atoms: N_7  and  C_8
REMARK    5  A    between atoms: N_21  and  C_22
REMARK    6  A    between atoms: C_22  and  C_23
REMARK    7  A    between atoms: C_23  and  S_24
REMARK    8  A    between atoms: S_24  and  C_26
REMARK                            x       y       z     vdW  Elec       q    Type
REMARK                         _______ _______ _______ _____ _____    ______ ____
ROOT
ATOM      1  C   UNL     1      -0.088  12.305  20.648  0.00  0.00    +0.000 C 
ATOM      2  C   UNL     1       0.805  11.065  20.777  0.00  0.00    +0.000 C 
ATOM      3  O   UNL     1       1.672  10.906  21.623  0.00  0.00    +0.000 OA
ATOM      4  N   UNL     1       0.521  10.219  19.728  0.00  0.00    +0.000 N 
ATOM      5  C   UNL     1      -0.555  10.676  18.985  0.00  0.00    +0.000 C 
ATOM      6  S   UNL     1      -1.280   9.909  17.687  0.00  0.00    +0.000 S 
ATOM      7  N   UNL     1      -0.996  11.870  19.575  0.00  0.00    +0.000 N 
ENDROOT
BRANCH   4   8
ATOM      8  C   UNL     1       1.228   9.014  19.522  0.00  0.00    +0.000 A 
ATOM      9  C   UNL     1       2.045   8.853  18.398  0.00  0.00    +0.000 A 
ATOM     10  F   UNL     1       2.196   9.859  17.524  0.00  0.00    +0.000 F 
ATOM     11  C   UNL     1       2.776   7.682  18.220  0.00  0.00    +0.000 A 
ATOM     12  F   UNL     1       3.592   7.558  17.164  0.00  0.00    +0.000 F 
ATOM     13  C   UNL     1       2.682   6.654  19.148  0.00  0.00    +0.000 A 
ATOM     14  F   UNL     1       3.396   5.532  18.981  0.00  0.00    +0.000 F 
ATOM     15  C   UNL     1       1.852   6.791  20.252  0.00  0.00    +0.000 A 
ATOM     16  F   UNL     1       1.745   5.792  21.139  0.00  0.00    +0.000 F 
ATOM     17  C   UNL     1       1.129   7.962  20.438  0.00  0.00    +0.000 A 
ATOM     18  F   UNL     1       0.289   8.057  21.480  0.00  0.00    +0.000 F 
ENDBRANCH   4   8
BRANCH   1  20
ATOM     19  C   UNL     1       1.195  14.335  21.551  0.00  0.00    +0.000 C 
ATOM     20  C   UNL     1       0.703  13.593  20.303  0.00  0.00    +0.000 C 
ATOM     21  C   UNL     1       1.885  13.363  19.354  0.00  0.00    +0.000 C 
ENDBRANCH   1  20
BRANCH   7  22
ATOM     22  C   UNL     1      -2.155  12.692  19.188  0.00  0.00    +0.000 C 
BRANCH  22  23
ATOM     23  C   UNL     1      -3.422  12.507  20.028  0.00  0.00    +0.000 C 
BRANCH  23  24
ATOM     24  S   UNL     1      -4.895  12.293  18.983  0.00  0.00    +0.000 S 
ATOM     25  O   UNL     1      -4.695  10.961  18.171  0.00  0.00    +0.000 OA
BRANCH  24  26
ATOM     26  C   UNL     1      -6.082  11.944  20.306  0.00  0.00    +0.000 A 
ATOM     27  C   UNL     1      -6.154  12.773  21.433  0.00  0.00    +0.000 A 
ATOM     28  C   UNL     1      -7.066  12.493  22.457  0.00  0.00    +0.000 A 
ATOM     29  C   UNL     1      -7.916  11.393  22.353  0.00  0.00    +0.000 A 
ATOM     30  C   UNL     1      -7.867  10.579  21.224  0.00  0.00    +0.000 A 
ATOM     31  C   UNL     1      -6.955  10.855  20.202  0.00  0.00    +0.000 A 
ENDBRANCH  24  26
ENDBRANCH  23  24
ENDBRANCH  22  23
ENDBRANCH   7  22
TORSDOF 6
ENDMDL
MODEL 4
REMARK VINA RESULT:      -7.3      0.354      1.120
REMARK  Name = 
REMARK  8 active torsions:
REMARK  status: ('A' for Active; 'I' for Inactive)
REMARK    1  A    between atoms: C_1  and  C_2
REMARK    2  A    between atoms: C_2  and  C_3
REMARK    3  A    between atoms: C_2  and  C_4
REMARK    4  A    between atoms: N_7  and  C_8
REMARK    5  A    between atoms: N_21  and  C_22
REMARK    6  A    between atoms: C_22  and  C_23
REMARK    7  A    between atoms: C_23  and  S_24
REMARK    8  A    between atoms: S_24  and  C_26
REMARK                            x       y       z     vdW  Elec       q    Type
REMARK                         _______ _______ _______ _____ _____    ______ ____
ROOT
ATOM      1  C   UNL     1       2.891   4.179  19.611  0.00  0.00    +0.000 C 
ATOM      2  C   UNL     1       2.001   5.344  20.060  0.00  0.00    +0.000 C 
ATOM      3  O   UNL     1       1.011   5.243  20.769  0.00  0.00    +0.000 OA
ATOM      4  N   UNL     1       2.457   6.493  19.452  0.00  0.00    +0.000 N 
ATOM      5  C   UNL     1       3.634   6.266  18.757  0.00  0.00    +0.000 C 
ATOM      6  S   UNL     1       4.565   7.402  17.957  0.00  0.00    +0.000 S 
ATOM      7  N   UNL     1       3.963   4.911  18.919  0.00  0.00    +0.000 N 
ENDROOT
BRANCH   4   8
ATOM      8  C   UNL     1       1.804   7.735  19.608  0.00  0.00    +0.000 A 
ATOM      9  C   UNL     1       1.342   8.440  18.491  0.00  0.00    +0.000 A 
ATOM     10  F   UNL     1       1.479   7.920  17.262  0.00  0.00    +0.000 F 
ATOM     11  C   UNL     1       0.659   9.642  18.649  0.00  0.00    +0.000 A 
ATOM     12  F   UNL     1       0.179  10.284  17.575  0.00  0.00    +0.000 F 
ATOM     13  C   UNL     1       0.451  10.163  19.918  0.00  0.00    +0.000 A 
ATOM     14  F   UNL     1      -0.218  11.315  20.070  0.00  0.00    +0.000 F 
ATOM     15  C   UNL     1       0.931   9.488  21.032  0.00  0.00    +0.000 A 
ATOM     16  F   UNL     1       0.748   9.999  22.257  0.00  0.00    +0.000 F 
ATOM     17  C   UNL     1       1.603   8.283  20.878  0.00  0.00    +0.000 A 
ATOM     18  F   UNL     1       2.109   7.670  21.960  0.00  0.00    +0.000 F 
ENDBRANCH   4   8
BRANCH   1  20
ATOM     19  C   UNL     1       1.773   3.755  17.340  0.00  0.00    +0.000 C 
ATOM     20  C   UNL     1       2.153   3.163  18.702  0.00  0.00    +0.000 C 
ATOM     21  C   UNL     1       2.917   1.850  18.486  0.00  0.00    +0.000 C 
ENDBRANCH   1  20
BRANCH   7  22
ATOM     22  C   UNL     1       5.161   4.210  18.428  0.00  0.00    +0.000 C 
BRANCH  22  23
ATOM     23  C   UNL     1       5.363   4.206  16.909  0.00  0.00    +0.000 C 
BRANCH  23  24
ATOM     24  S   UNL     1       6.896   5.059  16.433  0.00  0.00    +0.000 S 
ATOM     25  O   UNL     1       8.089   4.249  17.060  0.00  0.00    +0.000 OA
BRANCH  24  26
ATOM     26  C   UNL     1       6.850   4.670  14.664  0.00  0.00    +0.000 A 
ATOM     27  C   UNL     1       7.739   5.291  13.776  0.00  0.00    +0.000 A 
ATOM     28  C   UNL     1       7.692   4.994  12.410  0.00  0.00    +0.000 A 
ATOM     29  C   UNL     1       6.767   4.069  11.927  0.00  0.00    +0.000 A 
ATOM     30  C   UNL     1       5.897   3.431  12.808  0.00  0.00    +0.000 A 
ATOM     31  C   UNL     1       5.941   3.727  14.172  0.00  0.00    +0.000 A 
ENDBRANCH  24  26
ENDBRANCH  23  24
ENDBRANCH  22  23
ENDBRANCH   7  22
TORSDOF 6
ENDMDL
MODEL 5
REMARK VINA RESULT:      -7.2      5.170     10.271
REMARK  Name = 
REMARK  8 active torsions:
REMARK  status: ('A' for Active; 'I' for Inactive)
REMARK    1  A    between atoms: C_1  and  C_2
REMARK    2  A    between atoms: C_2  and  C_3
REMARK    3  A    between atoms: C_2  and  C_4
REMARK    4  A    between atoms: N_7  and  C_8
REMARK    5  A    between atoms: N_21  and  C_22
REMARK    6  A    between atoms: C_22  and  C_23
REMARK    7  A    between atoms: C_23  and  S_24
REMARK    8  A    between atoms: S_24  and  C_26
REMARK                            x       y       z     vdW  Elec       q    Type
REMARK                         _______ _______ _______ _____ _____    ______ ____
ROOT
ATOM      1  C   UNL     1      -0.331  12.681  20.401  0.00  0.00    +0.000 C 
ATOM      2  C   UNL     1       0.650  11.510  20.535  0.00  0.00    +0.000 C 
ATOM      3  O   UNL     1       1.621  11.486  21.276  0.00  0.00    +0.000 OA
ATOM      4  N   UNL     1       0.299  10.547  19.615  0.00  0.00    +0.000 N 
ATOM      5  C   UNL     1      -0.886  10.867  18.973  0.00  0.00    +0.000 C 
ATOM      6  S   UNL     1      -1.709   9.933  17.856  0.00  0.00    +0.000 S 
ATOM      7  N   UNL     1      -1.331  12.090  19.497  0.00  0.00    +0.000 N 
ENDROOT
BRANCH   4   8
ATOM      8  C   UNL     1       1.054   9.367  19.438  0.00  0.00    +0.000 A 
ATOM      9  C   UNL     1       1.844   9.193  18.296  0.00  0.00    +0.000 A 
ATOM     10  F   UNL     1       1.922  10.166  17.376  0.00  0.00    +0.000 F 
ATOM     11  C   UNL     1       2.621   8.049  18.145  0.00  0.00    +0.000 A 
ATOM     12  F   UNL     1       3.410   7.915  17.069  0.00  0.00    +0.000 F 
ATOM     13  C   UNL     1       2.602   7.060  19.118  0.00  0.00    +0.000 A 
ATOM     14  F   UNL     1       3.362   5.964  18.976  0.00  0.00    +0.000 F 
ATOM     15  C   UNL     1       1.801   7.208  20.241  0.00  0.00    +0.000 A 
ATOM     16  F   UNL     1       1.766   6.245  21.173  0.00  0.00    +0.000 F 
ATOM     17  C   UNL     1       1.031   8.353  20.400  0.00  0.00    +0.000 A 
ATOM     18  F   UNL     1       0.220   8.456  21.464  0.00  0.00    +0.000 F 
ENDBRANCH   4   8
BRANCH   1  20
ATOM     19  C   UNL     1       1.006  14.807  20.926  0.00  0.00    +0.000 C 
ATOM     20  C   UNL     1       0.326  13.967  19.838  0.00  0.00    +0.000 C 
ATOM     21  C   UNL     1       1.324  13.711  18.702  0.00  0.00    +0.000 C 
ENDBRANCH   1  20
BRANCH   7  22
ATOM     22  C   UNL     1      -2.579  12.805  19.182  0.00  0.00    +0.000 C 
BRANCH  22  23
ATOM     23  C   UNL     1      -3.879  12.088  19.559  0.00  0.00    +0.000 C 
BRANCH  23  24
ATOM     24  S   UNL     1      -4.904  13.095  20.673  0.00  0.00    +0.000 S 
ATOM     25  O   UNL     1      -5.898  12.116  21.397  0.00  0.00    +0.000 OA
BRANCH  24  26
ATOM     26  C   UNL     1      -3.610  13.529  21.865  0.00  0.00    +0.000 A 
ATOM     27  C   UNL     1      -3.171  14.854  21.988  0.00  0.00    +0.000 A 
ATOM     28  C   UNL     1      -2.165  15.181  22.903  0.00  0.00    +0.000 A 
ATOM     29  C   UNL     1      -1.602  14.191  23.706  0.00  0.00    +0.000 A 
ATOM     30  C   UNL     1      -2.051  12.876  23.606  0.00  0.00    +0.000 A 
ATOM     31  C   UNL     1      -3.053  12.546  22.692  0.00  0.00    +0.000 A 
ENDBRANCH  24  26
ENDBRANCH  23  24
ENDBRANCH  22  23
ENDBRANCH   7  22
TORSDOF 6
ENDMDL
MODEL 6
REMARK VINA RESULT:      -7.1      4.380      6.857
REMARK  Name = 
REMARK  8 active torsions:
REMARK  status: ('A' for Active; 'I' for Inactive)
REMARK    1  A    between atoms: C_1  and  C_2
REMARK    2  A    between atoms: C_2  and  C_3
REMARK    3  A    between atoms: C_2  and  C_4
REMARK    4  A    between atoms: N_7  and  C_8
REMARK    5  A    between atoms: N_21  and  C_22
REMARK    6  A    between atoms: C_22  and  C_23
REMARK    7  A    between atoms: C_23  and  S_24
REMARK    8  A    between atoms: S_24  and  C_26
REMARK                            x       y       z     vdW  Elec       q    Type
REMARK                         _______ _______ _______ _____ _____    ______ ____
ROOT
ATOM      1  C   UNL     1      -1.105  10.289  18.764  0.00  0.00    +0.000 C 
ATOM      2  C   UNL     1      -1.391  11.536  19.609  0.00  0.00    +0.000 C 
ATOM      3  O   UNL     1      -2.444  11.771  20.184  0.00  0.00    +0.000 OA
ATOM      4  N   UNL     1      -0.300  12.372  19.527  0.00  0.00    +0.000 N 
ATOM      5  C   UNL     1       0.745  11.775  18.841  0.00  0.00    +0.000 C 
ATOM      6  S   UNL     1       2.275  12.404  18.593  0.00  0.00    +0.000 S 
ATOM      7  N   UNL     1       0.320  10.493  18.460  0.00  0.00    +0.000 N 
ENDROOT
BRANCH   4   8
ATOM      8  C   UNL     1      -0.280  13.642  20.142  0.00  0.00    +0.000 A 
ATOM      9  C   UNL     1      -0.348  14.807  19.370  0.00  0.00    +0.000 A 
ATOM     10  F   UNL     1      -0.476  14.726  18.037  0.00  0.00    +0.000 F 
ATOM     11  C   UNL     1      -0.373  16.057  19.981  0.00  0.00    +0.000 A 
ATOM     12  F   UNL     1      -0.487  17.164  19.234  0.00  0.00    +0.000 F 
ATOM     13  C   UNL     1      -0.306  16.158  21.364  0.00  0.00    +0.000 A 
ATOM     14  F   UNL     1      -0.342  17.363  21.951  0.00  0.00    +0.000 F 
ATOM     15  C   UNL     1      -0.208  15.011  22.139  0.00  0.00    +0.000 A 
ATOM     16  F   UNL     1      -0.124  15.108  23.473  0.00  0.00    +0.000 F 
ATOM     17  C   UNL     1      -0.194  13.762  21.533  0.00  0.00    +0.000 A 
ATOM     18  F   UNL     1      -0.043  12.665  22.292  0.00  0.00    +0.000 F 
ENDBRANCH   4   8
BRANCH   1  20
ATOM     19  C   UNL     1      -3.332   9.486  17.773  0.00  0.00    +0.000 C 
ATOM     20  C   UNL     1      -1.997  10.191  17.500  0.00  0.00    +0.000 C 
ATOM     21  C   UNL     1      -2.267  11.539  16.821  0.00  0.00    +0.000 C 
ENDBRANCH   1  20
BRANCH   7  22
ATOM     22  C   UNL     1       1.102   9.453  17.772  0.00  0.00    +0.000 C 
BRANCH  22  23
ATOM     23  C   UNL     1       1.960   8.552  18.666  0.00  0.00    +0.000 C 
BRANCH  23  24
ATOM     24  S   UNL     1       2.811   7.265  17.704  0.00  0.00    +0.000 S 
ATOM     25  O   UNL     1       4.348   7.406  18.004  0.00  0.00    +0.000 OA
BRANCH  24  26
ATOM     26  C   UNL     1       2.209   5.831  18.634  0.00  0.00    +0.000 A 
ATOM     27  C   UNL     1       1.796   4.672  17.964  0.00  0.00    +0.000 A 
ATOM     28  C   UNL     1       1.323   3.572  18.687  0.00  0.00    +0.000 A 
ATOM     29  C   UNL     1       1.271   3.620  20.079  0.00  0.00    +0.000 A 
ATOM     30  C   UNL     1       1.704   4.760  20.752  0.00  0.00    +0.000 A 
ATOM     31  C   UNL     1       2.174   5.861  20.033  0.00  0.00    +0.000 A 
ENDBRANCH  24  26
ENDBRANCH  23  24
ENDBRANCH  22  23
ENDBRANCH   7  22
TORSDOF 6
ENDMDL
MODEL 7
REMARK VINA RESULT:      -7.1      5.432     10.587
REMARK  Name = 
REMARK  8 active torsions:
REMARK  status: ('A' for Active; 'I' for Inactive)
REMARK    1  A    between atoms: C_1  and  C_2
REMARK    2  A    between atoms: C_2  and  C_3
REMARK    3  A    between atoms: C_2  and  C_4
REMARK    4  A    between atoms: N_7  and  C_8
REMARK    5  A    between atoms: N_21  and  C_22
REMARK    6  A    between atoms: C_22  and  C_23
REMARK    7  A    between atoms: C_23  and  S_24
REMARK    8  A    between atoms: S_24  and  C_26
REMARK                            x       y       z     vdW  Elec       q    Type
REMARK                         _______ _______ _______ _____ _____    ______ ____
ROOT
ATOM      1  C   UNL     1      -0.570  12.732  20.616  0.00  0.00    +0.000 C 
ATOM      2  C   UNL     1       0.446  11.587  20.708  0.00  0.00    +0.000 C 
ATOM      3  O   UNL     1       1.441  11.582  21.417  0.00  0.00    +0.000 OA
ATOM      4  N   UNL     1       0.090  10.622  19.792  0.00  0.00    +0.000 N 
ATOM      5  C   UNL     1      -1.124  10.915  19.193  0.00  0.00    +0.000 C 
ATOM      6  S   UNL     1      -1.959   9.968  18.095  0.00  0.00    +0.000 S 
ATOM      7  N   UNL     1      -1.583  12.122  19.741  0.00  0.00    +0.000 N 
ENDROOT
BRANCH   4   8
ATOM      8  C   UNL     1       0.870   9.464  19.580  0.00  0.00    +0.000 A 
ATOM      9  C   UNL     1       1.642   9.329  18.421  0.00  0.00    +0.000 A 
ATOM     10  F   UNL     1       1.679  10.320  17.517  0.00  0.00    +0.000 F 
ATOM     11  C   UNL     1       2.443   8.207  18.235  0.00  0.00    +0.000 A 
ATOM     12  F   UNL     1       3.215   8.112  17.143  0.00  0.00    +0.000 F 
ATOM     13  C   UNL     1       2.466   7.201  19.190  0.00  0.00    +0.000 A 
ATOM     14  F   UNL     1       3.249   6.127  19.015  0.00  0.00    +0.000 F 
ATOM     15  C   UNL     1       1.682   7.309  20.330  0.00  0.00    +0.000 A 
ATOM     16  F   UNL     1       1.688   6.330  21.245  0.00  0.00    +0.000 F 
ATOM     17  C   UNL     1       0.889   8.432  20.524  0.00  0.00    +0.000 A 
ATOM     18  F   UNL     1       0.095   8.497  21.604  0.00  0.00    +0.000 F 
ENDBRANCH   4   8
BRANCH   1  20
ATOM     19  C   UNL     1       0.687  14.911  21.124  0.00  0.00    +0.000 C 
ATOM     20  C   UNL     1       0.035  14.039  20.044  0.00  0.00    +0.000 C 
ATOM     21  C   UNL     1       1.035  13.816  18.903  0.00  0.00    +0.000 C 
ENDBRANCH   1  20
BRANCH   7  22
ATOM     22  C   UNL     1      -2.859  12.806  19.474  0.00  0.00    +0.000 C 
BRANCH  22  23
ATOM     23  C   UNL     1      -3.870  12.819  20.625  0.00  0.00    +0.000 C 
BRANCH  23  24
ATOM     24  S   UNL     1      -5.420  11.985  20.168  0.00  0.00    +0.000 S 
ATOM     25  O   UNL     1      -6.346  12.004  21.438  0.00  0.00    +0.000 OA
BRANCH  24  26
ATOM     26  C   UNL     1      -6.045  13.245  19.025  0.00  0.00    +0.000 A 
ATOM     27  C   UNL     1      -6.288  14.551  19.471  0.00  0.00    +0.000 A 
ATOM     28  C   UNL     1      -6.781  15.516  18.586  0.00  0.00    +0.000 A 
ATOM     29  C   UNL     1      -7.020  15.185  17.253  0.00  0.00    +0.000 A 
ATOM     30  C   UNL     1      -6.758  13.895  16.798  0.00  0.00    +0.000 A 
ATOM     31  C   UNL     1      -6.269  12.929  17.680  0.00  0.00    +0.000 A 
ENDBRANCH  24  26
ENDBRANCH  23  24
ENDBRANCH  22  23
ENDBRANCH   7  22
TORSDOF 6
ENDMDL
MODEL 8
REMARK VINA RESULT:      -7.1      5.585     11.148
REMARK  Name = 
REMARK  8 active torsions:
REMARK  status: ('A' for Active; 'I' for Inactive)
REMARK    1  A    between atoms: C_1  and  C_2
REMARK    2  A    between atoms: C_2  and  C_3
REMARK    3  A    between atoms: C_2  and  C_4
REMARK    4  A    between atoms: N_7  and  C_8
REMARK    5  A    between atoms: N_21  and  C_22
REMARK    6  A    between atoms: C_22  and  C_23
REMARK    7  A    between atoms: C_23  and  S_24
REMARK    8  A    between atoms: S_24  and  C_26
REMARK                            x       y       z     vdW  Elec       q    Type
REMARK                         _______ _______ _______ _____ _____    ______ ____
ROOT
ATOM      1  C   UNL     1      -0.741  12.405  20.789  0.00  0.00    +0.000 C 
ATOM      2  C   UNL     1       0.293  11.275  20.873  0.00  0.00    +0.000 C 
ATOM      3  O   UNL     1       1.227  11.232  21.659  0.00  0.00    +0.000 OA
ATOM      4  N   UNL     1       0.037  10.381  19.857  0.00  0.00    +0.000 N 
ATOM      5  C   UNL     1      -1.132  10.699  19.185  0.00  0.00    +0.000 C 
ATOM      6  S   UNL     1      -1.851   9.829  17.950  0.00  0.00    +0.000 S 
ATOM      7  N   UNL     1      -1.664  11.849  19.787  0.00  0.00    +0.000 N 
ENDROOT
BRANCH   4   8
ATOM      8  C   UNL     1       0.860   9.259  19.620  0.00  0.00    +0.000 A 
ATOM      9  C   UNL     1       1.667   9.198  18.478  0.00  0.00    +0.000 A 
ATOM     10  F   UNL     1       1.696  10.227  17.618  0.00  0.00    +0.000 F 
ATOM     11  C   UNL     1       2.511   8.112  18.268  0.00  0.00    +0.000 A 
ATOM     12  F   UNL     1       3.314   8.088  17.195  0.00  0.00    +0.000 F 
ATOM     13  C   UNL     1       2.541   7.068  19.181  0.00  0.00    +0.000 A 
ATOM     14  F   UNL     1       3.364   6.027  18.984  0.00  0.00    +0.000 F 
ATOM     15  C   UNL     1       1.724   7.102  20.302  0.00  0.00    +0.000 A 
ATOM     16  F   UNL     1       1.738   6.085  21.175  0.00  0.00    +0.000 F 
ATOM     17  C   UNL     1       0.888   8.190  20.520  0.00  0.00    +0.000 A 
ATOM     18  F   UNL     1       0.064   8.183  21.579  0.00  0.00    +0.000 F 
ENDBRANCH   4   8
BRANCH   1  20
ATOM     19  C   UNL     1       0.461  14.536  21.562  0.00  0.00    +0.000 C 
ATOM     20  C   UNL     1      -0.126  13.765  20.373  0.00  0.00    +0.000 C 
ATOM     21  C   UNL     1       0.933  13.659  19.269  0.00  0.00    +0.000 C 
ENDBRANCH   1  20
BRANCH   7  22
ATOM     22  C   UNL     1      -2.931  12.528  19.470  0.00  0.00    +0.000 C 
BRANCH  22  23
ATOM     23  C   UNL     1      -3.809  12.910  20.666  0.00  0.00    +0.000 C 
BRANCH  23  24
ATOM     24  S   UNL     1      -5.400  13.612  20.136  0.00  0.00    +0.000 S 
ATOM     25  O   UNL     1      -6.073  12.560  19.180  0.00  0.00    +0.000 OA
BRANCH  24  26
ATOM     26  C   UNL     1      -6.252  13.513  21.731  0.00  0.00    +0.000 A 
ATOM     27  C   UNL     1      -7.065  12.413  22.037  0.00  0.00    +0.000 A 
ATOM     28  C   UNL     1      -7.728  12.348  23.267  0.00  0.00    +0.000 A 
ATOM     29  C   UNL     1      -7.575  13.373  24.199  0.00  0.00    +0.000 A 
ATOM     30  C   UNL     1      -6.749  14.457  23.911  0.00  0.00    +0.000 A 
ATOM     31  C   UNL     1      -6.088  14.526  22.683  0.00  0.00    +0.000 A 
ENDBRANCH  24  26
ENDBRANCH  23  24
ENDBRANCH  22  23
ENDBRANCH   7  22
TORSDOF 6
ENDMDL
MODEL 9
REMARK VINA RESULT:      -7.1      5.237     10.542
REMARK  Name = 
REMARK  8 active torsions:
REMARK  status: ('A' for Active; 'I' for Inactive)
REMARK    1  A    between atoms: C_1  and  C_2
REMARK    2  A    between atoms: C_2  and  C_3
REMARK    3  A    between atoms: C_2  and  C_4
REMARK    4  A    between atoms: N_7  and  C_8
REMARK    5  A    between atoms: N_21  and  C_22
REMARK    6  A    between atoms: C_22  and  C_23
REMARK    7  A    between atoms: C_23  and  S_24
REMARK    8  A    between atoms: S_24  and  C_26
REMARK                            x       y       z     vdW  Elec       q    Type
REMARK                         _______ _______ _______ _____ _____    ______ ____
ROOT
ATOM      1  C   UNL     1      -0.389  12.549  20.741  0.00  0.00    +0.000 C 
ATOM      2  C   UNL     1       0.625  11.400  20.780  0.00  0.00    +0.000 C 
ATOM      3  O   UNL     1       1.620  11.361  21.489  0.00  0.00    +0.000 OA
ATOM      4  N   UNL     1       0.269  10.478  19.820  0.00  0.00    +0.000 N 
ATOM      5  C   UNL     1      -0.944  10.801  19.234  0.00  0.00    +0.000 C 
ATOM      6  S   UNL     1      -1.779   9.906  18.093  0.00  0.00    +0.000 S 
ATOM      7  N   UNL     1      -1.402  11.982  19.837  0.00  0.00    +0.000 N 
ENDROOT
BRANCH   4   8
ATOM      8  C   UNL     1       1.047   9.331  19.556  0.00  0.00    +0.000 A 
ATOM      9  C   UNL     1       1.066   8.261  20.458  0.00  0.00    +0.000 A 
ATOM     10  F   UNL     1       0.309   8.299  21.565  0.00  0.00    +0.000 F 
ATOM     11  C   UNL     1       1.798   7.112  20.174  0.00  0.00    +0.000 A 
ATOM     12  F   UNL     1       1.770   6.075  21.023  0.00  0.00    +0.000 F 
ATOM     13  C   UNL     1       2.536   7.029  19.002  0.00  0.00    +0.000 A 
ATOM     14  F   UNL     1       3.232   5.917  18.725  0.00  0.00    +0.000 F 
ATOM     15  C   UNL     1       2.550   8.095  18.114  0.00  0.00    +0.000 A 
ATOM     16  F   UNL     1       3.278   8.024  16.991  0.00  0.00    +0.000 F 
ATOM     17  C   UNL     1       1.812   9.238  18.389  0.00  0.00    +0.000 A 
ATOM     18  F   UNL     1       1.879  10.282  17.547  0.00  0.00    +0.000 F 
ENDBRANCH   4   8
BRANCH   1  20
ATOM     19  C   UNL     1       0.872  14.700  21.349  0.00  0.00    +0.000 C 
ATOM     20  C   UNL     1       0.218  13.881  20.229  0.00  0.00    +0.000 C 
ATOM     21  C   UNL     1       1.218  13.709  19.079  0.00  0.00    +0.000 C 
ENDBRANCH   1  20
BRANCH   7  22
ATOM     22  C   UNL     1      -2.677  12.679  19.600  0.00  0.00    +0.000 C 
BRANCH  22  23
ATOM     23  C   UNL     1      -3.225  13.498  20.773  0.00  0.00    +0.000 C 
BRANCH  23  24
ATOM     24  S   UNL     1      -4.707  12.731  21.494  0.00  0.00    +0.000 S 
ATOM     25  O   UNL     1      -5.319  13.770  22.504  0.00  0.00    +0.000 OA
BRANCH  24  26
ATOM     26  C   UNL     1      -5.740  12.754  20.006  0.00  0.00    +0.000 A 
ATOM     27  C   UNL     1      -6.121  13.970  19.423  0.00  0.00    +0.000 A 
ATOM     28  C   UNL     1      -6.927  13.980  18.280  0.00  0.00    +0.000 A 
ATOM     29  C   UNL     1      -7.345  12.780  17.708  0.00  0.00    +0.000 A 
ATOM     30  C   UNL     1      -6.949  11.567  18.268  0.00  0.00    +0.000 A 
ATOM     31  C   UNL     1      -6.147  11.554  19.411  0.00  0.00    +0.000 A 
ENDBRANCH  24  26
ENDBRANCH  23  24
ENDBRANCH  22  23
ENDBRANCH   7  22
TORSDOF 6
ENDMDL
