MODEL 1
REMARK VINA RESULT:      -7.7      0.000      0.000
REMARK  Name = 
REMARK  5 active torsions:
REMARK  status: ('A' for Active; 'I' for Inactive)
REMARK    1  A    between atoms: C_1  and  C_2
REMARK    2  A    between atoms: C_13  and  C_14
REMARK    3  A    between atoms: C_15  and  C_16
REMARK    4  A    between atoms: N_18  and  C_19
REMARK    5  A    between atoms: C_20  and  C_21
REMARK                            x       y       z     vdW  Elec       q    Type
REMARK                         _______ _______ _______ _____ _____    ______ ____
ROOT
ATOM      1  C   UNL     1       6.498   3.854  14.317  0.00  0.00    +0.000 C 
ATOM      2  C   UNL     1       6.469   5.041  15.247  0.00  0.00    +0.000 C 
ATOM      3  O   UNL     1       7.410   5.835  15.266  0.00  0.00    +0.000 OA
ATOM      4  N   UNL     1       5.340   5.199  16.044  0.00  0.00    +0.000 N 
ATOM      5  C   UNL     1       4.261   4.218  16.173  0.00  0.00    +0.000 C 
ATOM      6  C   UNL     1       4.486   3.178  17.270  0.00  0.00    +0.000 C 
ATOM      7  C   UNL     1       4.764   3.692  18.686  0.00  0.00    +0.000 C 
ATOM      8  N   UNL     1       4.441   5.096  18.872  0.00  0.00    +0.000 N 
ATOM      9  C   UNL     1       3.297   5.487  19.526  0.00  0.00    +0.000 A 
ATOM     10  N   UNL     1       2.556   4.540  20.126  0.00  0.00    +0.000 NA
ATOM     11  C   UNL     1       1.460   4.924  20.798  0.00  0.00    +0.000 A 
ATOM     12  C   UNL     1       1.043   6.224  20.874  0.00  0.00    +0.000 A 
ATOM     13  C   UNL     1       1.842   7.143  20.233  0.00  0.00    +0.000 A 
ATOM     14  N   UNL     1       2.959   6.789  19.556  0.00  0.00    +0.000 NA
ATOM     15  C   UNL     1       5.407   6.087  18.400  0.00  0.00    +0.000 C 
ATOM     16  C   UNL     1       5.234   6.386  16.906  0.00  0.00    +0.000 C 
ENDROOT
BRANCH  13  17
ATOM     17  C   UNL     1       1.473   8.558  20.239  0.00  0.00    +0.000 A 
ATOM     18  C   UNL     1       1.112   9.419  21.320  0.00  0.00    +0.000 A 
ATOM     19  C   UNL     1       1.101   9.168  22.784  0.00  0.00    +0.000 C 
ATOM     20  N   UNL     1       0.734  10.626  20.888  0.00  0.00    +0.000 NA
ATOM     21  N   UNL     1       0.870  10.561  19.555  0.00  0.00    +0.000 N 
ATOM     22  C   UNL     1       0.456  11.698  18.763  0.00  0.00    +0.000 C 
ATOM     23  C   UNL     1       1.361   9.360  19.109  0.00  0.00    +0.000 A 
ATOM     24  C   UNL     1       1.655   9.078  17.679  0.00  0.00    +0.000 C 
ENDBRANCH  13  17
TORSDOF 1
ENDMDL
MODEL 2
REMARK VINA RESULT:      -7.3      0.569      1.753
REMARK  Name = 
REMARK  5 active torsions:
REMARK  status: ('A' for Active; 'I' for Inactive)
REMARK    1  A    between atoms: C_1  and  C_2
REMARK    2  A    between atoms: C_13  and  C_14
REMARK    3  A    between atoms: C_15  and  C_16
REMARK    4  A    between atoms: N_18  and  C_19
REMARK    5  A    between atoms: C_20  and  C_21
REMARK                            x       y       z     vdW  Elec       q    Type
REMARK                         _______ _______ _______ _____ _____    ______ ____
ROOT
ATOM      1  C   UNL     1       6.428   3.693  14.326  0.00  0.00    +0.000 C 
ATOM      2  C   UNL     1       6.377   4.955  15.150  0.00  0.00    +0.000 C 
ATOM      3  O   UNL     1       7.272   5.794  15.052  0.00  0.00    +0.000 OA
ATOM      4  N   UNL     1       5.278   5.127  15.987  0.00  0.00    +0.000 N 
ATOM      5  C   UNL     1       4.262   4.109  16.254  0.00  0.00    +0.000 C 
ATOM      6  C   UNL     1       4.593   3.184  17.425  0.00  0.00    +0.000 C 
ATOM      7  C   UNL     1       4.907   3.837  18.775  0.00  0.00    +0.000 C 
ATOM      8  N   UNL     1       4.517   5.234  18.854  0.00  0.00    +0.000 N 
ATOM      9  C   UNL     1       3.385   5.623  19.528  0.00  0.00    +0.000 A 
ATOM     10  N   UNL     1       2.724   4.697  20.245  0.00  0.00    +0.000 NA
ATOM     11  C   UNL     1       1.641   5.085  20.935  0.00  0.00    +0.000 A 
ATOM     12  C   UNL     1       1.158   6.363  20.919  0.00  0.00    +0.000 A 
ATOM     13  C   UNL     1       1.875   7.260  20.161  0.00  0.00    +0.000 A 
ATOM     14  N   UNL     1       2.977   6.904  19.462  0.00  0.00    +0.000 NA
ATOM     15  C   UNL     1       5.404   6.225  18.249  0.00  0.00    +0.000 C 
ATOM     16  C   UNL     1       5.147   6.380  16.745  0.00  0.00    +0.000 C 
ENDROOT
BRANCH  13  17
ATOM     17  C   UNL     1       1.430   8.649  20.062  0.00  0.00    +0.000 A 
ATOM     18  C   UNL     1       1.396   9.538  18.945  0.00  0.00    +0.000 A 
ATOM     19  C   UNL     1       1.709   9.291  17.513  0.00  0.00    +0.000 C 
ATOM     20  N   UNL     1       1.020  10.770  19.301  0.00  0.00    +0.000 NA
ATOM     21  N   UNL     1       0.787  10.680  20.619  0.00  0.00    +0.000 N 
ATOM     22  C   UNL     1       0.437  11.882  21.341  0.00  0.00    +0.000 C 
ATOM     23  C   UNL     1       0.965   9.417  21.124  0.00  0.00    +0.000 A 
ATOM     24  C   UNL     1       0.705   9.062  22.545  0.00  0.00    +0.000 C 
ENDBRANCH  13  17
TORSDOF 1
ENDMDL
MODEL 3
REMARK VINA RESULT:      -6.1      2.575      7.102
REMARK  Name = 
REMARK  5 active torsions:
REMARK  status: ('A' for Active; 'I' for Inactive)
REMARK    1  A    between atoms: C_1  and  C_2
REMARK    2  A    between atoms: C_13  and  C_14
REMARK    3  A    between atoms: C_15  and  C_16
REMARK    4  A    between atoms: N_18  and  C_19
REMARK    5  A    between atoms: C_20  and  C_21
REMARK                            x       y       z     vdW  Elec       q    Type
REMARK                         _______ _______ _______ _____ _____    ______ ____
ROOT
ATOM      1  C   UNL     1       0.756   8.495  21.950  0.00  0.00    +0.000 C 
ATOM      2  C   UNL     1       1.218   8.518  20.514  0.00  0.00    +0.000 C 
ATOM      3  O   UNL     1       0.905   9.455  19.779  0.00  0.00    +0.000 OA
ATOM      4  N   UNL     1       2.018   7.464  20.085  0.00  0.00    +0.000 N 
ATOM      5  C   UNL     1       2.304   6.258  20.863  0.00  0.00    +0.000 C 
ATOM      6  C   UNL     1       1.287   5.132  20.671  0.00  0.00    +0.000 C 
ATOM      7  C   UNL     1       1.016   4.660  19.239  0.00  0.00    +0.000 C 
ATOM      8  N   UNL     1       2.009   5.108  18.278  0.00  0.00    +0.000 N 
ATOM      9  C   UNL     1       2.983   4.261  17.808  0.00  0.00    +0.000 A 
ATOM     10  N   UNL     1       2.907   2.961  18.142  0.00  0.00    +0.000 NA
ATOM     11  C   UNL     1       3.835   2.125  17.652  0.00  0.00    +0.000 A 
ATOM     12  C   UNL     1       4.871   2.535  16.860  0.00  0.00    +0.000 A 
ATOM     13  C   UNL     1       4.896   3.878  16.561  0.00  0.00    +0.000 A 
ATOM     14  N   UNL     1       3.969   4.745  17.030  0.00  0.00    +0.000 NA
ATOM     15  C   UNL     1       1.900   6.475  17.772  0.00  0.00    +0.000 C 
ATOM     16  C   UNL     1       2.558   7.488  18.717  0.00  0.00    +0.000 C 
ENDROOT
BRANCH  13  17
ATOM     17  C   UNL     1       5.974   4.420  15.735  0.00  0.00    +0.000 A 
ATOM     18  C   UNL     1       7.066   5.276  16.076  0.00  0.00    +0.000 A 
ATOM     19  C   UNL     1       7.500   5.796  17.398  0.00  0.00    +0.000 C 
ATOM     20  N   UNL     1       7.771   5.634  14.999  0.00  0.00    +0.000 NA
ATOM     21  N   UNL     1       7.168   5.003  13.980  0.00  0.00    +0.000 N 
ATOM     22  C   UNL     1       7.643   5.249  12.638  0.00  0.00    +0.000 C 
ATOM     23  C   UNL     1       6.113   4.216  14.367  0.00  0.00    +0.000 A 
ATOM     24  C   UNL     1       5.333   3.373  13.422  0.00  0.00    +0.000 C 
ENDBRANCH  13  17
TORSDOF 1
ENDMDL
MODEL 4
REMARK VINA RESULT:      -6.1      5.839      9.189
REMARK  Name = 
REMARK  5 active torsions:
REMARK  status: ('A' for Active; 'I' for Inactive)
REMARK    1  A    between atoms: C_1  and  C_2
REMARK    2  A    between atoms: C_13  and  C_14
REMARK    3  A    between atoms: C_15  and  C_16
REMARK    4  A    between atoms: N_18  and  C_19
REMARK    5  A    between atoms: C_20  and  C_21
REMARK                            x       y       z     vdW  Elec       q    Type
REMARK                         _______ _______ _______ _____ _____    ______ ____
ROOT
ATOM      1  C   UNL     1       1.668   8.389  20.088  0.00  0.00    +0.000 C 
ATOM      2  C   UNL     1       0.862   9.493  19.450  0.00  0.00    +0.000 C 
ATOM      3  O   UNL     1       1.245  10.010  18.400  0.00  0.00    +0.000 OA
ATOM      4  N   UNL     1      -0.319   9.868  20.082  0.00  0.00    +0.000 N 
ATOM      5  C   UNL     1      -0.751   9.396  21.398  0.00  0.00    +0.000 C 
ATOM      6  C   UNL     1      -0.244  10.241  22.566  0.00  0.00    +0.000 C 
ATOM      7  C   UNL     1      -0.543  11.744  22.534  0.00  0.00    +0.000 C 
ATOM      8  N   UNL     1      -1.563  12.116  21.569  0.00  0.00    +0.000 N 
ATOM      9  C   UNL     1      -2.848  12.407  21.962  0.00  0.00    +0.000 A 
ATOM     10  N   UNL     1      -3.104  12.488  23.279  0.00  0.00    +0.000 NA
ATOM     11  C   UNL     1      -4.348  12.811  23.663  0.00  0.00    +0.000 A 
ATOM     12  C   UNL     1      -5.373  13.027  22.786  0.00  0.00    +0.000 A 
ATOM     13  C   UNL     1      -5.047  12.921  21.453  0.00  0.00    +0.000 A 
ATOM     14  N   UNL     1      -3.800  12.609  21.032  0.00  0.00    +0.000 NA
ATOM     15  C   UNL     1      -1.166  12.238  20.168  0.00  0.00    +0.000 C 
ATOM     16  C   UNL     1      -1.177  10.882  19.451  0.00  0.00    +0.000 C 
ENDROOT
BRANCH  13  17
ATOM     17  C   UNL     1      -6.077  13.117  20.434  0.00  0.00    +0.000 A 
ATOM     18  C   UNL     1      -7.014  12.198  19.871  0.00  0.00    +0.000 A 
ATOM     19  C   UNL     1      -7.299  10.783  20.224  0.00  0.00    +0.000 C 
ATOM     20  N   UNL     1      -7.716  12.750  18.877  0.00  0.00    +0.000 NA
ATOM     21  N   UNL     1      -7.264  14.011  18.810  0.00  0.00    +0.000 N 
ATOM     22  C   UNL     1      -7.768  14.870  17.762  0.00  0.00    +0.000 C 
ATOM     23  C   UNL     1      -6.315  14.307  19.755  0.00  0.00    +0.000 A 
ATOM     24  C   UNL     1      -5.715  15.658  19.915  0.00  0.00    +0.000 C 
ENDBRANCH  13  17
TORSDOF 1
ENDMDL
MODEL 5
REMARK VINA RESULT:      -6.0      4.385      8.704
REMARK  Name = 
REMARK  5 active torsions:
REMARK  status: ('A' for Active; 'I' for Inactive)
REMARK    1  A    between atoms: C_1  and  C_2
REMARK    2  A    between atoms: C_13  and  C_14
REMARK    3  A    between atoms: C_15  and  C_16
REMARK    4  A    between atoms: N_18  and  C_19
REMARK    5  A    between atoms: C_20  and  C_21
REMARK                            x       y       z     vdW  Elec       q    Type
REMARK                         _______ _______ _______ _____ _____    ______ ____
ROOT
ATOM      1  C   UNL     1       5.358  17.954  20.529  0.00  0.00    +0.000 C 
ATOM      2  C   UNL     1       5.310  16.554  19.967  0.00  0.00    +0.000 C 
ATOM      3  O   UNL     1       6.268  16.110  19.334  0.00  0.00    +0.000 OA
ATOM      4  N   UNL     1       4.166  15.804  20.219  0.00  0.00    +0.000 N 
ATOM      5  C   UNL     1       2.944  16.321  20.835  0.00  0.00    +0.000 C 
ATOM      6  C   UNL     1       1.941  16.911  19.844  0.00  0.00    +0.000 C 
ATOM      7  C   UNL     1       1.487  16.020  18.683  0.00  0.00    +0.000 C 
ATOM      8  N   UNL     1       1.806  14.615  18.865  0.00  0.00    +0.000 N 
ATOM      9  C   UNL     1       0.847  13.706  19.241  0.00  0.00    +0.000 A 
ATOM     10  N   UNL     1      -0.432  14.118  19.290  0.00  0.00    +0.000 NA
ATOM     11  C   UNL     1      -1.375  13.222  19.619  0.00  0.00    +0.000 A 
ATOM     12  C   UNL     1      -1.097  11.923  19.939  0.00  0.00    +0.000 A 
ATOM     13  C   UNL     1       0.231  11.566  19.877  0.00  0.00    +0.000 A 
ATOM     14  N   UNL     1       1.204  12.443  19.538  0.00  0.00    +0.000 NA
ATOM     15  C   UNL     1       3.170  14.181  18.570  0.00  0.00    +0.000 C 
ATOM     16  C   UNL     1       4.112  14.408  19.760  0.00  0.00    +0.000 C 
ENDROOT
BRANCH  13  17
ATOM     17  C   UNL     1       0.635  10.204  20.219  0.00  0.00    +0.000 A 
ATOM     18  C   UNL     1       0.540   9.487  21.450  0.00  0.00    +0.000 A 
ATOM     19  C   UNL     1      -0.093   9.872  22.738  0.00  0.00    +0.000 C 
ATOM     20  N   UNL     1       1.131   8.290  21.375  0.00  0.00    +0.000 NA
ATOM     21  N   UNL     1       1.579   8.217  20.113  0.00  0.00    +0.000 N 
ATOM     22  C   UNL     1       2.353   7.061  19.721  0.00  0.00    +0.000 C 
ATOM     23  C   UNL     1       1.265   9.316  19.353  0.00  0.00    +0.000 A 
ATOM     24  C   UNL     1       1.601   9.433  17.909  0.00  0.00    +0.000 C 
ENDBRANCH  13  17
TORSDOF 1
ENDMDL
MODEL 6
REMARK VINA RESULT:      -5.9      6.156      8.922
REMARK  Name = 
REMARK  5 active torsions:
REMARK  status: ('A' for Active; 'I' for Inactive)
REMARK    1  A    between atoms: C_1  and  C_2
REMARK    2  A    between atoms: C_13  and  C_14
REMARK    3  A    between atoms: C_15  and  C_16
REMARK    4  A    between atoms: N_18  and  C_19
REMARK    5  A    between atoms: C_20  and  C_21
REMARK                            x       y       z     vdW  Elec       q    Type
REMARK                         _______ _______ _______ _____ _____    ______ ____
ROOT
ATOM      1  C   UNL     1       5.627  16.756  19.877  0.00  0.00    +0.000 C 
ATOM      2  C   UNL     1       4.337  16.508  19.135  0.00  0.00    +0.000 C 
ATOM      3  O   UNL     1       4.028  17.218  18.178  0.00  0.00    +0.000 OA
ATOM      4  N   UNL     1       3.549  15.444  19.564  0.00  0.00    +0.000 N 
ATOM      5  C   UNL     1       3.788  14.659  20.775  0.00  0.00    +0.000 C 
ATOM      6  C   UNL     1       3.127  15.226  22.031  0.00  0.00    +0.000 C 
ATOM      7  C   UNL     1       1.617  15.482  21.982  0.00  0.00    +0.000 C 
ATOM      8  N   UNL     1       0.951  14.834  20.865  0.00  0.00    +0.000 N 
ATOM      9  C   UNL     1       0.215  13.687  21.038  0.00  0.00    +0.000 A 
ATOM     10  N   UNL     1      -0.002  13.257  22.294  0.00  0.00    +0.000 NA
ATOM     11  C   UNL     1      -0.753  12.159  22.466  0.00  0.00    +0.000 A 
ATOM     12  C   UNL     1      -1.279  11.438  21.430  0.00  0.00    +0.000 A 
ATOM     13  C   UNL     1      -1.013  11.926  20.172  0.00  0.00    +0.000 A 
ATOM     14  N   UNL     1      -0.269  13.037  19.964  0.00  0.00    +0.000 NA
ATOM     15  C   UNL     1       1.031  15.479  19.556  0.00  0.00    +0.000 C 
ATOM     16  C   UNL     1       2.325  15.115  18.817  0.00  0.00    +0.000 C 
ENDROOT
BRANCH  13  17
ATOM     17  C   UNL     1      -1.515  11.217  18.995  0.00  0.00    +0.000 A 
ATOM     18  C   UNL     1      -0.860  10.310  18.107  0.00  0.00    +0.000 A 
ATOM     19  C   UNL     1       0.506   9.729  18.166  0.00  0.00    +0.000 C 
ATOM     20  N   UNL     1      -1.645   9.966  17.082  0.00  0.00    +0.000 NA
ATOM     21  N   UNL     1      -2.797  10.614  17.311  0.00  0.00    +0.000 N 
ATOM     22  C   UNL     1      -3.850  10.520  16.324  0.00  0.00    +0.000 C 
ATOM     23  C   UNL     1      -2.798  11.341  18.474  0.00  0.00    +0.000 A 
ATOM     24  C   UNL     1      -3.984  12.090  18.968  0.00  0.00    +0.000 C 
ENDBRANCH  13  17
TORSDOF 1
ENDMDL
MODEL 7
REMARK VINA RESULT:      -5.9      6.722      9.241
REMARK  Name = 
REMARK  5 active torsions:
REMARK  status: ('A' for Active; 'I' for Inactive)
REMARK    1  A    between atoms: C_1  and  C_2
REMARK    2  A    between atoms: C_13  and  C_14
REMARK    3  A    between atoms: C_15  and  C_16
REMARK    4  A    between atoms: N_18  and  C_19
REMARK    5  A    between atoms: C_20  and  C_21
REMARK                            x       y       z     vdW  Elec       q    Type
REMARK                         _______ _______ _______ _____ _____    ______ ____
ROOT
ATOM      1  C   UNL     1       3.654  17.282  18.660  0.00  0.00    +0.000 C 
ATOM      2  C   UNL     1       2.176  17.111  18.907  0.00  0.00    +0.000 C 
ATOM      3  O   UNL     1       1.490  18.077  19.242  0.00  0.00    +0.000 OA
ATOM      4  N   UNL     1       1.639  15.842  18.714  0.00  0.00    +0.000 N 
ATOM      5  C   UNL     1       2.421  14.632  18.458  0.00  0.00    +0.000 C 
ATOM      6  C   UNL     1       2.866  13.894  19.720  0.00  0.00    +0.000 C 
ATOM      7  C   UNL     1       1.781  13.494  20.726  0.00  0.00    +0.000 C 
ATOM      8  N   UNL     1       0.433  13.566  20.190  0.00  0.00    +0.000 N 
ATOM      9  C   UNL     1      -0.247  12.434  19.810  0.00  0.00    +0.000 A 
ATOM     10  N   UNL     1       0.305  11.240  20.087  0.00  0.00    +0.000 NA
ATOM     11  C   UNL     1      -0.376  10.134  19.752  0.00  0.00    +0.000 A 
ATOM     12  C   UNL     1      -1.585  10.161  19.114  0.00  0.00    +0.000 A 
ATOM     13  C   UNL     1      -2.092  11.413  18.853  0.00  0.00    +0.000 A 
ATOM     14  N   UNL     1      -1.435  12.548  19.188  0.00  0.00    +0.000 NA
ATOM     15  C   UNL     1      -0.208  14.878  20.129  0.00  0.00    +0.000 C 
ATOM     16  C   UNL     1       0.189  15.649  18.864  0.00  0.00    +0.000 C 
ENDROOT
BRANCH  13  17
ATOM     17  C   UNL     1      -3.371  11.550  18.158  0.00  0.00    +0.000 A 
ATOM     18  C   UNL     1      -3.713  11.329  16.789  0.00  0.00    +0.000 A 
ATOM     19  C   UNL     1      -2.896  10.793  15.671  0.00  0.00    +0.000 C 
ATOM     20  N   UNL     1      -4.977  11.678  16.531  0.00  0.00    +0.000 NA
ATOM     21  N   UNL     1      -5.457  12.093  17.713  0.00  0.00    +0.000 N 
ATOM     22  C   UNL     1      -6.800  12.627  17.764  0.00  0.00    +0.000 C 
ATOM     23  C   UNL     1      -4.554  11.990  18.741  0.00  0.00    +0.000 A 
ATOM     24  C   UNL     1      -4.880  12.331  20.151  0.00  0.00    +0.000 C 
ENDBRANCH  13  17
TORSDOF 1
ENDMDL
MODEL 8
REMARK VINA RESULT:      -5.8      5.090      8.271
REMARK  Name = 
REMARK  5 active torsions:
REMARK  status: ('A' for Active; 'I' for Inactive)
REMARK    1  A    between atoms: C_1  and  C_2
REMARK    2  A    between atoms: C_13  and  C_14
REMARK    3  A    between atoms: C_15  and  C_16
REMARK    4  A    between atoms: N_18  and  C_19
REMARK    5  A    between atoms: C_20  and  C_21
REMARK                            x       y       z     vdW  Elec       q    Type
REMARK                         _______ _______ _______ _____ _____    ______ ____
ROOT
ATOM      1  C   UNL     1       2.165   8.129  18.681  0.00  0.00    +0.000 C 
ATOM      2  C   UNL     1       1.504   9.442  18.339  0.00  0.00    +0.000 C 
ATOM      3  O   UNL     1       1.949  10.138  17.425  0.00  0.00    +0.000 OA
ATOM      4  N   UNL     1       0.380   9.801  19.075  0.00  0.00    +0.000 N 
ATOM      5  C   UNL     1      -0.109   9.093  20.258  0.00  0.00    +0.000 C 
ATOM      6  C   UNL     1       0.501   9.575  21.574  0.00  0.00    +0.000 C 
ATOM      7  C   UNL     1       0.394  11.068  21.899  0.00  0.00    +0.000 C 
ATOM      8  N   UNL     1      -0.571  11.777  21.076  0.00  0.00    +0.000 N 
ATOM      9  C   UNL     1      -1.808  12.124  21.563  0.00  0.00    +0.000 A 
ATOM     10  N   UNL     1      -2.052  11.927  22.871  0.00  0.00    +0.000 NA
ATOM     11  C   UNL     1      -3.246  12.302  23.356  0.00  0.00    +0.000 A 
ATOM     12  C   UNL     1      -4.235  12.841  22.582  0.00  0.00    +0.000 A 
ATOM     13  C   UNL     1      -3.925  13.009  21.252  0.00  0.00    +0.000 A 
ATOM     14  N   UNL     1      -2.727  12.652  20.734  0.00  0.00    +0.000 NA
ATOM     15  C   UNL     1      -0.161  12.172  19.730  0.00  0.00    +0.000 C 
ATOM     16  C   UNL     1      -0.343  11.032  18.720  0.00  0.00    +0.000 C 
ENDROOT
BRANCH  13  17
ATOM     17  C   UNL     1      -4.922  13.561  20.336  0.00  0.00    +0.000 A 
ATOM     18  C   UNL     1      -5.481  14.873  20.251  0.00  0.00    +0.000 A 
ATOM     19  C   UNL     1      -5.145  16.109  21.005  0.00  0.00    +0.000 C 
ATOM     20  N   UNL     1      -6.453  14.940  19.337  0.00  0.00    +0.000 NA
ATOM     21  N   UNL     1      -6.509  13.704  18.817  0.00  0.00    +0.000 N 
ATOM     22  C   UNL     1      -7.534  13.413  17.841  0.00  0.00    +0.000 C 
ATOM     23  C   UNL     1      -5.577  12.845  19.341  0.00  0.00    +0.000 A 
ATOM     24  C   UNL     1      -5.407  11.443  18.875  0.00  0.00    +0.000 C 
ENDBRANCH  13  17
TORSDOF 1
ENDMDL
MODEL 9
REMARK VINA RESULT:      -5.7      6.916      9.865
REMARK  Name = 
REMARK  5 active torsions:
REMARK  status: ('A' for Active; 'I' for Inactive)
REMARK    1  A    between atoms: C_1  and  C_2
REMARK    2  A    between atoms: C_13  and  C_14
REMARK    3  A    between atoms: C_15  and  C_16
REMARK    4  A    between atoms: N_18  and  C_19
REMARK    5  A    between atoms: C_20  and  C_21
REMARK                            x       y       z     vdW  Elec       q    Type
REMARK                         _______ _______ _______ _____ _____    ______ ____
ROOT
ATOM      1  C   UNL     1       2.359  18.266  20.179  0.00  0.00    +0.000 C 
ATOM      2  C   UNL     1       0.942  17.762  20.299  0.00  0.00    +0.000 C 
ATOM      3  O   UNL     1       0.070  18.482  20.786  0.00  0.00    +0.000 OA
ATOM      4  N   UNL     1       0.677  16.483  19.820  0.00  0.00    +0.000 N 
ATOM      5  C   UNL     1       1.691  15.531  19.366  0.00  0.00    +0.000 C 
ATOM      6  C   UNL     1       2.257  14.642  20.474  0.00  0.00    +0.000 C 
ATOM      7  C   UNL     1       1.260  13.834  21.311  0.00  0.00    +0.000 C 
ATOM      8  N   UNL     1      -0.067  13.755  20.724  0.00  0.00    +0.000 N 
ATOM      9  C   UNL     1      -0.498  12.620  20.082  0.00  0.00    +0.000 A 
ATOM     10  N   UNL     1       0.280  11.525  20.139  0.00  0.00    +0.000 NA
ATOM     11  C   UNL     1      -0.158  10.405  19.545  0.00  0.00    +0.000 A 
ATOM     12  C   UNL     1      -1.337  10.331  18.858  0.00  0.00    +0.000 A 
ATOM     13  C   UNL     1      -2.083  11.487  18.830  0.00  0.00    +0.000 A 
ATOM     14  N   UNL     1      -1.675  12.630  19.428  0.00  0.00    +0.000 NA
ATOM     15  C   UNL     1      -0.959  14.900  20.897  0.00  0.00    +0.000 C 
ATOM     16  C   UNL     1      -0.707  15.985  19.842  0.00  0.00    +0.000 C 
ENDROOT
BRANCH  13  17
ATOM     17  C   UNL     1      -3.352  11.518  18.106  0.00  0.00    +0.000 A 
ATOM     18  C   UNL     1      -3.652  11.215  16.742  0.00  0.00    +0.000 A 
ATOM     19  C   UNL     1      -2.781  10.677  15.666  0.00  0.00    +0.000 C 
ATOM     20  N   UNL     1      -4.928  11.477  16.445  0.00  0.00    +0.000 NA
ATOM     21  N   UNL     1      -5.457  11.917  17.597  0.00  0.00    +0.000 N 
ATOM     22  C   UNL     1      -6.828  12.372  17.597  0.00  0.00    +0.000 C 
ATOM     23  C   UNL     1      -4.572  11.913  18.645  0.00  0.00    +0.000 A 
ATOM     24  C   UNL     1      -4.947  12.298  20.032  0.00  0.00    +0.000 C 
ENDBRANCH  13  17
TORSDOF 1
ENDMDL
