MODEL 1
REMARK VINA RESULT:      -8.6      0.000      0.000
REMARK  Name = 
REMARK  13 active torsions:
REMARK  status: ('A' for Active; 'I' for Inactive)
REMARK    1  A    between atoms: C_1  and  C_2
REMARK    2  A    between atoms: C_2  and  C_3
REMARK    3  A    between atoms: C_3  and  C_4
REMARK    4  A    between atoms: C_3  and  C_23
REMARK    5  A    between atoms: C_4  and  C_5
REMARK    6  A    between atoms: C_8  and  C_9
REMARK    7  A    between atoms: N_11  and  CA_12
REMARK    8  A    between atoms: CA_12  and  CB_13
REMARK    9  A    between atoms: CA_12  and  C_18
REMARK   10  A    between atoms: CB_13  and  CG_14
REMARK   11  A    between atoms: CG_14  and  CD_15
REMARK   12  A    between atoms: CD_15  and  OE2_17
REMARK   13  A    between atoms: C_18  and  OXT_20
REMARK                            x       y       z     vdW  Elec       q    Type
REMARK                         _______ _______ _______ _____ _____    ______ ____
ROOT
ATOM      1  C   UNK A   0       2.011   8.374  19.010  0.00  0.00    +0.000 A 
ATOM      2  C   UNK A   0       2.198   7.115  19.596  0.00  0.00    +0.000 A 
ATOM      3  C   UNK A   0       3.054   6.174  19.014  0.00  0.00    +0.000 A 
ATOM      4  C   UNK A   0       3.735   6.464  17.825  0.00  0.00    +0.000 A 
ATOM      5  C   UNK A   0       3.561   7.723  17.241  0.00  0.00    +0.000 A 
ATOM      6  C   UNK A   0       2.705   8.665  17.829  0.00  0.00    +0.000 A 
ENDROOT
BRANCH   4   7
ATOM      7  C   UNK A   0       4.596   5.390  17.244  0.00  0.00    +0.000 C 
ATOM      8  O   UNK A   0       4.940   4.434  17.935  0.00  0.00    +0.000 OA
ATOM      9  N   GLU A   1       4.957   5.493  15.920  0.00  0.00    +0.000 N 
ATOM     10  H   GLU A   1       4.646   6.265  15.343  0.00  0.00    +0.000 HD
BRANCH   9  11
ATOM     11  CA  GLU A   1       5.747   4.457  15.253  0.00  0.00    +0.000 C 
BRANCH  11  12
ATOM     12  C   GLU A   1       7.219   4.850  15.431  0.00  0.00    +0.000 C 
ATOM     13  O   GLU A   1       7.821   5.566  14.643  0.00  0.00    +0.000 OA
BRANCH  12  14
ATOM     14  OXT GLU A   1       7.792   4.368  16.556  0.00  0.00    +0.000 OA
ATOM     15  HXT GLU A   1       7.850   3.388  16.608  0.00  0.00    +0.000 HD
ENDBRANCH  12  14
ENDBRANCH  11  12
BRANCH  11  16
ATOM     16  CB  GLU A   1       5.387   4.359  13.755  0.00  0.00    +0.000 C 
BRANCH  16  17
ATOM     17  CG  GLU A   1       6.224   3.363  12.961  0.00  0.00    +0.000 C 
BRANCH  17  18
ATOM     18  CD  GLU A   1       5.385   2.690  11.914  0.00  0.00    +0.000 C 
ATOM     19  OE1 GLU A   1       4.406   3.229  11.414  0.00  0.00    +0.000 OA
BRANCH  18  20
ATOM     20  OE2 GLU A   1       5.855   1.493  11.511  0.00  0.00    +0.000 OA
ATOM     21  HE2 GLU A   1       6.734   1.520  11.084  0.00  0.00    +0.000 HD
ENDBRANCH  18  20
ENDBRANCH  17  18
ENDBRANCH  16  17
ENDBRANCH  11  16
ENDBRANCH   9  11
ENDBRANCH   4   7
BRANCH   1  22
ATOM     22  C   UNK A   0       1.044   9.371  19.621  0.00  0.00    +0.000 C 
BRANCH  22  23
ATOM     23  C   UNK A   0       0.791  10.720  18.892  0.00  0.00    +0.000 C 
BRANCH  23  24
ATOM     24  C   UNK A   0      -0.685  11.041  18.805  0.00  0.00    +0.000 A 
ATOM     25  C   UNK A   0      -1.377  11.704  19.804  0.00  0.00    +0.000 A 
ATOM     26  N   UNK A   0      -2.692  12.021  19.694  0.00  0.00    +0.000 NA
ATOM     27  C   UNK A   0      -3.334  11.692  18.562  0.00  0.00    +0.000 A 
ATOM     28  N   UNK A   0      -4.607  12.045  18.419  0.00  0.00    +0.000 NA
ATOM     29  C   UNK A   0      -5.207  11.756  17.267  0.00  0.00    +0.000 A 
ATOM     30  N   UNK A   0      -6.521  12.143  17.105  0.00  0.00    +0.000 N 
ATOM     31  N   UNK A   0      -4.646  11.097  16.255  0.00  0.00    +0.000 NA
ATOM     32  C   UNK A   0      -3.367  10.740  16.419  0.00  0.00    +0.000 A 
ATOM     33  N   UNK A   0      -2.787  10.000  15.372  0.00  0.00    +0.000 N 
ATOM     34  C   UNK A   0      -2.636  11.005  17.566  0.00  0.00    +0.000 A 
ATOM     35  N   UNK A   0      -1.327  10.663  17.684  0.00  0.00    +0.000 NA
ATOM     36  H   UNK A   0      -6.975  12.241  18.001  0.00  0.00    +0.000 HD
ATOM     37  H   UNK A   0      -6.972  11.557  16.413  0.00  0.00    +0.000 HD
ATOM     38  H   UNK A   0      -3.374  10.052  14.547  0.00  0.00    +0.000 HD
ATOM     39  H   UNK A   0      -1.819  10.283  15.228  0.00  0.00    +0.000 HD
ENDBRANCH  23  24
BRANCH  23  41
ATOM     40  C   UNK A   0       2.328  12.753  18.475  0.00  0.00    +0.000 C 
ATOM     41  C   UNK A   0       1.530  11.940  19.480  0.00  0.00    +0.000 C 
ENDBRANCH  23  41
ENDBRANCH  22  23
ENDBRANCH   1  22
TORSDOF 12
ENDMDL
MODEL 2
REMARK VINA RESULT:      -8.5      0.924      1.832
REMARK  Name = 
REMARK  13 active torsions:
REMARK  status: ('A' for Active; 'I' for Inactive)
REMARK    1  A    between atoms: C_1  and  C_2
REMARK    2  A    between atoms: C_2  and  C_3
REMARK    3  A    between atoms: C_3  and  C_4
REMARK    4  A    between atoms: C_3  and  C_23
REMARK    5  A    between atoms: C_4  and  C_5
REMARK    6  A    between atoms: C_8  and  C_9
REMARK    7  A    between atoms: N_11  and  CA_12
REMARK    8  A    between atoms: CA_12  and  CB_13
REMARK    9  A    between atoms: CA_12  and  C_18
REMARK   10  A    between atoms: CB_13  and  CG_14
REMARK   11  A    between atoms: CG_14  and  CD_15
REMARK   12  A    between atoms: CD_15  and  OE2_17
REMARK   13  A    between atoms: C_18  and  OXT_20
REMARK                            x       y       z     vdW  Elec       q    Type
REMARK                         _______ _______ _______ _____ _____    ______ ____
ROOT
ATOM      1  C   UNK A   0       1.652   8.245  19.599  0.00  0.00    +0.000 A 
ATOM      2  C   UNK A   0       1.892   7.010  20.217  0.00  0.00    +0.000 A 
ATOM      3  C   UNK A   0       2.735   6.065  19.624  0.00  0.00    +0.000 A 
ATOM      4  C   UNK A   0       3.348   6.325  18.392  0.00  0.00    +0.000 A 
ATOM      5  C   UNK A   0       3.121   7.560  17.776  0.00  0.00    +0.000 A 
ATOM      6  C   UNK A   0       2.279   8.507  18.375  0.00  0.00    +0.000 A 
ENDROOT
BRANCH   4   7
ATOM      7  C   UNK A   0       4.198   5.246  17.804  0.00  0.00    +0.000 C 
ATOM      8  O   UNK A   0       4.261   4.146  18.346  0.00  0.00    +0.000 OA
ATOM      9  N   GLU A   1       4.872   5.516  16.634  0.00  0.00    +0.000 N 
ATOM     10  H   GLU A   1       4.793   6.413  16.171  0.00  0.00    +0.000 HD
BRANCH   9  11
ATOM     11  CA  GLU A   1       5.678   4.500  15.955  0.00  0.00    +0.000 C 
BRANCH  11  12
ATOM     12  C   GLU A   1       7.146   4.874  16.202  0.00  0.00    +0.000 C 
ATOM     13  O   GLU A   1       7.937   4.137  16.774  0.00  0.00    +0.000 OA
BRANCH  12  14
ATOM     14  OXT GLU A   1       7.507   6.076  15.700  0.00  0.00    +0.000 OA
ATOM     15  HXT GLU A   1       7.695   6.769  16.371  0.00  0.00    +0.000 HD
ENDBRANCH  12  14
ENDBRANCH  11  12
BRANCH  11  16
ATOM     16  CB  GLU A   1       5.372   4.463  14.443  0.00  0.00    +0.000 C 
BRANCH  16  17
ATOM     17  CG  GLU A   1       6.475   3.856  13.584  0.00  0.00    +0.000 C 
BRANCH  17  18
ATOM     18  CD  GLU A   1       5.887   3.173  12.383  0.00  0.00    +0.000 C 
ATOM     19  OE1 GLU A   1       4.826   3.527  11.883  0.00  0.00    +0.000 OA
BRANCH  18  20
ATOM     20  OE2 GLU A   1       6.667   2.209  11.855  0.00  0.00    +0.000 OA
ATOM     21  HE2 GLU A   1       7.561   2.146  12.245  0.00  0.00    +0.000 HD
ENDBRANCH  18  20
ENDBRANCH  17  18
ENDBRANCH  16  17
ENDBRANCH  11  16
ENDBRANCH   9  11
ENDBRANCH   4   7
BRANCH   1  22
ATOM     22  C   UNK A   0       0.698   9.246  20.225  0.00  0.00    +0.000 C 
BRANCH  22  23
ATOM     23  C   UNK A   0       0.540  10.647  19.572  0.00  0.00    +0.000 C 
BRANCH  23  24
ATOM     24  C   UNK A   0      -0.803  10.798  18.891  0.00  0.00    +0.000 A 
ATOM     25  C   UNK A   0      -1.131  10.155  17.711  0.00  0.00    +0.000 A 
ATOM     26  N   UNK A   0      -2.354  10.268  17.134  0.00  0.00    +0.000 NA
ATOM     27  C   UNK A   0      -3.281  11.020  17.748  0.00  0.00    +0.000 A 
ATOM     28  N   UNK A   0      -4.499  11.096  17.221  0.00  0.00    +0.000 NA
ATOM     29  C   UNK A   0      -5.416  11.804  17.877  0.00  0.00    +0.000 A 
ATOM     30  N   UNK A   0      -6.689  11.864  17.348  0.00  0.00    +0.000 N 
ATOM     31  N   UNK A   0      -5.200  12.484  19.000  0.00  0.00    +0.000 NA
ATOM     32  C   UNK A   0      -3.967  12.407  19.511  0.00  0.00    +0.000 A 
ATOM     33  N   UNK A   0      -3.722  13.165  20.670  0.00  0.00    +0.000 N 
ATOM     34  C   UNK A   0      -2.937  11.684  18.928  0.00  0.00    +0.000 A 
ATOM     35  N   UNK A   0      -1.706  11.593  19.494  0.00  0.00    +0.000 NA
ATOM     36  H   UNK A   0      -6.667  11.699  16.352  0.00  0.00    +0.000 HD
ATOM     37  H   UNK A   0      -7.161  12.699  17.673  0.00  0.00    +0.000 HD
ATOM     38  H   UNK A   0      -4.600  13.478  21.070  0.00  0.00    +0.000 HD
ATOM     39  H   UNK A   0      -3.117  12.654  21.311  0.00  0.00    +0.000 HD
ENDBRANCH  23  24
BRANCH  23  41
ATOM     40  C   UNK A   0       1.633  12.955  19.958  0.00  0.00    +0.000 C 
ATOM     41  C   UNK A   0       0.755  11.848  20.517  0.00  0.00    +0.000 C 
ENDBRANCH  23  41
ENDBRANCH  22  23
ENDBRANCH   1  22
TORSDOF 12
ENDMDL
MODEL 3
REMARK VINA RESULT:      -8.3      2.570      3.767
REMARK  Name = 
REMARK  13 active torsions:
REMARK  status: ('A' for Active; 'I' for Inactive)
REMARK    1  A    between atoms: C_1  and  C_2
REMARK    2  A    between atoms: C_2  and  C_3
REMARK    3  A    between atoms: C_3  and  C_4
REMARK    4  A    between atoms: C_3  and  C_23
REMARK    5  A    between atoms: C_4  and  C_5
REMARK    6  A    between atoms: C_8  and  C_9
REMARK    7  A    between atoms: N_11  and  CA_12
REMARK    8  A    between atoms: CA_12  and  CB_13
REMARK    9  A    between atoms: CA_12  and  C_18
REMARK   10  A    between atoms: CB_13  and  CG_14
REMARK   11  A    between atoms: CG_14  and  CD_15
REMARK   12  A    between atoms: CD_15  and  OE2_17
REMARK   13  A    between atoms: C_18  and  OXT_20
REMARK                            x       y       z     vdW  Elec       q    Type
REMARK                         _______ _______ _______ _____ _____    ______ ____
ROOT
ATOM      1  C   UNK A   0       1.019   9.705  18.843  0.00  0.00    +0.000 A 
ATOM      2  C   UNK A   0       1.037   8.897  19.988  0.00  0.00    +0.000 A 
ATOM      3  C   UNK A   0       1.821   7.740  20.035  0.00  0.00    +0.000 A 
ATOM      4  C   UNK A   0       2.596   7.355  18.933  0.00  0.00    +0.000 A 
ATOM      5  C   UNK A   0       2.591   8.164  17.792  0.00  0.00    +0.000 A 
ATOM      6  C   UNK A   0       1.807   9.325  17.750  0.00  0.00    +0.000 A 
ENDROOT
BRANCH   4   7
ATOM      7  C   UNK A   0       3.371   6.082  19.047  0.00  0.00    +0.000 C 
ATOM      8  O   UNK A   0       3.199   5.339  20.009  0.00  0.00    +0.000 OA
ATOM      9  N   GLU A   1       4.248   5.764  18.034  0.00  0.00    +0.000 N 
ATOM     10  H   GLU A   1       4.365   6.362  17.226  0.00  0.00    +0.000 HD
BRANCH   9  11
ATOM     11  CA  GLU A   1       5.002   4.510  18.033  0.00  0.00    +0.000 C 
BRANCH  11  12
ATOM     12  C   GLU A   1       6.389   4.835  18.603  0.00  0.00    +0.000 C 
ATOM     13  O   GLU A   1       7.431   4.490  18.065  0.00  0.00    +0.000 OA
BRANCH  12  14
ATOM     14  OXT GLU A   1       6.367   5.571  19.737  0.00  0.00    +0.000 OA
ATOM     15  HXT GLU A   1       5.926   6.447  19.658  0.00  0.00    +0.000 HD
ENDBRANCH  12  14
ENDBRANCH  11  12
BRANCH  11  16
ATOM     16  CB  GLU A   1       5.121   3.932  16.607  0.00  0.00    +0.000 C 
BRANCH  16  17
ATOM     17  CG  GLU A   1       5.336   4.971  15.513  0.00  0.00    +0.000 C 
BRANCH  17  18
ATOM     18  CD  GLU A   1       6.547   4.628  14.695  0.00  0.00    +0.000 C 
ATOM     19  OE1 GLU A   1       7.591   5.264  14.772  0.00  0.00    +0.000 OA
BRANCH  18  20
ATOM     20  OE2 GLU A   1       6.416   3.513  13.948  0.00  0.00    +0.000 OA
ATOM     21  HE2 GLU A   1       6.545   2.675  14.436  0.00  0.00    +0.000 HD
ENDBRANCH  18  20
ENDBRANCH  17  18
ENDBRANCH  16  17
ENDBRANCH  11  16
ENDBRANCH   9  11
ENDBRANCH   4   7
BRANCH   1  22
ATOM     22  C   UNK A   0       0.129  10.933  18.782  0.00  0.00    +0.000 C 
BRANCH  22  23
ATOM     23  C   UNK A   0       0.335  12.066  19.824  0.00  0.00    +0.000 C 
BRANCH  23  24
ATOM     24  C   UNK A   0      -0.718  12.024  20.911  0.00  0.00    +0.000 A 
ATOM     25  C   UNK A   0      -0.497  11.467  22.159  0.00  0.00    +0.000 A 
ATOM     26  N   UNK A   0      -1.437  11.474  23.138  0.00  0.00    +0.000 NA
ATOM     27  C   UNK A   0      -2.617  12.062  22.884  0.00  0.00    +0.000 A 
ATOM     28  N   UNK A   0      -3.526  12.123  23.851  0.00  0.00    +0.000 NA
ATOM     29  C   UNK A   0      -4.667  12.758  23.592  0.00  0.00    +0.000 A 
ATOM     30  N   UNK A   0      -5.603  12.846  24.602  0.00  0.00    +0.000 N 
ATOM     31  N   UNK A   0      -4.993  13.302  22.422  0.00  0.00    +0.000 NA
ATOM     32  C   UNK A   0      -4.071  13.223  21.456  0.00  0.00    +0.000 A 
ATOM     33  N   UNK A   0      -4.433  13.753  20.204  0.00  0.00    +0.000 N 
ATOM     34  C   UNK A   0      -2.841  12.604  21.616  0.00  0.00    +0.000 A 
ATOM     35  N   UNK A   0      -1.912  12.577  20.626  0.00  0.00    +0.000 NA
ATOM     36  H   UNK A   0      -5.479  12.097  25.267  0.00  0.00    +0.000 HD
ATOM     37  H   UNK A   0      -6.527  12.974  24.208  0.00  0.00    +0.000 HD
ATOM     38  H   UNK A   0      -5.265  14.323  20.298  0.00  0.00    +0.000 HD
ATOM     39  H   UNK A   0      -3.638  14.221  19.771  0.00  0.00    +0.000 HD
ENDBRANCH  23  24
BRANCH  23  41
ATOM     40  C   UNK A   0       2.505  13.400  20.251  0.00  0.00    +0.000 C 
ATOM     41  C   UNK A   0       1.728  12.115  20.485  0.00  0.00    +0.000 C 
ENDBRANCH  23  41
ENDBRANCH  22  23
ENDBRANCH   1  22
TORSDOF 12
ENDMDL
MODEL 4
REMARK VINA RESULT:      -8.3      3.187      5.261
REMARK  Name = 
REMARK  13 active torsions:
REMARK  status: ('A' for Active; 'I' for Inactive)
REMARK    1  A    between atoms: C_1  and  C_2
REMARK    2  A    between atoms: C_2  and  C_3
REMARK    3  A    between atoms: C_3  and  C_4
REMARK    4  A    between atoms: C_3  and  C_23
REMARK    5  A    between atoms: C_4  and  C_5
REMARK    6  A    between atoms: C_8  and  C_9
REMARK    7  A    between atoms: N_11  and  CA_12
REMARK    8  A    between atoms: CA_12  and  CB_13
REMARK    9  A    between atoms: CA_12  and  C_18
REMARK   10  A    between atoms: CB_13  and  CG_14
REMARK   11  A    between atoms: CG_14  and  CD_15
REMARK   12  A    between atoms: CD_15  and  OE2_17
REMARK   13  A    between atoms: C_18  and  OXT_20
REMARK                            x       y       z     vdW  Elec       q    Type
REMARK                         _______ _______ _______ _____ _____    ______ ____
ROOT
ATOM      1  C   UNK A   0       1.167   9.709  19.037  0.00  0.00    +0.000 A 
ATOM      2  C   UNK A   0       1.848   9.299  17.883  0.00  0.00    +0.000 A 
ATOM      3  C   UNK A   0       2.540   8.084  17.853  0.00  0.00    +0.000 A 
ATOM      4  C   UNK A   0       2.579   7.254  18.981  0.00  0.00    +0.000 A 
ATOM      5  C   UNK A   0       1.892   7.652  20.132  0.00  0.00    +0.000 A 
ATOM      6  C   UNK A   0       1.196   8.869  20.157  0.00  0.00    +0.000 A 
ENDROOT
BRANCH   4   7
ATOM      7  C   UNK A   0       3.376   5.994  18.882  0.00  0.00    +0.000 C 
ATOM      8  O   UNK A   0       3.765   5.429  19.901  0.00  0.00    +0.000 OA
ATOM      9  N   GLU A   1       3.626   5.481  17.629  0.00  0.00    +0.000 N 
ATOM     10  H   GLU A   1       3.277   5.930  16.792  0.00  0.00    +0.000 HD
BRANCH   9  11
ATOM     11  CA  GLU A   1       4.345   4.220  17.442  0.00  0.00    +0.000 C 
BRANCH  11  12
ATOM     12  C   GLU A   1       5.325   4.446  16.283  0.00  0.00    +0.000 C 
ATOM     13  O   GLU A   1       5.469   5.527  15.730  0.00  0.00    +0.000 OA
BRANCH  12  14
ATOM     14  OXT GLU A   1       6.049   3.356  15.944  0.00  0.00    +0.000 OA
ATOM     15  HXT GLU A   1       5.618   2.493  16.137  0.00  0.00    +0.000 HD
ENDBRANCH  12  14
ENDBRANCH  11  12
BRANCH  11  16
ATOM     16  CB  GLU A   1       3.373   3.067  17.116  0.00  0.00    +0.000 C 
BRANCH  16  17
ATOM     17  CG  GLU A   1       2.653   2.478  18.323  0.00  0.00    +0.000 C 
BRANCH  17  18
ATOM     18  CD  GLU A   1       1.206   2.876  18.316  0.00  0.00    +0.000 C 
ATOM     19  OE1 GLU A   1       0.365   2.299  18.993  0.00  0.00    +0.000 OA
BRANCH  18  20
ATOM     20  OE2 GLU A   1       0.935   3.973  17.580  0.00  0.00    +0.000 OA
ATOM     21  HE2 GLU A   1       0.118   3.915  17.046  0.00  0.00    +0.000 HD
ENDBRANCH  18  20
ENDBRANCH  17  18
ENDBRANCH  16  17
ENDBRANCH  11  16
ENDBRANCH   9  11
ENDBRANCH   4   7
BRANCH   1  22
ATOM     22  C   UNK A   0       0.460  11.051  19.078  0.00  0.00    +0.000 C 
BRANCH  22  23
ATOM     23  C   UNK A   0      -0.928  11.151  19.769  0.00  0.00    +0.000 C 
BRANCH  23  24
ATOM     24  C   UNK A   0      -0.891  12.075  20.966  0.00  0.00    +0.000 A 
ATOM     25  C   UNK A   0       0.203  12.861  21.284  0.00  0.00    +0.000 A 
ATOM     26  N   UNK A   0       0.205  13.716  22.338  0.00  0.00    +0.000 NA
ATOM     27  C   UNK A   0      -0.906  13.810  23.085  0.00  0.00    +0.000 A 
ATOM     28  N   UNK A   0      -0.935  14.682  24.087  0.00  0.00    +0.000 NA
ATOM     29  C   UNK A   0      -2.066  14.796  24.779  0.00  0.00    +0.000 A 
ATOM     30  N   UNK A   0      -2.109  15.719  25.804  0.00  0.00    +0.000 N 
ATOM     31  N   UNK A   0      -3.164  14.071  24.578  0.00  0.00    +0.000 NA
ATOM     32  C   UNK A   0      -3.115  13.190  23.573  0.00  0.00    +0.000 A 
ATOM     33  N   UNK A   0      -4.256  12.387  23.390  0.00  0.00    +0.000 N 
ATOM     34  C   UNK A   0      -1.999  12.998  22.772  0.00  0.00    +0.000 A 
ATOM     35  N   UNK A   0      -1.996  12.124  21.734  0.00  0.00    +0.000 NA
ATOM     36  H   UNK A   0      -1.180  15.907  26.151  0.00  0.00    +0.000 HD
ATOM     37  H   UNK A   0      -2.816  15.455  26.479  0.00  0.00    +0.000 HD
ATOM     38  H   UNK A   0      -5.034  12.768  23.917  0.00  0.00    +0.000 HD
ATOM     39  H   UNK A   0      -4.438  12.245  22.398  0.00  0.00    +0.000 HD
ENDBRANCH  23  24
BRANCH  23  41
ATOM     40  C   UNK A   0      -2.419  10.597  17.734  0.00  0.00    +0.000 C 
ATOM     41  C   UNK A   0      -2.096  11.572  18.853  0.00  0.00    +0.000 C 
ENDBRANCH  23  41
ENDBRANCH  22  23
ENDBRANCH   1  22
TORSDOF 12
ENDMDL
MODEL 5
REMARK VINA RESULT:      -8.1      2.698      4.259
REMARK  Name = 
REMARK  13 active torsions:
REMARK  status: ('A' for Active; 'I' for Inactive)
REMARK    1  A    between atoms: C_1  and  C_2
REMARK    2  A    between atoms: C_2  and  C_3
REMARK    3  A    between atoms: C_3  and  C_4
REMARK    4  A    between atoms: C_3  and  C_23
REMARK    5  A    between atoms: C_4  and  C_5
REMARK    6  A    between atoms: C_8  and  C_9
REMARK    7  A    between atoms: N_11  and  CA_12
REMARK    8  A    between atoms: CA_12  and  CB_13
REMARK    9  A    between atoms: CA_12  and  C_18
REMARK   10  A    between atoms: CB_13  and  CG_14
REMARK   11  A    between atoms: CG_14  and  CD_15
REMARK   12  A    between atoms: CD_15  and  OE2_17
REMARK   13  A    between atoms: C_18  and  OXT_20
REMARK                            x       y       z     vdW  Elec       q    Type
REMARK                         _______ _______ _______ _____ _____    ______ ____
ROOT
ATOM      1  C   UNK A   0       1.166   9.700  19.178  0.00  0.00    +0.000 A 
ATOM      2  C   UNK A   0       1.245   8.844  20.285  0.00  0.00    +0.000 A 
ATOM      3  C   UNK A   0       1.852   7.589  20.178  0.00  0.00    +0.000 A 
ATOM      4  C   UNK A   0       2.385   7.153  18.958  0.00  0.00    +0.000 A 
ATOM      5  C   UNK A   0       2.321   8.008  17.853  0.00  0.00    +0.000 A 
ATOM      6  C   UNK A   0       1.714   9.267  17.965  0.00  0.00    +0.000 A 
ENDROOT
BRANCH   4   7
ATOM      7  C   UNK A   0       2.978   5.782  18.915  0.00  0.00    +0.000 C 
ATOM      8  O   UNK A   0       2.705   4.964  19.789  0.00  0.00    +0.000 OA
ATOM      9  N   GLU A   1       3.802   5.465  17.859  0.00  0.00    +0.000 N 
ATOM     10  H   GLU A   1       4.001   6.129  17.122  0.00  0.00    +0.000 HD
BRANCH   9  11
ATOM     11  CA  GLU A   1       4.377   4.128  17.704  0.00  0.00    +0.000 C 
BRANCH  11  12
ATOM     12  C   GLU A   1       5.271   3.894  18.929  0.00  0.00    +0.000 C 
ATOM     13  O   GLU A   1       6.152   4.669  19.272  0.00  0.00    +0.000 OA
BRANCH  12  14
ATOM     14  OXT GLU A   1       4.981   2.772  19.625  0.00  0.00    +0.000 OA
ATOM     15  HXT GLU A   1       4.087   2.396  19.458  0.00  0.00    +0.000 HD
ENDBRANCH  12  14
ENDBRANCH  11  12
BRANCH  11  16
ATOM     16  CB  GLU A   1       5.198   4.021  16.402  0.00  0.00    +0.000 C 
BRANCH  16  17
ATOM     17  CG  GLU A   1       5.700   5.350  15.853  0.00  0.00    +0.000 C 
BRANCH  17  18
ATOM     18  CD  GLU A   1       7.121   5.589  16.275  0.00  0.00    +0.000 C 
ATOM     19  OE1 GLU A   1       7.581   6.714  16.421  0.00  0.00    +0.000 OA
BRANCH  18  20
ATOM     20  OE2 GLU A   1       7.809   4.467  16.567  0.00  0.00    +0.000 OA
ATOM     21  HE2 GLU A   1       7.313   3.635  16.435  0.00  0.00    +0.000 HD
ENDBRANCH  18  20
ENDBRANCH  17  18
ENDBRANCH  16  17
ENDBRANCH  11  16
ENDBRANCH   9  11
ENDBRANCH   4   7
BRANCH   1  22
ATOM     22  C   UNK A   0       0.462  11.040  19.291  0.00  0.00    +0.000 C 
BRANCH  22  23
ATOM     23  C   UNK A   0      -1.089  11.085  19.224  0.00  0.00    +0.000 C 
BRANCH  23  24
ATOM     24  C   UNK A   0      -1.674  11.896  20.360  0.00  0.00    +0.000 A 
ATOM     25  C   UNK A   0      -1.077  12.001  21.604  0.00  0.00    +0.000 A 
ATOM     26  N   UNK A   0      -1.592  12.766  22.599  0.00  0.00    +0.000 NA
ATOM     27  C   UNK A   0      -2.715  13.458  22.354  0.00  0.00    +0.000 A 
ATOM     28  N   UNK A   0      -3.201  14.253  23.302  0.00  0.00    +0.000 NA
ATOM     29  C   UNK A   0      -4.285  14.970  23.017  0.00  0.00    +0.000 A 
ATOM     30  N   UNK A   0      -4.777  15.816  23.990  0.00  0.00    +0.000 N 
ATOM     31  N   UNK A   0      -4.954  14.924  21.867  0.00  0.00    +0.000 NA
ATOM     32  C   UNK A   0      -4.458  14.112  20.927  0.00  0.00    +0.000 A 
ATOM     33  N   UNK A   0      -5.192  14.023  19.730  0.00  0.00    +0.000 N 
ATOM     34  C   UNK A   0      -3.326  13.332  21.103  0.00  0.00    +0.000 A 
ATOM     35  N   UNK A   0      -2.826  12.548  20.114  0.00  0.00    +0.000 NA
ATOM     36  H   UNK A   0      -4.500  15.500  24.907  0.00  0.00    +0.000 HD
ATOM     37  H   UNK A   0      -5.762  15.989  23.832  0.00  0.00    +0.000 HD
ATOM     38  H   UNK A   0      -5.869  14.776  19.683  0.00  0.00    +0.000 HD
ATOM     39  H   UNK A   0      -4.563  13.961  18.930  0.00  0.00    +0.000 HD
ENDBRANCH  23  24
BRANCH  23  41
ATOM     40  C   UNK A   0      -2.323  10.527  17.025  0.00  0.00    +0.000 C 
ATOM     41  C   UNK A   0      -1.682  11.596  17.894  0.00  0.00    +0.000 C 
ENDBRANCH  23  41
ENDBRANCH  22  23
ENDBRANCH   1  22
TORSDOF 12
ENDMDL
MODEL 6
REMARK VINA RESULT:      -8.1      3.206      5.025
REMARK  Name = 
REMARK  13 active torsions:
REMARK  status: ('A' for Active; 'I' for Inactive)
REMARK    1  A    between atoms: C_1  and  C_2
REMARK    2  A    between atoms: C_2  and  C_3
REMARK    3  A    between atoms: C_3  and  C_4
REMARK    4  A    between atoms: C_3  and  C_23
REMARK    5  A    between atoms: C_4  and  C_5
REMARK    6  A    between atoms: C_8  and  C_9
REMARK    7  A    between atoms: N_11  and  CA_12
REMARK    8  A    between atoms: CA_12  and  CB_13
REMARK    9  A    between atoms: CA_12  and  C_18
REMARK   10  A    between atoms: CB_13  and  CG_14
REMARK   11  A    between atoms: CG_14  and  CD_15
REMARK   12  A    between atoms: CD_15  and  OE2_17
REMARK   13  A    between atoms: C_18  and  OXT_20
REMARK                            x       y       z     vdW  Elec       q    Type
REMARK                         _______ _______ _______ _____ _____    ______ ____
ROOT
ATOM      1  C   UNK A   0       1.060  10.300  19.317  0.00  0.00    +0.000 A 
ATOM      2  C   UNK A   0       1.620  10.076  18.052  0.00  0.00    +0.000 A 
ATOM      3  C   UNK A   0       2.211   8.849  17.736  0.00  0.00    +0.000 A 
ATOM      4  C   UNK A   0       2.268   7.818  18.682  0.00  0.00    +0.000 A 
ATOM      5  C   UNK A   0       1.701   8.030  19.943  0.00  0.00    +0.000 A 
ATOM      6  C   UNK A   0       1.106   9.261  20.255  0.00  0.00    +0.000 A 
ENDROOT
BRANCH   4   7
ATOM      7  C   UNK A   0       2.955   6.553  18.282  0.00  0.00    +0.000 C 
ATOM      8  O   UNK A   0       3.915   6.587  17.516  0.00  0.00    +0.000 OA
ATOM      9  N   GLU A   1       2.501   5.370  18.820  0.00  0.00    +0.000 N 
ATOM     10  H   GLU A   1       1.730   5.346  19.476  0.00  0.00    +0.000 HD
BRANCH   9  11
ATOM     11  CA  GLU A   1       3.152   4.091  18.532  0.00  0.00    +0.000 C 
BRANCH  11  12
ATOM     12  C   GLU A   1       2.205   3.321  17.602  0.00  0.00    +0.000 C 
ATOM     13  O   GLU A   1       2.471   2.221  17.139  0.00  0.00    +0.000 OA
BRANCH  12  14
ATOM     14  OXT GLU A   1       1.030   3.943  17.362  0.00  0.00    +0.000 OA
ATOM     15  HXT GLU A   1       1.043   4.920  17.480  0.00  0.00    +0.000 HD
ENDBRANCH  12  14
ENDBRANCH  11  12
BRANCH  11  16
ATOM     16  CB  GLU A   1       3.411   3.293  19.827  0.00  0.00    +0.000 C 
BRANCH  16  17
ATOM     17  CG  GLU A   1       2.703   3.834  21.063  0.00  0.00    +0.000 C 
BRANCH  17  18
ATOM     18  CD  GLU A   1       1.441   3.063  21.323  0.00  0.00    +0.000 C 
ATOM     19  OE1 GLU A   1       1.310   2.331  22.296  0.00  0.00    +0.000 OA
BRANCH  18  20
ATOM     20  OE2 GLU A   1       0.444   3.318  20.453  0.00  0.00    +0.000 OA
ATOM     21  HE2 GLU A   1      -0.321   3.792  20.834  0.00  0.00    +0.000 HD
ENDBRANCH  18  20
ENDBRANCH  17  18
ENDBRANCH  16  17
ENDBRANCH  11  16
ENDBRANCH   9  11
ENDBRANCH   4   7
BRANCH   1  22
ATOM     22  C   UNK A   0       0.464  11.651  19.667  0.00  0.00    +0.000 C 
BRANCH  22  23
ATOM     23  C   UNK A   0      -0.269  12.461  18.563  0.00  0.00    +0.000 C 
BRANCH  23  24
ATOM     24  C   UNK A   0      -1.750  12.152  18.533  0.00  0.00    +0.000 A 
ATOM     25  C   UNK A   0      -2.362  11.469  17.496  0.00  0.00    +0.000 A 
ATOM     26  N   UNK A   0      -3.684  11.163  17.503  0.00  0.00    +0.000 NA
ATOM     27  C   UNK A   0      -4.416  11.526  18.567  0.00  0.00    +0.000 A 
ATOM     28  N   UNK A   0      -5.700  11.186  18.610  0.00  0.00    +0.000 NA
ATOM     29  C   UNK A   0      -6.392  11.509  19.701  0.00  0.00    +0.000 A 
ATOM     30  N   UNK A   0      -7.719  11.136  19.760  0.00  0.00    +0.000 N 
ATOM     31  N   UNK A   0      -5.912  12.190  20.739  0.00  0.00    +0.000 NA
ATOM     32  C   UNK A   0      -4.622  12.534  20.675  0.00  0.00    +0.000 A 
ATOM     33  N   UNK A   0      -4.126  13.296  21.748  0.00  0.00    +0.000 N 
ATOM     34  C   UNK A   0      -3.798  12.235  19.601  0.00  0.00    +0.000 A 
ATOM     35  N   UNK A   0      -2.481  12.563  19.586  0.00  0.00    +0.000 NA
ATOM     36  H   UNK A   0      -8.096  11.018  18.832  0.00  0.00    +0.000 HD
ATOM     37  H   UNK A   0      -8.222  11.743  20.396  0.00  0.00    +0.000 HD
ATOM     38  H   UNK A   0      -4.780  13.270  22.522  0.00  0.00    +0.000 HD
ATOM     39  H   UNK A   0      -3.175  13.011  21.981  0.00  0.00    +0.000 HD
ENDBRANCH  23  24
BRANCH  23  41
ATOM     40  C   UNK A   0       0.685  14.492  19.840  0.00  0.00    +0.000 C 
ATOM     41  C   UNK A   0      -0.083  13.991  18.629  0.00  0.00    +0.000 C 
ENDBRANCH  23  41
ENDBRANCH  22  23
ENDBRANCH   1  22
TORSDOF 12
ENDMDL
MODEL 7
REMARK VINA RESULT:      -8.1      2.181      3.455
REMARK  Name = 
REMARK  13 active torsions:
REMARK  status: ('A' for Active; 'I' for Inactive)
REMARK    1  A    between atoms: C_1  and  C_2
REMARK    2  A    between atoms: C_2  and  C_3
REMARK    3  A    between atoms: C_3  and  C_4
REMARK    4  A    between atoms: C_3  and  C_23
REMARK    5  A    between atoms: C_4  and  C_5
REMARK    6  A    between atoms: C_8  and  C_9
REMARK    7  A    between atoms: N_11  and  CA_12
REMARK    8  A    between atoms: CA_12  and  CB_13
REMARK    9  A    between atoms: CA_12  and  C_18
REMARK   10  A    between atoms: CB_13  and  CG_14
REMARK   11  A    between atoms: CG_14  and  CD_15
REMARK   12  A    between atoms: CD_15  and  OE2_17
REMARK   13  A    between atoms: C_18  and  OXT_20
REMARK                            x       y       z     vdW  Elec       q    Type
REMARK                         _______ _______ _______ _____ _____    ______ ____
ROOT
ATOM      1  C   UNK A   0       1.190   9.947  19.497  0.00  0.00    +0.000 A 
ATOM      2  C   UNK A   0       1.196   9.006  20.536  0.00  0.00    +0.000 A 
ATOM      3  C   UNK A   0       1.661   7.705  20.321  0.00  0.00    +0.000 A 
ATOM      4  C   UNK A   0       2.121   7.308  19.059  0.00  0.00    +0.000 A 
ATOM      5  C   UNK A   0       2.129   8.245  18.021  0.00  0.00    +0.000 A 
ATOM      6  C   UNK A   0       1.665   9.550  18.241  0.00  0.00    +0.000 A 
ENDROOT
BRANCH   4   7
ATOM      7  C   UNK A   0       2.560   5.889  18.901  0.00  0.00    +0.000 C 
ATOM      8  O   UNK A   0       1.890   4.978  19.380  0.00  0.00    +0.000 OA
ATOM      9  N   GLU A   1       3.709   5.641  18.182  0.00  0.00    +0.000 N 
ATOM     10  H   GLU A   1       4.243   6.391  17.760  0.00  0.00    +0.000 HD
BRANCH   9  11
ATOM     11  CA  GLU A   1       4.179   4.280  17.925  0.00  0.00    +0.000 C 
BRANCH  11  12
ATOM     12  C   GLU A   1       5.095   3.907  19.099  0.00  0.00    +0.000 C 
ATOM     13  O   GLU A   1       4.994   2.858  19.719  0.00  0.00    +0.000 OA
BRANCH  12  14
ATOM     14  OXT GLU A   1       6.052   4.821  19.371  0.00  0.00    +0.000 OA
ATOM     15  HXT GLU A   1       5.749   5.602  19.886  0.00  0.00    +0.000 HD
ENDBRANCH  12  14
ENDBRANCH  11  12
BRANCH  11  16
ATOM     16  CB  GLU A   1       4.947   4.197  16.589  0.00  0.00    +0.000 C 
BRANCH  16  17
ATOM     17  CG  GLU A   1       5.408   5.540  16.034  0.00  0.00    +0.000 C 
BRANCH  17  18
ATOM     18  CD  GLU A   1       6.907   5.617  16.028  0.00  0.00    +0.000 C 
ATOM     19  OE1 GLU A   1       7.556   5.812  17.048  0.00  0.00    +0.000 OA
BRANCH  18  20
ATOM     20  OE2 GLU A   1       7.472   5.363  14.831  0.00  0.00    +0.000 OA
ATOM     21  HE2 GLU A   1       7.239   4.496  14.444  0.00  0.00    +0.000 HD
ENDBRANCH  18  20
ENDBRANCH  17  18
ENDBRANCH  16  17
ENDBRANCH  11  16
ENDBRANCH   9  11
ENDBRANCH   4   7
BRANCH   1  22
ATOM     22  C   UNK A   0       0.638  11.342  19.725  0.00  0.00    +0.000 C 
BRANCH  22  23
ATOM     23  C   UNK A   0       0.001  12.105  18.532  0.00  0.00    +0.000 C 
BRANCH  23  24
ATOM     24  C   UNK A   0      -1.487  11.844  18.432  0.00  0.00    +0.000 A 
ATOM     25  C   UNK A   0      -2.054  11.054  17.447  0.00  0.00    +0.000 A 
ATOM     26  N   UNK A   0      -3.385  10.796  17.395  0.00  0.00    +0.000 NA
ATOM     27  C   UNK A   0      -4.173  11.316  18.349  0.00  0.00    +0.000 A 
ATOM     28  N   UNK A   0      -5.470  11.027  18.340  0.00  0.00    +0.000 NA
ATOM     29  C   UNK A   0      -6.221  11.509  19.328  0.00  0.00    +0.000 A 
ATOM     30  N   UNK A   0      -7.563  11.190  19.336  0.00  0.00    +0.000 N 
ATOM     31  N   UNK A   0      -5.785  12.301  20.305  0.00  0.00    +0.000 NA
ATOM     32  C   UNK A   0      -4.480  12.591  20.294  0.00  0.00    +0.000 A 
ATOM     33  N   UNK A   0      -4.027  13.467  21.296  0.00  0.00    +0.000 N 
ATOM     34  C   UNK A   0      -3.598  12.130  19.328  0.00  0.00    +0.000 A 
ATOM     35  N   UNK A   0      -2.270  12.410  19.369  0.00  0.00    +0.000 NA
ATOM     36  H   UNK A   0      -7.880  10.967  18.404  0.00  0.00    +0.000 HD
ATOM     37  H   UNK A   0      -8.082  11.890  19.852  0.00  0.00    +0.000 HD
ATOM     38  H   UNK A   0      -4.733  13.562  22.017  0.00  0.00    +0.000 HD
ATOM     39  H   UNK A   0      -3.107  13.183  21.631  0.00  0.00    +0.000 HD
ENDBRANCH  23  24
BRANCH  23  41
ATOM     40  C   UNK A   0       1.019  14.170  19.702  0.00  0.00    +0.000 C 
ATOM     41  C   UNK A   0       0.238  13.629  18.515  0.00  0.00    +0.000 C 
ENDBRANCH  23  41
ENDBRANCH  22  23
ENDBRANCH   1  22
TORSDOF 12
ENDMDL
MODEL 8
REMARK VINA RESULT:      -8.1      2.336      3.071
REMARK  Name = 
REMARK  13 active torsions:
REMARK  status: ('A' for Active; 'I' for Inactive)
REMARK    1  A    between atoms: C_1  and  C_2
REMARK    2  A    between atoms: C_2  and  C_3
REMARK    3  A    between atoms: C_3  and  C_4
REMARK    4  A    between atoms: C_3  and  C_23
REMARK    5  A    between atoms: C_4  and  C_5
REMARK    6  A    between atoms: C_8  and  C_9
REMARK    7  A    between atoms: N_11  and  CA_12
REMARK    8  A    between atoms: CA_12  and  CB_13
REMARK    9  A    between atoms: CA_12  and  C_18
REMARK   10  A    between atoms: CB_13  and  CG_14
REMARK   11  A    between atoms: CG_14  and  CD_15
REMARK   12  A    between atoms: CD_15  and  OE2_17
REMARK   13  A    between atoms: C_18  and  OXT_20
REMARK                            x       y       z     vdW  Elec       q    Type
REMARK                         _______ _______ _______ _____ _____    ______ ____
ROOT
ATOM      1  C   UNK A   0       1.289   9.171  20.098  0.00  0.00    +0.000 A 
ATOM      2  C   UNK A   0       1.346   7.963  20.806  0.00  0.00    +0.000 A 
ATOM      3  C   UNK A   0       1.733   6.779  20.172  0.00  0.00    +0.000 A 
ATOM      4  C   UNK A   0       2.060   6.770  18.810  0.00  0.00    +0.000 A 
ATOM      5  C   UNK A   0       2.017   7.975  18.100  0.00  0.00    +0.000 A 
ATOM      6  C   UNK A   0       1.632   9.161  18.741  0.00  0.00    +0.000 A 
ENDROOT
BRANCH   4   7
ATOM      7  C   UNK A   0       2.421   5.457  18.196  0.00  0.00    +0.000 C 
ATOM      8  O   UNK A   0       1.544   4.640  17.926  0.00  0.00    +0.000 OA
ATOM      9  N   GLU A   1       3.748   5.212  17.919  0.00  0.00    +0.000 N 
ATOM     10  H   GLU A   1       4.465   5.899  18.113  0.00  0.00    +0.000 HD
BRANCH   9  11
ATOM     11  CA  GLU A   1       4.184   3.979  17.263  0.00  0.00    +0.000 C 
BRANCH  11  12
ATOM     12  C   GLU A   1       4.493   2.976  18.383  0.00  0.00    +0.000 C 
ATOM     13  O   GLU A   1       5.002   3.298  19.447  0.00  0.00    +0.000 OA
BRANCH  12  14
ATOM     14  OXT GLU A   1       4.121   1.705  18.111  0.00  0.00    +0.000 OA
ATOM     15  HXT GLU A   1       3.155   1.533  18.163  0.00  0.00    +0.000 HD
ENDBRANCH  12  14
ENDBRANCH  11  12
BRANCH  11  16
ATOM     16  CB  GLU A   1       5.433   4.223  16.391  0.00  0.00    +0.000 C 
BRANCH  16  17
ATOM     17  CG  GLU A   1       5.702   5.686  16.056  0.00  0.00    +0.000 C 
BRANCH  17  18
ATOM     18  CD  GLU A   1       6.746   6.250  16.975  0.00  0.00    +0.000 C 
ATOM     19  OE1 GLU A   1       6.659   6.167  18.194  0.00  0.00    +0.000 OA
BRANCH  18  20
ATOM     20  OE2 GLU A   1       7.820   6.767  16.346  0.00  0.00    +0.000 OA
ATOM     21  HE2 GLU A   1       7.705   6.905  15.385  0.00  0.00    +0.000 HD
ENDBRANCH  18  20
ENDBRANCH  17  18
ENDBRANCH  16  17
ENDBRANCH  11  16
ENDBRANCH   9  11
ENDBRANCH   4   7
BRANCH   1  22
ATOM     22  C   UNK A   0       0.821  10.443  20.782  0.00  0.00    +0.000 C 
BRANCH  22  23
ATOM     23  C   UNK A   0       0.494  11.689  19.914  0.00  0.00    +0.000 C 
BRANCH  23  24
ATOM     24  C   UNK A   0      -0.985  11.784  19.607  0.00  0.00    +0.000 A 
ATOM     25  C   UNK A   0      -1.914  12.291  20.499  0.00  0.00    +0.000 A 
ATOM     26  N   UNK A   0      -3.231  12.408  20.193  0.00  0.00    +0.000 NA
ATOM     27  C   UNK A   0      -3.637  12.031  18.970  0.00  0.00    +0.000 A 
ATOM     28  N   UNK A   0      -4.914  12.190  18.639  0.00  0.00    +0.000 NA
ATOM     29  C   UNK A   0      -5.282  11.860  17.403  0.00  0.00    +0.000 A 
ATOM     30  N   UNK A   0      -6.602  12.048  17.048  0.00  0.00    +0.000 N 
ATOM     31  N   UNK A   0      -4.479  11.338  16.479  0.00  0.00    +0.000 NA
ATOM     32  C   UNK A   0      -3.200  11.174  16.831  0.00  0.00    +0.000 A 
ATOM     33  N   UNK A   0      -2.361  10.576  15.873  0.00  0.00    +0.000 N 
ATOM     34  C   UNK A   0      -2.698  11.500  18.082  0.00  0.00    +0.000 A 
ATOM     35  N   UNK A   0      -1.385  11.359  18.393  0.00  0.00    +0.000 NA
ATOM     36  H   UNK A   0      -7.194  12.038  17.865  0.00  0.00    +0.000 HD
ATOM     37  H   UNK A   0      -6.847  11.428  16.285  0.00  0.00    +0.000 HD
ATOM     38  H   UNK A   0      -2.818  10.571  14.968  0.00  0.00    +0.000 HD
ATOM     39  H   UNK A   0      -1.438  11.010  15.885  0.00  0.00    +0.000 HD
ENDBRANCH  23  24
BRANCH  23  41
ATOM     40  C   UNK A   0       1.377  14.071  19.449  0.00  0.00    +0.000 C 
ATOM     41  C   UNK A   0       0.968  13.041  20.488  0.00  0.00    +0.000 C 
ENDBRANCH  23  41
ENDBRANCH  22  23
ENDBRANCH   1  22
TORSDOF 12
ENDMDL
MODEL 9
REMARK VINA RESULT:      -8.1      1.427      2.282
REMARK  Name = 
REMARK  13 active torsions:
REMARK  status: ('A' for Active; 'I' for Inactive)
REMARK    1  A    between atoms: C_1  and  C_2
REMARK    2  A    between atoms: C_2  and  C_3
REMARK    3  A    between atoms: C_3  and  C_4
REMARK    4  A    between atoms: C_3  and  C_23
REMARK    5  A    between atoms: C_4  and  C_5
REMARK    6  A    between atoms: C_8  and  C_9
REMARK    7  A    between atoms: N_11  and  CA_12
REMARK    8  A    between atoms: CA_12  and  CB_13
REMARK    9  A    between atoms: CA_12  and  C_18
REMARK   10  A    between atoms: CB_13  and  CG_14
REMARK   11  A    between atoms: CG_14  and  CD_15
REMARK   12  A    between atoms: CD_15  and  OE2_17
REMARK   13  A    between atoms: C_18  and  OXT_20
REMARK                            x       y       z     vdW  Elec       q    Type
REMARK                         _______ _______ _______ _____ _____    ______ ____
ROOT
ATOM      1  C   UNK A   0       1.114   9.203  20.185  0.00  0.00    +0.000 A 
ATOM      2  C   UNK A   0       1.454   9.270  18.827  0.00  0.00    +0.000 A 
ATOM      3  C   UNK A   0       2.108   8.206  18.200  0.00  0.00    +0.000 A 
ATOM      4  C   UNK A   0       2.451   7.053  18.917  0.00  0.00    +0.000 A 
ATOM      5  C   UNK A   0       2.104   6.975  20.270  0.00  0.00    +0.000 A 
ATOM      6  C   UNK A   0       1.445   8.043  20.895  0.00  0.00    +0.000 A 
ENDROOT
BRANCH   4   7
ATOM      7  C   UNK A   0       3.188   5.979  18.185  0.00  0.00    +0.000 C 
ATOM      8  O   UNK A   0       2.571   5.060  17.653  0.00  0.00    +0.000 OA
ATOM      9  N   GLU A   1       4.559   6.074  18.102  0.00  0.00    +0.000 N 
ATOM     10  H   GLU A   1       5.064   6.849  18.513  0.00  0.00    +0.000 HD
BRANCH   9  11
ATOM     11  CA  GLU A   1       5.356   5.101  17.353  0.00  0.00    +0.000 C 
BRANCH  11  12
ATOM     12  C   GLU A   1       6.683   4.950  18.109  0.00  0.00    +0.000 C 
ATOM     13  O   GLU A   1       6.771   5.022  19.326  0.00  0.00    +0.000 OA
BRANCH  12  14
ATOM     14  OXT GLU A   1       7.748   4.692  17.319  0.00  0.00    +0.000 OA
ATOM     15  HXT GLU A   1       8.056   3.758  17.324  0.00  0.00    +0.000 HD
ENDBRANCH  12  14
ENDBRANCH  11  12
BRANCH  11  16
ATOM     16  CB  GLU A   1       5.605   5.579  15.907  0.00  0.00    +0.000 C 
BRANCH  16  17
ATOM     17  CG  GLU A   1       5.402   4.511  14.838  0.00  0.00    +0.000 C 
BRANCH  17  18
ATOM     18  CD  GLU A   1       6.631   4.385  13.985  0.00  0.00    +0.000 C 
ATOM     19  OE1 GLU A   1       7.621   5.085  14.155  0.00  0.00    +0.000 OA
BRANCH  18  20
ATOM     20  OE2 GLU A   1       6.583   3.381  13.087  0.00  0.00    +0.000 OA
ATOM     21  HE2 GLU A   1       7.380   2.814  13.063  0.00  0.00    +0.000 HD
ENDBRANCH  18  20
ENDBRANCH  17  18
ENDBRANCH  16  17
ENDBRANCH  11  16
ENDBRANCH   9  11
ENDBRANCH   4   7
BRANCH   1  22
ATOM     22  C   UNK A   0       0.447  10.382  20.871  0.00  0.00    +0.000 C 
BRANCH  22  23
ATOM     23  C   UNK A   0       0.164  11.670  20.050  0.00  0.00    +0.000 C 
BRANCH  23  24
ATOM     24  C   UNK A   0      -1.301  11.792  19.687  0.00  0.00    +0.000 A 
ATOM     25  C   UNK A   0      -2.262  12.268  20.562  0.00  0.00    +0.000 A 
ATOM     26  N   UNK A   0      -3.564  12.410  20.208  0.00  0.00    +0.000 NA
ATOM     27  C   UNK A   0      -3.922  12.091  18.955  0.00  0.00    +0.000 A 
ATOM     28  N   UNK A   0      -5.184  12.277  18.580  0.00  0.00    +0.000 NA
ATOM     29  C   UNK A   0      -5.502  12.005  17.316  0.00  0.00    +0.000 A 
ATOM     30  N   UNK A   0      -6.805  12.220  16.916  0.00  0.00    +0.000 N 
ATOM     31  N   UNK A   0      -4.667  11.516  16.403  0.00  0.00    +0.000 NA
ATOM     32  C   UNK A   0      -3.404  11.325  16.799  0.00  0.00    +0.000 A 
ATOM     33  N   UNK A   0      -2.531  10.762  15.851  0.00  0.00    +0.000 N 
ATOM     34  C   UNK A   0      -2.952  11.591  18.083  0.00  0.00    +0.000 A 
ATOM     35  N   UNK A   0      -1.653  11.424  18.441  0.00  0.00    +0.000 NA
ATOM     36  H   UNK A   0      -7.431  12.180  17.707  0.00  0.00    +0.000 HD
ATOM     37  H   UNK A   0      -7.023  11.637  16.117  0.00  0.00    +0.000 HD
ATOM     38  H   UNK A   0      -2.951  10.801  14.929  0.00  0.00    +0.000 HD
ATOM     39  H   UNK A   0      -1.606  11.186  15.920  0.00  0.00    +0.000 HD
ENDBRANCH  23  24
BRANCH  23  41
ATOM     40  C   UNK A   0       0.023  13.268  22.074  0.00  0.00    +0.000 C 
ATOM     41  C   UNK A   0       0.623  12.989  20.706  0.00  0.00    +0.000 C 
ENDBRANCH  23  41
ENDBRANCH  22  23
ENDBRANCH   1  22
TORSDOF 12
ENDMDL
