MODEL 1
REMARK VINA RESULT:      -7.8      0.000      0.000
REMARK  Name = 
REMARK  3 active torsions:
REMARK  status: ('A' for Active; 'I' for Inactive)
REMARK    1  A    between atoms: C_1  and  O_2
REMARK    2  A    between atoms: O_2  and  C_3
REMARK    3  A    between atoms: C_8  and  C_9
REMARK                            x       y       z     vdW  Elec       q    Type
REMARK                         _______ _______ _______ _____ _____    ______ ____
ROOT
ATOM      1  C   UNL     1       4.525   4.544  18.626  0.00  0.00    +0.000 C 
ATOM      2  O   UNL     1       5.095   3.836  19.744  0.00  0.00    +0.000 OA
ATOM      3  C   UNL     1       5.979   4.794  19.160  0.00  0.00    +0.000 C 
ATOM      4  C   UNL     1       6.996   4.544  18.141  0.00  0.00    +0.000 C 
ATOM      5  O   UNL     1       8.196   4.598  18.419  0.00  0.00    +0.000 OA
ATOM      6  C   UNL     1       6.538   4.489  16.733  0.00  0.00    +0.000 A 
ATOM      7  C   UNL     1       7.206   5.205  15.746  0.00  0.00    +0.000 A 
ATOM      8  C   UNL     1       6.729   5.159  14.432  0.00  0.00    +0.000 A 
ATOM      9  C   UNL     1       5.660   4.328  14.091  0.00  0.00    +0.000 A 
ATOM     10  C   UNL     1       4.975   3.634  15.084  0.00  0.00    +0.000 A 
ATOM     11  C   UNL     1       5.366   3.808  16.409  0.00  0.00    +0.000 A 
ATOM     12  C   UNL     1       4.386   3.590  17.478  0.00  0.00    +0.000 C 
ATOM     13  O   UNL     1       3.495   2.746  17.408  0.00  0.00    +0.000 OA
ENDROOT
BRANCH   1  19
ATOM     14  C   UNL     1       2.744   6.191  19.634  0.00  0.00    +0.000 A 
ATOM     15  C   UNL     1       2.036   7.398  19.575  0.00  0.00    +0.000 A 
ATOM     16  C   UNL     1       2.194   8.263  18.501  0.00  0.00    +0.000 A 
ATOM     17  C   UNL     1       3.090   7.953  17.493  0.00  0.00    +0.000 A 
ATOM     18  C   UNL     1       3.881   6.808  17.600  0.00  0.00    +0.000 A 
ATOM     19  C   UNL     1       3.748   5.881  18.663  0.00  0.00    +0.000 A 
BRANCH  14  21
ATOM     20  C   UNL     1       1.289   4.455  20.468  0.00  0.00    +0.000 C 
ATOM     21  O   UNL     1       2.476   5.238  20.582  0.00  0.00    +0.000 OA
ENDBRANCH  14  21
ENDBRANCH   1  19
TORSDOF 2
ENDMDL
MODEL 2
REMARK VINA RESULT:      -7.4      1.814      5.482
REMARK  Name = 
REMARK  3 active torsions:
REMARK  status: ('A' for Active; 'I' for Inactive)
REMARK    1  A    between atoms: C_1  and  O_2
REMARK    2  A    between atoms: O_2  and  C_3
REMARK    3  A    between atoms: C_8  and  C_9
REMARK                            x       y       z     vdW  Elec       q    Type
REMARK                         _______ _______ _______ _____ _____    ______ ____
ROOT
ATOM      1  C   UNL     1       3.310   5.598  17.856  0.00  0.00    +0.000 C 
ATOM      2  O   UNL     1       2.582   6.763  17.422  0.00  0.00    +0.000 OA
ATOM      3  C   UNL     1       2.913   6.778  18.811  0.00  0.00    +0.000 C 
ATOM      4  C   UNL     1       2.071   6.335  19.920  0.00  0.00    +0.000 C 
ATOM      5  O   UNL     1       1.588   7.149  20.711  0.00  0.00    +0.000 OA
ATOM      6  C   UNL     1       2.043   4.882  20.205  0.00  0.00    +0.000 A 
ATOM      7  C   UNL     1       2.211   4.415  21.504  0.00  0.00    +0.000 A 
ATOM      8  C   UNL     1       2.214   3.035  21.736  0.00  0.00    +0.000 A 
ATOM      9  C   UNL     1       1.950   2.139  20.699  0.00  0.00    +0.000 A 
ATOM     10  C   UNL     1       1.811   2.605  19.396  0.00  0.00    +0.000 A 
ATOM     11  C   UNL     1       1.962   3.968  19.156  0.00  0.00    +0.000 A 
ATOM     12  C   UNL     1       2.386   4.418  17.825  0.00  0.00    +0.000 C 
ATOM     13  O   UNL     1       2.066   3.840  16.789  0.00  0.00    +0.000 OA
ENDROOT
BRANCH   1  19
ATOM     14  C   UNL     1       5.643   5.085  16.763  0.00  0.00    +0.000 A 
ATOM     15  C   UNL     1       7.023   4.880  16.887  0.00  0.00    +0.000 A 
ATOM     16  C   UNL     1       7.631   4.865  18.135  0.00  0.00    +0.000 A 
ATOM     17  C   UNL     1       6.875   5.094  19.272  0.00  0.00    +0.000 A 
ATOM     18  C   UNL     1       5.522   5.410  19.149  0.00  0.00    +0.000 A 
ATOM     19  C   UNL     1       4.847   5.420  17.903  0.00  0.00    +0.000 A 
BRANCH  14  21
ATOM     20  C   UNL     1       5.685   4.345  14.465  0.00  0.00    +0.000 C 
ATOM     21  O   UNL     1       4.990   4.924  15.569  0.00  0.00    +0.000 OA
ENDBRANCH  14  21
ENDBRANCH   1  19
TORSDOF 2
ENDMDL
MODEL 3
REMARK VINA RESULT:      -7.4      1.867      4.987
REMARK  Name = 
REMARK  3 active torsions:
REMARK  status: ('A' for Active; 'I' for Inactive)
REMARK    1  A    between atoms: C_1  and  O_2
REMARK    2  A    between atoms: O_2  and  C_3
REMARK    3  A    between atoms: C_8  and  C_9
REMARK                            x       y       z     vdW  Elec       q    Type
REMARK                         _______ _______ _______ _____ _____    ______ ____
ROOT
ATOM      1  C   UNL     1       5.274   4.927  18.520  0.00  0.00    +0.000 C 
ATOM      2  O   UNL     1       6.106   5.082  19.686  0.00  0.00    +0.000 OA
ATOM      3  C   UNL     1       5.801   3.722  19.375  0.00  0.00    +0.000 C 
ATOM      4  C   UNL     1       4.714   2.916  19.928  0.00  0.00    +0.000 C 
ATOM      5  O   UNL     1       4.948   1.987  20.704  0.00  0.00    +0.000 OA
ATOM      6  C   UNL     1       3.374   3.087  19.322  0.00  0.00    +0.000 A 
ATOM      7  C   UNL     1       2.621   1.978  18.952  0.00  0.00    +0.000 A 
ATOM      8  C   UNL     1       1.373   2.174  18.350  0.00  0.00    +0.000 A 
ATOM      9  C   UNL     1       0.841   3.457  18.215  0.00  0.00    +0.000 A 
ATOM     10  C   UNL     1       1.607   4.567  18.559  0.00  0.00    +0.000 A 
ATOM     11  C   UNL     1       2.907   4.364  19.015  0.00  0.00    +0.000 A 
ATOM     12  C   UNL     1       3.900   5.431  18.844  0.00  0.00    +0.000 C 
ATOM     13  O   UNL     1       3.615   6.625  18.898  0.00  0.00    +0.000 OA
ENDROOT
BRANCH   1  19
ATOM     14  C   UNL     1       6.941   5.303  16.526  0.00  0.00    +0.000 A 
ATOM     15  C   UNL     1       7.274   5.142  15.175  0.00  0.00    +0.000 A 
ATOM     16  C   UNL     1       6.387   4.544  14.289  0.00  0.00    +0.000 A 
ATOM     17  C   UNL     1       5.173   4.065  14.750  0.00  0.00    +0.000 A 
ATOM     18  C   UNL     1       4.880   4.122  16.113  0.00  0.00    +0.000 A 
ATOM     19  C   UNL     1       5.740   4.737  17.057  0.00  0.00    +0.000 A 
BRANCH  14  21
ATOM     20  C   UNL     1       7.511   7.458  17.453  0.00  0.00    +0.000 C 
ATOM     21  O   UNL     1       7.713   6.048  17.378  0.00  0.00    +0.000 OA
ENDBRANCH  14  21
ENDBRANCH   1  19
TORSDOF 2
ENDMDL
MODEL 4
REMARK VINA RESULT:      -6.9      2.260      5.572
REMARK  Name = 
REMARK  3 active torsions:
REMARK  status: ('A' for Active; 'I' for Inactive)
REMARK    1  A    between atoms: C_1  and  O_2
REMARK    2  A    between atoms: O_2  and  C_3
REMARK    3  A    between atoms: C_8  and  C_9
REMARK                            x       y       z     vdW  Elec       q    Type
REMARK                         _______ _______ _______ _____ _____    ______ ____
ROOT
ATOM      1  C   UNL     1       4.194   3.159  17.629  0.00  0.00    +0.000 C 
ATOM      2  O   UNL     1       3.654   2.685  16.381  0.00  0.00    +0.000 OA
ATOM      3  C   UNL     1       3.036   3.882  16.856  0.00  0.00    +0.000 C 
ATOM      4  C   UNL     1       1.815   3.984  17.652  0.00  0.00    +0.000 C 
ATOM      5  O   UNL     1       0.777   4.437  17.164  0.00  0.00    +0.000 OA
ATOM      6  C   UNL     1       1.945   3.776  19.113  0.00  0.00    +0.000 A 
ATOM      7  C   UNL     1       1.369   4.672  20.007  0.00  0.00    +0.000 A 
ATOM      8  C   UNL     1       1.539   4.467  21.381  0.00  0.00    +0.000 A 
ATOM      9  C   UNL     1       2.188   3.326  21.855  0.00  0.00    +0.000 A 
ATOM     10  C   UNL     1       2.789   2.445  20.960  0.00  0.00    +0.000 A 
ATOM     11  C   UNL     1       2.743   2.742  19.601  0.00  0.00    +0.000 A 
ATOM     12  C   UNL     1       3.787   2.211  18.717  0.00  0.00    +0.000 C 
ATOM     13  O   UNL     1       4.320   1.118  18.892  0.00  0.00    +0.000 OA
ENDROOT
BRANCH   1  19
ATOM     14  C   UNL     1       6.375   4.398  16.848  0.00  0.00    +0.000 A 
ATOM     15  C   UNL     1       7.434   5.274  17.114  0.00  0.00    +0.000 A 
ATOM     16  C   UNL     1       7.598   5.831  18.375  0.00  0.00    +0.000 A 
ATOM     17  C   UNL     1       6.684   5.551  19.376  0.00  0.00    +0.000 A 
ATOM     18  C   UNL     1       5.565   4.768  19.089  0.00  0.00    +0.000 A 
ATOM     19  C   UNL     1       5.358   4.160  17.825  0.00  0.00    +0.000 A 
BRANCH  14  21
ATOM     20  C   UNL     1       6.214   4.404  14.439  0.00  0.00    +0.000 C 
ATOM     21  O   UNL     1       6.292   3.695  15.675  0.00  0.00    +0.000 OA
ENDBRANCH  14  21
ENDBRANCH   1  19
TORSDOF 2
ENDMDL
MODEL 5
REMARK VINA RESULT:      -6.8      1.932      3.554
REMARK  Name = 
REMARK  3 active torsions:
REMARK  status: ('A' for Active; 'I' for Inactive)
REMARK    1  A    between atoms: C_1  and  O_2
REMARK    2  A    between atoms: O_2  and  C_3
REMARK    3  A    between atoms: C_8  and  C_9
REMARK                            x       y       z     vdW  Elec       q    Type
REMARK                         _______ _______ _______ _____ _____    ______ ____
ROOT
ATOM      1  C   UNL     1       3.831   5.265  19.072  0.00  0.00    +0.000 C 
ATOM      2  O   UNL     1       3.482   6.449  19.815  0.00  0.00    +0.000 OA
ATOM      3  C   UNL     1       3.154   6.525  18.427  0.00  0.00    +0.000 C 
ATOM      4  C   UNL     1       3.968   7.109  17.363  0.00  0.00    +0.000 C 
ATOM      5  O   UNL     1       3.631   8.162  16.816  0.00  0.00    +0.000 OA
ATOM      6  C   UNL     1       5.046   6.265  16.799  0.00  0.00    +0.000 A 
ATOM      7  C   UNL     1       5.191   6.134  15.423  0.00  0.00    +0.000 A 
ATOM      8  C   UNL     1       6.198   5.302  14.921  0.00  0.00    +0.000 A 
ATOM      9  C   UNL     1       7.111   4.691  15.783  0.00  0.00    +0.000 A 
ATOM     10  C   UNL     1       6.947   4.800  17.160  0.00  0.00    +0.000 A 
ATOM     11  C   UNL     1       5.851   5.506  17.647  0.00  0.00    +0.000 A 
ATOM     12  C   UNL     1       5.325   5.184  18.979  0.00  0.00    +0.000 C 
ATOM     13  O   UNL     1       6.039   4.819  19.910  0.00  0.00    +0.000 OA
ENDROOT
BRANCH   1  19
ATOM     14  C   UNL     1       2.000   3.508  19.748  0.00  0.00    +0.000 A 
ATOM     15  C   UNL     1       1.264   2.351  19.463  0.00  0.00    +0.000 A 
ATOM     16  C   UNL     1       1.519   1.609  18.318  0.00  0.00    +0.000 A 
ATOM     17  C   UNL     1       2.485   2.035  17.423  0.00  0.00    +0.000 A 
ATOM     18  C   UNL     1       3.145   3.244  17.643  0.00  0.00    +0.000 A 
ATOM     19  C   UNL     1       2.937   4.031  18.803  0.00  0.00    +0.000 A 
BRANCH  14  21
ATOM     20  C   UNL     1       2.204   3.448  22.153  0.00  0.00    +0.000 C 
ATOM     21  O   UNL     1       1.898   4.155  20.952  0.00  0.00    +0.000 OA
ENDBRANCH  14  21
ENDBRANCH   1  19
TORSDOF 2
ENDMDL
MODEL 6
REMARK VINA RESULT:      -6.6      1.813      5.693
REMARK  Name = 
REMARK  3 active torsions:
REMARK  status: ('A' for Active; 'I' for Inactive)
REMARK    1  A    between atoms: C_1  and  O_2
REMARK    2  A    between atoms: O_2  and  C_3
REMARK    3  A    between atoms: C_8  and  C_9
REMARK                            x       y       z     vdW  Elec       q    Type
REMARK                         _______ _______ _______ _____ _____    ______ ____
ROOT
ATOM      1  C   UNL     1       6.680   5.303  16.493  0.00  0.00    +0.000 C 
ATOM      2  O   UNL     1       7.812   5.033  17.343  0.00  0.00    +0.000 OA
ATOM      3  C   UNL     1       6.700   4.165  17.573  0.00  0.00    +0.000 C 
ATOM      4  C   UNL     1       5.649   4.330  18.574  0.00  0.00    +0.000 C 
ATOM      5  O   UNL     1       5.582   3.579  19.550  0.00  0.00    +0.000 OA
ATOM      6  C   UNL     1       4.536   5.246  18.236  0.00  0.00    +0.000 A 
ATOM      7  C   UNL     1       3.216   4.849  18.420  0.00  0.00    +0.000 A 
ATOM      8  C   UNL     1       2.185   5.724  18.058  0.00  0.00    +0.000 A 
ATOM      9  C   UNL     1       2.472   7.016  17.615  0.00  0.00    +0.000 A 
ATOM     10  C   UNL     1       3.792   7.402  17.404  0.00  0.00    +0.000 A 
ATOM     11  C   UNL     1       4.802   6.470  17.623  0.00  0.00    +0.000 A 
ATOM     12  C   UNL     1       6.074   6.611  16.906  0.00  0.00    +0.000 C 
ATOM     13  O   UNL     1       6.562   7.701  16.616  0.00  0.00    +0.000 OA
ENDROOT
BRANCH   1  19
ATOM     14  C   UNL     1       7.167   4.891  13.945  0.00  0.00    +0.000 A 
ATOM     15  C   UNL     1       6.799   4.336  12.713  0.00  0.00    +0.000 A 
ATOM     16  C   UNL     1       5.590   3.670  12.565  0.00  0.00    +0.000 A 
ATOM     17  C   UNL     1       4.751   3.517  13.655  0.00  0.00    +0.000 A 
ATOM     18  C   UNL     1       5.159   3.970  14.910  0.00  0.00    +0.000 A 
ATOM     19  C   UNL     1       6.374   4.671  15.114  0.00  0.00    +0.000 A 
BRANCH  14  21
ATOM     20  C   UNL     1       9.017   6.052  12.916  0.00  0.00    +0.000 C 
ATOM     21  O   UNL     1       8.261   5.706  14.076  0.00  0.00    +0.000 OA
ENDBRANCH  14  21
ENDBRANCH   1  19
TORSDOF 2
ENDMDL
MODEL 7
REMARK VINA RESULT:      -6.5      2.091      4.929
REMARK  Name = 
REMARK  3 active torsions:
REMARK  status: ('A' for Active; 'I' for Inactive)
REMARK    1  A    between atoms: C_1  and  O_2
REMARK    2  A    between atoms: O_2  and  C_3
REMARK    3  A    between atoms: C_8  and  C_9
REMARK                            x       y       z     vdW  Elec       q    Type
REMARK                         _______ _______ _______ _____ _____    ______ ____
ROOT
ATOM      1  C   UNL     1       4.111   4.508  17.917  0.00  0.00    +0.000 C 
ATOM      2  O   UNL     1       4.701   3.749  16.843  0.00  0.00    +0.000 OA
ATOM      3  C   UNL     1       3.281   3.622  16.924  0.00  0.00    +0.000 C 
ATOM      4  C   UNL     1       2.530   2.573  17.611  0.00  0.00    +0.000 C 
ATOM      5  O   UNL     1       1.901   1.725  16.973  0.00  0.00    +0.000 OA
ATOM      6  C   UNL     1       2.343   2.725  19.072  0.00  0.00    +0.000 A 
ATOM      7  C   UNL     1       1.085   2.563  19.642  0.00  0.00    +0.000 A 
ATOM      8  C   UNL     1       0.934   2.748  21.021  0.00  0.00    +0.000 A 
ATOM      9  C   UNL     1       2.044   2.991  21.832  0.00  0.00    +0.000 A 
ATOM     10  C   UNL     1       3.296   3.183  21.257  0.00  0.00    +0.000 A 
ATOM     11  C   UNL     1       3.405   3.146  19.870  0.00  0.00    +0.000 A 
ATOM     12  C   UNL     1       4.501   3.874  19.219  0.00  0.00    +0.000 C 
ATOM     13  O   UNL     1       5.612   4.006  19.726  0.00  0.00    +0.000 OA
ENDROOT
BRANCH   1  19
ATOM     14  C   UNL     1       4.262   7.031  17.205  0.00  0.00    +0.000 A 
ATOM     15  C   UNL     1       3.749   8.334  17.236  0.00  0.00    +0.000 A 
ATOM     16  C   UNL     1       2.635   8.642  18.004  0.00  0.00    +0.000 A 
ATOM     17  C   UNL     1       1.996   7.645  18.720  0.00  0.00    +0.000 A 
ATOM     18  C   UNL     1       2.433   6.325  18.607  0.00  0.00    +0.000 A 
ATOM     19  C   UNL     1       3.575   5.958  17.853  0.00  0.00    +0.000 A 
BRANCH  14  21
ATOM     20  C   UNL     1       6.674   6.985  17.313  0.00  0.00    +0.000 C 
ATOM     21  O   UNL     1       5.459   6.738  16.606  0.00  0.00    +0.000 OA
ENDBRANCH  14  21
ENDBRANCH   1  19
TORSDOF 2
ENDMDL
MODEL 8
REMARK VINA RESULT:      -6.5      2.262      5.742
REMARK  Name = 
REMARK  3 active torsions:
REMARK  status: ('A' for Active; 'I' for Inactive)
REMARK    1  A    between atoms: C_1  and  O_2
REMARK    2  A    between atoms: O_2  and  C_3
REMARK    3  A    between atoms: C_8  and  C_9
REMARK                            x       y       z     vdW  Elec       q    Type
REMARK                         _______ _______ _______ _____ _____    ______ ____
ROOT
ATOM      1  C   UNL     1       6.275   5.831  15.861  0.00  0.00    +0.000 C 
ATOM      2  O   UNL     1       7.400   6.600  16.329  0.00  0.00    +0.000 OA
ATOM      3  C   UNL     1       7.342   5.280  16.871  0.00  0.00    +0.000 C 
ATOM      4  C   UNL     1       6.747   4.878  18.144  0.00  0.00    +0.000 C 
ATOM      5  O   UNL     1       7.455   4.514  19.086  0.00  0.00    +0.000 OA
ATOM      6  C   UNL     1       5.280   4.675  18.166  0.00  0.00    +0.000 A 
ATOM      7  C   UNL     1       4.736   3.528  18.733  0.00  0.00    +0.000 A 
ATOM      8  C   UNL     1       3.348   3.349  18.708  0.00  0.00    +0.000 A 
ATOM      9  C   UNL     1       2.510   4.351  18.215  0.00  0.00    +0.000 A 
ATOM     10  C   UNL     1       3.057   5.485  17.622  0.00  0.00    +0.000 A 
ATOM     11  C   UNL     1       4.442   5.580  17.517  0.00  0.00    +0.000 A 
ATOM     12  C   UNL     1       5.024   6.406  16.453  0.00  0.00    +0.000 C 
ATOM     13  O   UNL     1       4.497   7.438  16.043  0.00  0.00    +0.000 OA
ENDROOT
BRANCH   1  19
ATOM     14  C   UNL     1       7.233   4.871  13.612  0.00  0.00    +0.000 A 
ATOM     15  C   UNL     1       7.101   4.039  12.492  0.00  0.00    +0.000 A 
ATOM     16  C   UNL     1       5.934   3.318  12.276  0.00  0.00    +0.000 A 
ATOM     17  C   UNL     1       4.902   3.387  13.195  0.00  0.00    +0.000 A 
ATOM     18  C   UNL     1       5.069   4.124  14.368  0.00  0.00    +0.000 A 
ATOM     19  C   UNL     1       6.230   4.894  14.630  0.00  0.00    +0.000 A 
BRANCH  14  21
ATOM     20  C   UNL     1       8.996   6.170  12.596  0.00  0.00    +0.000 C 
ATOM     21  O   UNL     1       8.291   5.730  13.756  0.00  0.00    +0.000 OA
ENDBRANCH  14  21
ENDBRANCH   1  19
TORSDOF 2
ENDMDL
MODEL 9
REMARK VINA RESULT:      -6.5      2.290      3.435
REMARK  Name = 
REMARK  3 active torsions:
REMARK  status: ('A' for Active; 'I' for Inactive)
REMARK    1  A    between atoms: C_1  and  O_2
REMARK    2  A    between atoms: O_2  and  C_3
REMARK    3  A    between atoms: C_8  and  C_9
REMARK                            x       y       z     vdW  Elec       q    Type
REMARK                         _______ _______ _______ _____ _____    ______ ____
ROOT
ATOM      1  C   UNL     1       5.038   5.157  16.897  0.00  0.00    +0.000 C 
ATOM      2  O   UNL     1       5.354   4.005  16.092  0.00  0.00    +0.000 OA
ATOM      3  C   UNL     1       6.086   4.069  17.317  0.00  0.00    +0.000 C 
ATOM      4  C   UNL     1       7.421   4.629  17.514  0.00  0.00    +0.000 C 
ATOM      5  O   UNL     1       8.385   3.898  17.752  0.00  0.00    +0.000 OA
ATOM      6  C   UNL     1       7.516   6.098  17.679  0.00  0.00    +0.000 A 
ATOM      7  C   UNL     1       8.262   6.644  18.718  0.00  0.00    +0.000 A 
ATOM      8  C   UNL     1       8.304   8.035  18.866  0.00  0.00    +0.000 A 
ATOM      9  C   UNL     1       7.694   8.870  17.929  0.00  0.00    +0.000 A 
ATOM     10  C   UNL     1       6.925   8.323  16.907  0.00  0.00    +0.000 A 
ATOM     11  C   UNL     1       6.766   6.940  16.860  0.00  0.00    +0.000 A 
ATOM     12  C   UNL     1       5.575   6.378  16.212  0.00  0.00    +0.000 C 
ATOM     13  O   UNL     1       5.033   6.899  15.240  0.00  0.00    +0.000 OA
ENDROOT
BRANCH   1  19
ATOM     14  C   UNL     1       2.965   4.261  18.237  0.00  0.00    +0.000 A 
ATOM     15  C   UNL     1       1.981   4.444  19.217  0.00  0.00    +0.000 A 
ATOM     16  C   UNL     1       1.865   5.652  19.892  0.00  0.00    +0.000 A 
ATOM     17  C   UNL     1       2.756   6.677  19.626  0.00  0.00    +0.000 A 
ATOM     18  C   UNL     1       3.806   6.465  18.733  0.00  0.00    +0.000 A 
ATOM     19  C   UNL     1       3.960   5.260  18.002  0.00  0.00    +0.000 A 
BRANCH  14  21
ATOM     20  C   UNL     1       3.118   1.861  18.021  0.00  0.00    +0.000 C 
ATOM     21  O   UNL     1       2.987   3.153  17.430  0.00  0.00    +0.000 OA
ENDBRANCH  14  21
ENDBRANCH   1  19
TORSDOF 2
ENDMDL
