MODEL 1
REMARK VINA RESULT:      -6.4      0.000      0.000
REMARK  Name = 
REMARK  13 active torsions:
REMARK  status: ('A' for Active; 'I' for Inactive)
REMARK    1  A    between atoms: C_1  and  C_2
REMARK    2  A    between atoms: C_2  and  N_3
REMARK    3  A    between atoms: N_3  and  C_4
REMARK    4  A    between atoms: C_4  and  C_5
REMARK    5  A    between atoms: C_6  and  C_8
REMARK    6  A    between atoms: C_12  and  C_13
REMARK    7  A    between atoms: N_16  and  C_17
REMARK    8  A    between atoms: C_17  and  C_18
REMARK    9  A    between atoms: C_18  and  O_19
REMARK   10  A    between atoms: O_19  and  C_20
REMARK   11  A    between atoms: N_23  and  C_24
REMARK   12  A    between atoms: C_24  and  C_25
REMARK   13  A    between atoms: C_25  and  C_26
REMARK                            x       y       z     vdW  Elec       q    Type
REMARK                         _______ _______ _______ _____ _____    ______ ____
ROOT
ATOM      1  C   UNL     1       4.255   5.448  17.556  0.00  0.00    +0.000 A 
ATOM      2  S   UNL     1       4.049   5.236  19.244  0.00  0.00    +0.000 S 
ATOM      3  C   UNL     1       2.879   6.435  19.291  0.00  0.00    +0.000 A 
ATOM      4  C   UNL     1       3.045   7.342  18.281  0.00  0.00    +0.000 A 
ATOM      5  C   UNL     1       3.922   6.781  17.247  0.00  0.00    +0.000 A 
ATOM      6  C   UNL     1       4.359   7.494  16.000  0.00  0.00    +0.000 C 
ATOM      7  C   UNL     1       2.324   8.609  18.400  0.00  0.00    +0.000 A 
ATOM      8  O   UNL     1       2.350   9.455  17.507  0.00  0.00    +0.000 OA
ATOM      9  N   UNL     1       1.565   8.739  19.581  0.00  0.00    +0.000 N 
ATOM     10  C   UNL     1       1.234   7.680  20.430  0.00  0.00    +0.000 A 
ATOM     11  O   UNL     1       0.329   7.773  21.265  0.00  0.00    +0.000 OA
ATOM     12  N   UNL     1       1.955   6.494  20.313  0.00  0.00    +0.000 N 
ENDROOT
BRANCH   1  14
ATOM     13  N   UNL     1       6.323   4.516  16.448  0.00  0.00    +0.000 N 
ATOM     14  C   UNL     1       4.929   4.395  16.768  0.00  0.00    +0.000 C 
ATOM     15  O   UNL     1       4.297   3.409  16.383  0.00  0.00    +0.000 OA
BRANCH  13  17
ATOM     16  C   UNL     1       6.494   4.397  13.952  0.00  0.00    +0.000 C 
ATOM     17  C   UNL     1       6.809   3.752  15.292  0.00  0.00    +0.000 C 
ENDBRANCH  13  17
BRANCH  13  18
ATOM     18  C   UNL     1       7.211   5.544  17.013  0.00  0.00    +0.000 C 
ATOM     19  C   UNL     1       7.730   5.368  18.432  0.00  0.00    +0.000 C 
ENDBRANCH  13  18
ENDBRANCH   1  14
BRANCH   9  20
ATOM     20  C   UNL     1       0.832   9.990  19.803  0.00  0.00    +0.000 C 
BRANCH  20  21
ATOM     21  C   UNL     1      -0.514  10.104  19.055  0.00  0.00    +0.000 C 
BRANCH  21  22
ATOM     22  O   UNL     1      -0.569  11.306  18.282  0.00  0.00    +0.000 OA
ATOM     23  C   UNL     1      -1.882  11.863  18.301  0.00  0.00    +0.000 C 
ENDBRANCH  21  22
ENDBRANCH  20  21
ENDBRANCH   9  20
BRANCH  12  24
ATOM     24  C   UNL     1       1.673   5.395  21.255  0.00  0.00    +0.000 C 
BRANCH  24  25
ATOM     25  C   UNL     1       0.996   4.174  20.630  0.00  0.00    +0.000 C 
BRANCH  25  26
ATOM     26  C   UNL     1       1.574   2.894  21.200  0.00  0.00    +0.000 C 
ATOM     27  F   UNL     1       0.836   2.400  22.217  0.00  0.00    +0.000 F 
ATOM     28  F   UNL     1       1.660   1.933  20.256  0.00  0.00    +0.000 F 
ATOM     29  F   UNL     1       2.820   3.110  21.678  0.00  0.00    +0.000 F 
ENDBRANCH  25  26
ENDBRANCH  24  25
ENDBRANCH  12  24
TORSDOF 9
ENDMDL
MODEL 2
REMARK VINA RESULT:      -6.4      0.969      1.353
REMARK  Name = 
REMARK  13 active torsions:
REMARK  status: ('A' for Active; 'I' for Inactive)
REMARK    1  A    between atoms: C_1  and  C_2
REMARK    2  A    between atoms: C_2  and  N_3
REMARK    3  A    between atoms: N_3  and  C_4
REMARK    4  A    between atoms: C_4  and  C_5
REMARK    5  A    between atoms: C_6  and  C_8
REMARK    6  A    between atoms: C_12  and  C_13
REMARK    7  A    between atoms: N_16  and  C_17
REMARK    8  A    between atoms: C_17  and  C_18
REMARK    9  A    between atoms: C_18  and  O_19
REMARK   10  A    between atoms: O_19  and  C_20
REMARK   11  A    between atoms: N_23  and  C_24
REMARK   12  A    between atoms: C_24  and  C_25
REMARK   13  A    between atoms: C_25  and  C_26
REMARK                            x       y       z     vdW  Elec       q    Type
REMARK                         _______ _______ _______ _____ _____    ______ ____
ROOT
ATOM      1  C   UNL     1       4.310   5.550  17.645  0.00  0.00    +0.000 A 
ATOM      2  S   UNL     1       4.074   5.303  19.324  0.00  0.00    +0.000 S 
ATOM      3  C   UNL     1       2.850   6.448  19.360  0.00  0.00    +0.000 A 
ATOM      4  C   UNL     1       2.999   7.378  18.368  0.00  0.00    +0.000 A 
ATOM      5  C   UNL     1       3.924   6.872  17.347  0.00  0.00    +0.000 A 
ATOM      6  C   UNL     1       4.358   7.623  16.121  0.00  0.00    +0.000 C 
ATOM      7  C   UNL     1       2.219   8.609  18.487  0.00  0.00    +0.000 A 
ATOM      8  O   UNL     1       2.228   9.469  17.607  0.00  0.00    +0.000 OA
ATOM      9  N   UNL     1       1.428   8.687  19.652  0.00  0.00    +0.000 N 
ATOM     10  C   UNL     1       1.125   7.602  20.477  0.00  0.00    +0.000 A 
ATOM     11  O   UNL     1       0.197   7.641  21.291  0.00  0.00    +0.000 OA
ATOM     12  N   UNL     1       1.901   6.451  20.360  0.00  0.00    +0.000 N 
ENDROOT
BRANCH   1  14
ATOM     13  N   UNL     1       6.449   4.715  16.598  0.00  0.00    +0.000 N 
ATOM     14  C   UNL     1       5.049   4.541  16.858  0.00  0.00    +0.000 C 
ATOM     15  O   UNL     1       4.465   3.546  16.423  0.00  0.00    +0.000 OA
BRANCH  13  17
ATOM     16  C   UNL     1       6.799   4.713  14.118  0.00  0.00    +0.000 C 
ATOM     17  C   UNL     1       7.006   3.998  15.444  0.00  0.00    +0.000 C 
ENDBRANCH  13  17
BRANCH  13  18
ATOM     18  C   UNL     1       7.280   5.755  17.225  0.00  0.00    +0.000 C 
ATOM     19  C   UNL     1       7.771   5.544  18.649  0.00  0.00    +0.000 C 
ENDBRANCH  13  18
ENDBRANCH   1  14
BRANCH   9  20
ATOM     20  C   UNL     1       0.635   9.900  19.874  0.00  0.00    +0.000 C 
BRANCH  20  21
ATOM     21  C   UNL     1       1.323  10.987  20.729  0.00  0.00    +0.000 C 
BRANCH  21  22
ATOM     22  O   UNL     1       0.367  11.700  21.517  0.00  0.00    +0.000 OA
ATOM     23  C   UNL     1      -0.448  10.799  22.266  0.00  0.00    +0.000 C 
ENDBRANCH  21  22
ENDBRANCH  20  21
ENDBRANCH   9  20
BRANCH  12  24
ATOM     24  C   UNL     1       1.647   5.326  21.279  0.00  0.00    +0.000 C 
BRANCH  24  25
ATOM     25  C   UNL     1       1.005   4.100  20.629  0.00  0.00    +0.000 C 
BRANCH  25  26
ATOM     26  C   UNL     1       1.604   2.825  21.186  0.00  0.00    +0.000 C 
ATOM     27  F   UNL     1       2.880   2.988  21.598  0.00  0.00    +0.000 F 
ATOM     28  F   UNL     1       0.892   2.368  22.238  0.00  0.00    +0.000 F 
ATOM     29  F   UNL     1       1.609   1.854  20.245  0.00  0.00    +0.000 F 
ENDBRANCH  25  26
ENDBRANCH  24  25
ENDBRANCH  12  24
TORSDOF 9
ENDMDL
MODEL 3
REMARK VINA RESULT:      -6.4      0.860      1.178
REMARK  Name = 
REMARK  13 active torsions:
REMARK  status: ('A' for Active; 'I' for Inactive)
REMARK    1  A    between atoms: C_1  and  C_2
REMARK    2  A    between atoms: C_2  and  N_3
REMARK    3  A    between atoms: N_3  and  C_4
REMARK    4  A    between atoms: C_4  and  C_5
REMARK    5  A    between atoms: C_6  and  C_8
REMARK    6  A    between atoms: C_12  and  C_13
REMARK    7  A    between atoms: N_16  and  C_17
REMARK    8  A    between atoms: C_17  and  C_18
REMARK    9  A    between atoms: C_18  and  O_19
REMARK   10  A    between atoms: O_19  and  C_20
REMARK   11  A    between atoms: N_23  and  C_24
REMARK   12  A    between atoms: C_24  and  C_25
REMARK   13  A    between atoms: C_25  and  C_26
REMARK                            x       y       z     vdW  Elec       q    Type
REMARK                         _______ _______ _______ _____ _____    ______ ____
ROOT
ATOM      1  C   UNL     1       4.338   5.543  17.627  0.00  0.00    +0.000 A 
ATOM      2  S   UNL     1       4.095   5.332  19.311  0.00  0.00    +0.000 S 
ATOM      3  C   UNL     1       2.863   6.468  19.314  0.00  0.00    +0.000 A 
ATOM      4  C   UNL     1       3.009   7.376  18.302  0.00  0.00    +0.000 A 
ATOM      5  C   UNL     1       3.944   6.854  17.298  0.00  0.00    +0.000 A 
ATOM      6  C   UNL     1       4.379   7.580  16.057  0.00  0.00    +0.000 C 
ATOM      7  C   UNL     1       2.219   8.603  18.389  0.00  0.00    +0.000 A 
ATOM      8  O   UNL     1       2.227   9.443  17.490  0.00  0.00    +0.000 OA
ATOM      9  N   UNL     1       1.421   8.701  19.547  0.00  0.00    +0.000 N 
ATOM     10  C   UNL     1       1.122   7.633  20.395  0.00  0.00    +0.000 A 
ATOM     11  O   UNL     1       0.189   7.683  21.203  0.00  0.00    +0.000 OA
ATOM     12  N   UNL     1       1.907   6.486  20.309  0.00  0.00    +0.000 N 
ENDROOT
BRANCH   1  14
ATOM     13  N   UNL     1       6.481   4.718  16.580  0.00  0.00    +0.000 N 
ATOM     14  C   UNL     1       5.090   4.522  16.867  0.00  0.00    +0.000 C 
ATOM     15  O   UNL     1       4.523   3.498  16.479  0.00  0.00    +0.000 OA
BRANCH  13  17
ATOM     16  C   UNL     1       6.804   4.636  14.098  0.00  0.00    +0.000 C 
ATOM     17  C   UNL     1       7.038   3.971  15.445  0.00  0.00    +0.000 C 
ENDBRANCH  13  17
BRANCH  13  18
ATOM     18  C   UNL     1       7.297   5.800  17.154  0.00  0.00    +0.000 C 
ATOM     19  C   UNL     1       7.769   5.679  18.595  0.00  0.00    +0.000 C 
ENDBRANCH  13  18
ENDBRANCH   1  14
BRANCH   9  20
ATOM     20  C   UNL     1       0.617   9.913  19.738  0.00  0.00    +0.000 C 
BRANCH  20  21
ATOM     21  C   UNL     1       1.139  10.884  20.819  0.00  0.00    +0.000 C 
BRANCH  21  22
ATOM     22  O   UNL     1       0.923  12.244  20.434  0.00  0.00    +0.000 OA
ATOM     23  C   UNL     1       1.291  12.452  19.071  0.00  0.00    +0.000 C 
ENDBRANCH  21  22
ENDBRANCH  20  21
ENDBRANCH   9  20
BRANCH  12  24
ATOM     24  C   UNL     1       1.657   5.379  21.252  0.00  0.00    +0.000 C 
BRANCH  24  25
ATOM     25  C   UNL     1       0.992   4.149  20.633  0.00  0.00    +0.000 C 
BRANCH  25  26
ATOM     26  C   UNL     1       1.598   2.878  21.192  0.00  0.00    +0.000 C 
ATOM     27  F   UNL     1       1.676   1.892  20.272  0.00  0.00    +0.000 F 
ATOM     28  F   UNL     1       2.846   3.095  21.661  0.00  0.00    +0.000 F 
ATOM     29  F   UNL     1       0.853   2.409  22.218  0.00  0.00    +0.000 F 
ENDBRANCH  25  26
ENDBRANCH  24  25
ENDBRANCH  12  24
TORSDOF 9
ENDMDL
MODEL 4
REMARK VINA RESULT:      -6.1      1.893      6.812
REMARK  Name = 
REMARK  13 active torsions:
REMARK  status: ('A' for Active; 'I' for Inactive)
REMARK    1  A    between atoms: C_1  and  C_2
REMARK    2  A    between atoms: C_2  and  N_3
REMARK    3  A    between atoms: N_3  and  C_4
REMARK    4  A    between atoms: C_4  and  C_5
REMARK    5  A    between atoms: C_6  and  C_8
REMARK    6  A    between atoms: C_12  and  C_13
REMARK    7  A    between atoms: N_16  and  C_17
REMARK    8  A    between atoms: C_17  and  C_18
REMARK    9  A    between atoms: C_18  and  O_19
REMARK   10  A    between atoms: O_19  and  C_20
REMARK   11  A    between atoms: N_23  and  C_24
REMARK   12  A    between atoms: C_24  and  C_25
REMARK   13  A    between atoms: C_25  and  C_26
REMARK                            x       y       z     vdW  Elec       q    Type
REMARK                         _______ _______ _______ _____ _____    ______ ____
ROOT
ATOM      1  C   UNL     1       1.248   9.097  19.991  0.00  0.00    +0.000 A 
ATOM      2  S   UNL     1       0.861   7.482  20.415  0.00  0.00    +0.000 S 
ATOM      3  C   UNL     1       2.186   6.901  19.569  0.00  0.00    +0.000 A 
ATOM      4  C   UNL     1       2.547   7.745  18.554  0.00  0.00    +0.000 A 
ATOM      5  C   UNL     1       1.941   9.065  18.765  0.00  0.00    +0.000 A 
ATOM      6  C   UNL     1       2.084  10.242  17.844  0.00  0.00    +0.000 C 
ATOM      7  C   UNL     1       3.449   7.211  17.535  0.00  0.00    +0.000 A 
ATOM      8  O   UNL     1       3.889   7.915  16.626  0.00  0.00    +0.000 OA
ATOM      9  N   UNL     1       3.806   5.860  17.723  0.00  0.00    +0.000 N 
ATOM     10  C   UNL     1       3.617   5.149  18.909  0.00  0.00    +0.000 A 
ATOM     11  O   UNL     1       4.210   4.089  19.136  0.00  0.00    +0.000 OA
ATOM     12  N   UNL     1       2.731   5.667  19.851  0.00  0.00    +0.000 N 
ENDROOT
BRANCH   1  14
ATOM     13  N   UNL     1      -0.551  10.845  20.275  0.00  0.00    +0.000 N 
ATOM     14  C   UNL     1       0.646  10.213  20.750  0.00  0.00    +0.000 C 
ATOM     15  O   UNL     1       1.170  10.604  21.795  0.00  0.00    +0.000 OA
BRANCH  13  17
ATOM     16  C   UNL     1      -2.046  12.318  21.641  0.00  0.00    +0.000 C 
ATOM     17  C   UNL     1      -0.819  12.207  20.750  0.00  0.00    +0.000 C 
ENDBRANCH  13  17
BRANCH  13  18
ATOM     18  C   UNL     1      -1.361  10.338  19.154  0.00  0.00    +0.000 C 
ATOM     19  C   UNL     1      -1.581  11.234  17.944  0.00  0.00    +0.000 C 
ENDBRANCH  13  18
ENDBRANCH   1  14
BRANCH   9  20
ATOM     20  C   UNL     1       4.683   5.228  16.731  0.00  0.00    +0.000 C 
BRANCH  20  21
ATOM     21  C   UNL     1       6.187   5.539  16.892  0.00  0.00    +0.000 C 
BRANCH  21  22
ATOM     22  O   UNL     1       6.929   5.079  15.760  0.00  0.00    +0.000 OA
ATOM     23  C   UNL     1       6.262   3.992  15.121  0.00  0.00    +0.000 C 
ENDBRANCH  21  22
ENDBRANCH  20  21
ENDBRANCH   9  20
BRANCH  12  24
ATOM     24  C   UNL     1       2.457   4.888  21.074  0.00  0.00    +0.000 C 
BRANCH  24  25
ATOM     25  C   UNL     1       1.291   3.906  20.960  0.00  0.00    +0.000 C 
BRANCH  25  26
ATOM     26  C   UNL     1       1.736   2.505  21.323  0.00  0.00    +0.000 C 
ATOM     27  F   UNL     1       1.067   2.007  22.385  0.00  0.00    +0.000 F 
ATOM     28  F   UNL     1       1.555   1.651  20.293  0.00  0.00    +0.000 F 
ATOM     29  F   UNL     1       3.051   2.493  21.637  0.00  0.00    +0.000 F 
ENDBRANCH  25  26
ENDBRANCH  24  25
ENDBRANCH  12  24
TORSDOF 9
ENDMDL
MODEL 5
REMARK VINA RESULT:      -6.1      1.939      6.614
REMARK  Name = 
REMARK  13 active torsions:
REMARK  status: ('A' for Active; 'I' for Inactive)
REMARK    1  A    between atoms: C_1  and  C_2
REMARK    2  A    between atoms: C_2  and  N_3
REMARK    3  A    between atoms: N_3  and  C_4
REMARK    4  A    between atoms: C_4  and  C_5
REMARK    5  A    between atoms: C_6  and  C_8
REMARK    6  A    between atoms: C_12  and  C_13
REMARK    7  A    between atoms: N_16  and  C_17
REMARK    8  A    between atoms: C_17  and  C_18
REMARK    9  A    between atoms: C_18  and  O_19
REMARK   10  A    between atoms: O_19  and  C_20
REMARK   11  A    between atoms: N_23  and  C_24
REMARK   12  A    between atoms: C_24  and  C_25
REMARK   13  A    between atoms: C_25  and  C_26
REMARK                            x       y       z     vdW  Elec       q    Type
REMARK                         _______ _______ _______ _____ _____    ______ ____
ROOT
ATOM      1  C   UNL     1       1.314   9.028  20.009  0.00  0.00    +0.000 A 
ATOM      2  S   UNL     1       0.991   7.397  20.426  0.00  0.00    +0.000 S 
ATOM      3  C   UNL     1       2.303   6.867  19.528  0.00  0.00    +0.000 A 
ATOM      4  C   UNL     1       2.603   7.732  18.512  0.00  0.00    +0.000 A 
ATOM      5  C   UNL     1       1.966   9.030  18.760  0.00  0.00    +0.000 A 
ATOM      6  C   UNL     1       2.041  10.221  17.849  0.00  0.00    +0.000 C 
ATOM      7  C   UNL     1       3.486   7.237  17.456  0.00  0.00    +0.000 A 
ATOM      8  O   UNL     1       3.873   7.965  16.542  0.00  0.00    +0.000 OA
ATOM      9  N   UNL     1       3.890   5.896  17.615  0.00  0.00    +0.000 N 
ATOM     10  C   UNL     1       3.763   5.166  18.799  0.00  0.00    +0.000 A 
ATOM     11  O   UNL     1       4.395   4.123  18.992  0.00  0.00    +0.000 OA
ATOM     12  N   UNL     1       2.895   5.646  19.776  0.00  0.00    +0.000 N 
ENDROOT
BRANCH   1  14
ATOM     13  N   UNL     1      -0.477  10.777  20.330  0.00  0.00    +0.000 N 
ATOM     14  C   UNL     1       0.705  10.116  20.802  0.00  0.00    +0.000 C 
ATOM     15  O   UNL     1       1.211  10.459  21.873  0.00  0.00    +0.000 OA
BRANCH  13  17
ATOM     16  C   UNL     1       0.245  13.173  20.384  0.00  0.00    +0.000 C 
ATOM     17  C   UNL     1      -0.744  12.121  20.856  0.00  0.00    +0.000 C 
ENDBRANCH  13  17
BRANCH  13  18
ATOM     18  C   UNL     1      -1.267  10.324  19.173  0.00  0.00    +0.000 C 
ATOM     19  C   UNL     1      -1.603  11.324  18.077  0.00  0.00    +0.000 C 
ENDBRANCH  13  18
ENDBRANCH   1  14
BRANCH   9  20
ATOM     20  C   UNL     1       4.751   5.302  16.587  0.00  0.00    +0.000 C 
BRANCH  20  21
ATOM     21  C   UNL     1       6.265   5.363  16.883  0.00  0.00    +0.000 C 
BRANCH  21  22
ATOM     22  O   UNL     1       6.829   6.591  16.415  0.00  0.00    +0.000 OA
ATOM     23  C   UNL     1       7.324   7.372  17.502  0.00  0.00    +0.000 C 
ENDBRANCH  21  22
ENDBRANCH  20  21
ENDBRANCH   9  20
BRANCH  12  24
ATOM     24  C   UNL     1       2.687   4.846  20.998  0.00  0.00    +0.000 C 
BRANCH  24  25
ATOM     25  C   UNL     1       1.426   3.980  20.989  0.00  0.00    +0.000 C 
BRANCH  25  26
ATOM     26  C   UNL     1       1.757   2.552  21.371  0.00  0.00    +0.000 C 
ATOM     27  F   UNL     1       3.016   2.418  21.839  0.00  0.00    +0.000 F 
ATOM     28  F   UNL     1       0.919   2.094  22.326  0.00  0.00    +0.000 F 
ATOM     29  F   UNL     1       1.639   1.736  20.299  0.00  0.00    +0.000 F 
ENDBRANCH  25  26
ENDBRANCH  24  25
ENDBRANCH  12  24
TORSDOF 9
ENDMDL
MODEL 6
REMARK VINA RESULT:      -6.0      2.016      6.782
REMARK  Name = 
REMARK  13 active torsions:
REMARK  status: ('A' for Active; 'I' for Inactive)
REMARK    1  A    between atoms: C_1  and  C_2
REMARK    2  A    between atoms: C_2  and  N_3
REMARK    3  A    between atoms: N_3  and  C_4
REMARK    4  A    between atoms: C_4  and  C_5
REMARK    5  A    between atoms: C_6  and  C_8
REMARK    6  A    between atoms: C_12  and  C_13
REMARK    7  A    between atoms: N_16  and  C_17
REMARK    8  A    between atoms: C_17  and  C_18
REMARK    9  A    between atoms: C_18  and  O_19
REMARK   10  A    between atoms: O_19  and  C_20
REMARK   11  A    between atoms: N_23  and  C_24
REMARK   12  A    between atoms: C_24  and  C_25
REMARK   13  A    between atoms: C_25  and  C_26
REMARK                            x       y       z     vdW  Elec       q    Type
REMARK                         _______ _______ _______ _____ _____    ______ ____
ROOT
ATOM      1  C   UNL     1       1.764   8.019  20.045  0.00  0.00    +0.000 A 
ATOM      2  S   UNL     1       1.386   6.351  20.150  0.00  0.00    +0.000 S 
ATOM      3  C   UNL     1       2.710   5.951  19.203  0.00  0.00    +0.000 A 
ATOM      4  C   UNL     1       3.063   6.977  18.369  0.00  0.00    +0.000 A 
ATOM      5  C   UNL     1       2.452   8.228  18.834  0.00  0.00    +0.000 A 
ATOM      6  C   UNL     1       2.586   9.562  18.157  0.00  0.00    +0.000 C 
ATOM      7  C   UNL     1       3.963   6.655  17.262  0.00  0.00    +0.000 A 
ATOM      8  O   UNL     1       4.396   7.524  16.506  0.00  0.00    +0.000 OA
ATOM      9  N   UNL     1       4.326   5.295  17.185  0.00  0.00    +0.000 N 
ATOM     10  C   UNL     1       4.145   4.366  18.212  0.00  0.00    +0.000 A 
ATOM     11  O   UNL     1       4.743   3.286  18.227  0.00  0.00    +0.000 OA
ATOM     12  N   UNL     1       3.261   4.688  19.239  0.00  0.00    +0.000 N 
ENDROOT
BRANCH   1  14
ATOM     13  N   UNL     1       0.061   9.795  20.609  0.00  0.00    +0.000 N 
ATOM     14  C   UNL     1       1.161   8.964  21.008  0.00  0.00    +0.000 C 
ATOM     15  O   UNL     1       1.600   9.041  22.157  0.00  0.00    +0.000 OA
BRANCH  13  17
ATOM     16  C   UNL     1      -1.023  10.810  22.625  0.00  0.00    +0.000 C 
ATOM     17  C   UNL     1      -0.165  11.019  21.388  0.00  0.00    +0.000 C 
ENDBRANCH  13  17
BRANCH  13  18
ATOM     18  C   UNL     1      -0.660   9.651  19.334  0.00  0.00    +0.000 C 
ATOM     19  C   UNL     1      -1.501  10.814  18.831  0.00  0.00    +0.000 C 
ENDBRANCH  13  18
ENDBRANCH   1  14
BRANCH   9  20
ATOM     20  C   UNL     1       5.202   4.871  16.087  0.00  0.00    +0.000 C 
BRANCH  20  21
ATOM     21  C   UNL     1       6.709   5.116  16.317  0.00  0.00    +0.000 C 
BRANCH  21  22
ATOM     22  O   UNL     1       7.381   5.368  15.080  0.00  0.00    +0.000 OA
ATOM     23  C   UNL     1       6.760   4.658  14.009  0.00  0.00    +0.000 C 
ENDBRANCH  21  22
ENDBRANCH  20  21
ENDBRANCH   9  20
BRANCH  12  24
ATOM     24  C   UNL     1       2.996   3.686  20.289  0.00  0.00    +0.000 C 
BRANCH  24  25
ATOM     25  C   UNL     1       2.356   2.390  19.790  0.00  0.00    +0.000 C 
BRANCH  25  26
ATOM     26  C   UNL     1       0.995   2.665  19.185  0.00  0.00    +0.000 C 
ATOM     27  F   UNL     1       1.066   3.426  18.072  0.00  0.00    +0.000 F 
ATOM     28  F   UNL     1       0.366   1.518  18.852  0.00  0.00    +0.000 F 
ATOM     29  F   UNL     1       0.208   3.320  20.068  0.00  0.00    +0.000 F 
ENDBRANCH  25  26
ENDBRANCH  24  25
ENDBRANCH  12  24
TORSDOF 9
ENDMDL
MODEL 7
REMARK VINA RESULT:      -6.0      1.820      6.685
REMARK  Name = 
REMARK  13 active torsions:
REMARK  status: ('A' for Active; 'I' for Inactive)
REMARK    1  A    between atoms: C_1  and  C_2
REMARK    2  A    between atoms: C_2  and  N_3
REMARK    3  A    between atoms: N_3  and  C_4
REMARK    4  A    between atoms: C_4  and  C_5
REMARK    5  A    between atoms: C_6  and  C_8
REMARK    6  A    between atoms: C_12  and  C_13
REMARK    7  A    between atoms: N_16  and  C_17
REMARK    8  A    between atoms: C_17  and  C_18
REMARK    9  A    between atoms: C_18  and  O_19
REMARK   10  A    between atoms: O_19  and  C_20
REMARK   11  A    between atoms: N_23  and  C_24
REMARK   12  A    between atoms: C_24  and  C_25
REMARK   13  A    between atoms: C_25  and  C_26
REMARK                            x       y       z     vdW  Elec       q    Type
REMARK                         _______ _______ _______ _____ _____    ______ ____
ROOT
ATOM      1  C   UNL     1       1.512   8.578  19.900  0.00  0.00    +0.000 A 
ATOM      2  S   UNL     1       1.241   6.960  20.395  0.00  0.00    +0.000 S 
ATOM      3  C   UNL     1       2.609   6.440  19.577  0.00  0.00    +0.000 A 
ATOM      4  C   UNL     1       2.913   7.262  18.526  0.00  0.00    +0.000 A 
ATOM      5  C   UNL     1       2.212   8.542  18.678  0.00  0.00    +0.000 A 
ATOM      6  C   UNL     1       2.273   9.684  17.705  0.00  0.00    +0.000 C 
ATOM      7  C   UNL     1       3.856   6.750  17.533  0.00  0.00    +0.000 A 
ATOM      8  O   UNL     1       4.248   7.444  16.595  0.00  0.00    +0.000 OA
ATOM      9  N   UNL     1       4.309   5.438  17.782  0.00  0.00    +0.000 N 
ATOM     10  C   UNL     1       4.166   4.768  18.998  0.00  0.00    +0.000 A 
ATOM     11  O   UNL     1       4.834   3.766  19.273  0.00  0.00    +0.000 OA
ATOM     12  N   UNL     1       3.241   5.262  19.915  0.00  0.00    +0.000 N 
ENDROOT
BRANCH   1  14
ATOM     13  N   UNL     1      -0.270  10.364  19.986  0.00  0.00    +0.000 N 
ATOM     14  C   UNL     1       0.827   9.680  20.608  0.00  0.00    +0.000 C 
ATOM     15  O   UNL     1       1.196  10.014  21.736  0.00  0.00    +0.000 OA
BRANCH  13  17
ATOM     16  C   UNL     1       0.260  12.806  19.826  0.00  0.00    +0.000 C 
ATOM     17  C   UNL     1      -0.576  11.714  20.474  0.00  0.00    +0.000 C 
ENDBRANCH  13  17
BRANCH  13  18
ATOM     18  C   UNL     1      -0.911   9.926  18.735  0.00  0.00    +0.000 C 
ATOM     19  C   UNL     1      -2.230  10.562  18.325  0.00  0.00    +0.000 C 
ENDBRANCH  13  18
ENDBRANCH   1  14
BRANCH   9  20
ATOM     20  C   UNL     1       5.235   4.828  16.821  0.00  0.00    +0.000 C 
BRANCH  20  21
ATOM     21  C   UNL     1       6.720   5.204  17.011  0.00  0.00    +0.000 C 
BRANCH  21  22
ATOM     22  O   UNL     1       7.509   4.746  15.910  0.00  0.00    +0.000 OA
ATOM     23  C   UNL     1       6.708   4.593  14.739  0.00  0.00    +0.000 C 
ENDBRANCH  21  22
ENDBRANCH  20  21
ENDBRANCH   9  20
BRANCH  12  24
ATOM     24  C   UNL     1       3.019   4.521  21.171  0.00  0.00    +0.000 C 
BRANCH  24  25
ATOM     25  C   UNL     1       2.750   3.026  20.993  0.00  0.00    +0.000 C 
BRANCH  25  26
ATOM     26  C   UNL     1       1.261   2.759  20.908  0.00  0.00    +0.000 C 
ATOM     27  F   UNL     1       0.554   3.859  20.572  0.00  0.00    +0.000 F 
ATOM     28  F   UNL     1       0.986   1.804  19.994  0.00  0.00    +0.000 F 
ATOM     29  F   UNL     1       0.789   2.329  22.101  0.00  0.00    +0.000 F 
ENDBRANCH  25  26
ENDBRANCH  24  25
ENDBRANCH  12  24
TORSDOF 9
ENDMDL
MODEL 8
REMARK VINA RESULT:      -6.0      2.009      6.675
REMARK  Name = 
REMARK  13 active torsions:
REMARK  status: ('A' for Active; 'I' for Inactive)
REMARK    1  A    between atoms: C_1  and  C_2
REMARK    2  A    between atoms: C_2  and  N_3
REMARK    3  A    between atoms: N_3  and  C_4
REMARK    4  A    between atoms: C_4  and  C_5
REMARK    5  A    between atoms: C_6  and  C_8
REMARK    6  A    between atoms: C_12  and  C_13
REMARK    7  A    between atoms: N_16  and  C_17
REMARK    8  A    between atoms: C_17  and  C_18
REMARK    9  A    between atoms: C_18  and  O_19
REMARK   10  A    between atoms: O_19  and  C_20
REMARK   11  A    between atoms: N_23  and  C_24
REMARK   12  A    between atoms: C_24  and  C_25
REMARK   13  A    between atoms: C_25  and  C_26
REMARK                            x       y       z     vdW  Elec       q    Type
REMARK                         _______ _______ _______ _____ _____    ______ ____
ROOT
ATOM      1  C   UNL     1       1.538   8.449  20.209  0.00  0.00    +0.000 A 
ATOM      2  S   UNL     1       1.215   6.782  20.440  0.00  0.00    +0.000 S 
ATOM      3  C   UNL     1       2.508   6.356  19.463  0.00  0.00    +0.000 A 
ATOM      4  C   UNL     1       2.793   7.332  18.548  0.00  0.00    +0.000 A 
ATOM      5  C   UNL     1       2.166   8.595  18.957  0.00  0.00    +0.000 A 
ATOM      6  C   UNL     1       2.231   9.883  18.189  0.00  0.00    +0.000 C 
ATOM      7  C   UNL     1       3.654   6.961  17.426  0.00  0.00    +0.000 A 
ATOM      8  O   UNL     1       4.027   7.789  16.595  0.00  0.00    +0.000 OA
ATOM      9  N   UNL     1       4.054   5.609  17.421  0.00  0.00    +0.000 N 
ATOM     10  C   UNL     1       3.945   4.747  18.514  0.00  0.00    +0.000 A 
ATOM     11  O   UNL     1       4.576   3.687  18.573  0.00  0.00    +0.000 OA
ATOM     12  N   UNL     1       3.098   5.113  19.557  0.00  0.00    +0.000 N 
ENDROOT
BRANCH   1  14
ATOM     13  N   UNL     1      -0.191  10.212  20.732  0.00  0.00    +0.000 N 
ATOM     14  C   UNL     1       0.949   9.440  21.135  0.00  0.00    +0.000 C 
ATOM     15  O   UNL     1       1.435   9.605  22.255  0.00  0.00    +0.000 OA
BRANCH  13  17
ATOM     16  C   UNL     1      -1.310  11.347  22.663  0.00  0.00    +0.000 C 
ATOM     17  C   UNL     1      -0.419  11.479  21.439  0.00  0.00    +0.000 C 
ENDBRANCH  13  17
BRANCH  13  18
ATOM     18  C   UNL     1      -0.962   9.964  19.503  0.00  0.00    +0.000 C 
ATOM     19  C   UNL     1      -1.454  11.153  18.693  0.00  0.00    +0.000 C 
ENDBRANCH  13  18
ENDBRANCH   1  14
BRANCH   9  20
ATOM     20  C   UNL     1       4.893   5.137  16.314  0.00  0.00    +0.000 C 
BRANCH  20  21
ATOM     21  C   UNL     1       6.413   5.164  16.585  0.00  0.00    +0.000 C 
BRANCH  21  22
ATOM     22  O   UNL     1       6.965   6.447  16.279  0.00  0.00    +0.000 OA
ATOM     23  C   UNL     1       7.431   7.096  17.462  0.00  0.00    +0.000 C 
ENDBRANCH  21  22
ENDBRANCH  20  21
ENDBRANCH   9  20
BRANCH  12  24
ATOM     24  C   UNL     1       2.909   4.177  20.681  0.00  0.00    +0.000 C 
BRANCH  24  25
ATOM     25  C   UNL     1       1.514   3.555  20.769  0.00  0.00    +0.000 C 
BRANCH  25  26
ATOM     26  C   UNL     1       1.184   2.805  19.494  0.00  0.00    +0.000 C 
ATOM     27  F   UNL     1       0.030   2.110  19.586  0.00  0.00    +0.000 F 
ATOM     28  F   UNL     1       1.067   3.648  18.446  0.00  0.00    +0.000 F 
ATOM     29  F   UNL     1       2.163   1.920  19.199  0.00  0.00    +0.000 F 
ENDBRANCH  25  26
ENDBRANCH  24  25
ENDBRANCH  12  24
TORSDOF 9
ENDMDL
MODEL 9
REMARK VINA RESULT:      -5.9      1.851      6.500
REMARK  Name = 
REMARK  13 active torsions:
REMARK  status: ('A' for Active; 'I' for Inactive)
REMARK    1  A    between atoms: C_1  and  C_2
REMARK    2  A    between atoms: C_2  and  N_3
REMARK    3  A    between atoms: N_3  and  C_4
REMARK    4  A    between atoms: C_4  and  C_5
REMARK    5  A    between atoms: C_6  and  C_8
REMARK    6  A    between atoms: C_12  and  C_13
REMARK    7  A    between atoms: N_16  and  C_17
REMARK    8  A    between atoms: C_17  and  C_18
REMARK    9  A    between atoms: C_18  and  O_19
REMARK   10  A    between atoms: O_19  and  C_20
REMARK   11  A    between atoms: N_23  and  C_24
REMARK   12  A    between atoms: C_24  and  C_25
REMARK   13  A    between atoms: C_25  and  C_26
REMARK                            x       y       z     vdW  Elec       q    Type
REMARK                         _______ _______ _______ _____ _____    ______ ____
ROOT
ATOM      1  C   UNL     1       1.854   8.035  19.822  0.00  0.00    +0.000 A 
ATOM      2  S   UNL     1       1.765   6.347  20.106  0.00  0.00    +0.000 S 
ATOM      3  C   UNL     1       3.067   6.067  19.089  0.00  0.00    +0.000 A 
ATOM      4  C   UNL     1       3.186   7.046  18.140  0.00  0.00    +0.000 A 
ATOM      5  C   UNL     1       2.412   8.226  18.543  0.00  0.00    +0.000 A 
ATOM      6  C   UNL     1       2.276   9.488  17.742  0.00  0.00    +0.000 C 
ATOM      7  C   UNL     1       4.048   6.759  16.994  0.00  0.00    +0.000 A 
ATOM      8  O   UNL     1       4.277   7.604  16.129  0.00  0.00    +0.000 OA
ATOM      9  N   UNL     1       4.624   5.473  17.006  0.00  0.00    +0.000 N 
ATOM     10  C   UNL     1       4.671   4.636  18.123  0.00  0.00    +0.000 A 
ATOM     11  O   UNL     1       5.440   3.671  18.184  0.00  0.00    +0.000 OA
ATOM     12  N   UNL     1       3.821   4.917  19.190  0.00  0.00    +0.000 N 
ENDROOT
BRANCH   1  14
ATOM     13  N   UNL     1       0.160   9.855  20.254  0.00  0.00    +0.000 N 
ATOM     14  C   UNL     1       1.172   8.966  20.746  0.00  0.00    +0.000 C 
ATOM     15  O   UNL     1       1.471   8.980  21.942  0.00  0.00    +0.000 OA
BRANCH  13  17
ATOM     16  C   UNL     1       0.777  12.238  20.713  0.00  0.00    +0.000 C 
ATOM     17  C   UNL     1      -0.116  11.056  21.052  0.00  0.00    +0.000 C 
ENDBRANCH  13  17
BRANCH  13  18
ATOM     18  C   UNL     1      -0.406   9.790  18.897  0.00  0.00    +0.000 C 
ATOM     19  C   UNL     1      -1.752  10.446  18.629  0.00  0.00    +0.000 C 
ENDBRANCH  13  18
ENDBRANCH   1  14
BRANCH   9  20
ATOM     20  C   UNL     1       5.479   5.083  15.879  0.00  0.00    +0.000 C 
BRANCH  20  21
ATOM     21  C   UNL     1       6.997   5.139  16.157  0.00  0.00    +0.000 C 
BRANCH  21  22
ATOM     22  O   UNL     1       7.456   6.492  16.221  0.00  0.00    +0.000 OA
ATOM     23  C   UNL     1       7.642   6.902  17.575  0.00  0.00    +0.000 C 
ENDBRANCH  21  22
ENDBRANCH  20  21
ENDBRANCH   9  20
BRANCH  12  24
ATOM     24  C   UNL     1       3.798   3.998  20.343  0.00  0.00    +0.000 C 
BRANCH  24  25
ATOM     25  C   UNL     1       2.779   2.863  20.238  0.00  0.00    +0.000 C 
BRANCH  25  26
ATOM     26  C   UNL     1       1.817   2.899  21.408  0.00  0.00    +0.000 C 
ATOM     27  F   UNL     1       2.166   3.813  22.338  0.00  0.00    +0.000 F 
ATOM     28  F   UNL     1       0.563   3.191  21.002  0.00  0.00    +0.000 F 
ATOM     29  F   UNL     1       1.777   1.696  22.024  0.00  0.00    +0.000 F 
ENDBRANCH  25  26
ENDBRANCH  24  25
ENDBRANCH  12  24
TORSDOF 9
ENDMDL
