MODEL 1
REMARK VINA RESULT:      -7.7      0.000      0.000
REMARK  Name = 
REMARK  8 active torsions:
REMARK  status: ('A' for Active; 'I' for Inactive)
REMARK    1  A    between atoms: C_1  and  C_2
REMARK    2  A    between atoms: C_2  and  C_3
REMARK    3  A    between atoms: C_3  and  N_4
REMARK    4  A    between atoms: C_8  and  O_9
REMARK    5  A    between atoms: O_9  and  C_10
REMARK    6  A    between atoms: C_16  and  C_17
REMARK    7  A    between atoms: C_20  and  O_21
REMARK    8  A    between atoms: O_21  and  C_22
REMARK                            x       y       z     vdW  Elec       q    Type
REMARK                         _______ _______ _______ _____ _____    ______ ____
ROOT
ATOM      1  N   UNL     1       5.793   6.236  16.982  0.00  0.00    +0.000 NA
ATOM      2  C   UNL     1       6.515   5.455  15.982  0.00  0.00    +0.000 C 
ATOM      3  O   UNL     1       6.385   4.053  16.168  0.00  0.00    +0.000 OA
ATOM      4  C   UNL     1       5.034   3.621  16.021  0.00  0.00    +0.000 C 
ATOM      5  C   UNL     1       4.126   4.254  17.088  0.00  0.00    +0.000 C 
ATOM      6  C   UNL     1       4.365   5.808  17.010  0.00  0.00    +0.000 C 
ENDROOT
BRANCH   6   7
ATOM      7  C   UNL     1       3.486   6.709  17.887  0.00  0.00    +0.000 A 
ATOM      8  C   UNL     1       3.077   6.364  19.180  0.00  0.00    +0.000 A 
ATOM      9  C   UNL     1       2.236   7.212  19.914  0.00  0.00    +0.000 A 
ATOM     10  C   UNL     1       1.799   8.422  19.381  0.00  0.00    +0.000 A 
ATOM     11  C   UNL     1       2.193   8.782  18.097  0.00  0.00    +0.000 A 
ATOM     12  C   UNL     1       3.023   7.929  17.357  0.00  0.00    +0.000 A 
BRANCH  10  13
ATOM     13  O   UNL     1       0.966   9.146  20.191  0.00  0.00    +0.000 OA
ATOM     14  C   UNL     1       1.077   8.887  21.585  0.00  0.00    +0.000 C 
ENDBRANCH  10  13
ENDBRANCH   6   7
BRANCH   1  15
ATOM     15  C   UNL     1       6.447   6.202  18.299  0.00  0.00    +0.000 C 
BRANCH  15  17
ATOM     16  C   UNL     1       7.928   8.258  17.812  0.00  0.00    +0.000 C 
ATOM     17  C   UNL     1       7.857   6.830  18.333  0.00  0.00    +0.000 C 
ENDBRANCH  15  17
ENDBRANCH   1  15
BRANCH   5  18
ATOM     18  O   UNL     1       4.420   3.730  18.397  0.00  0.00    +0.000 OA
BRANCH  18  19
ATOM     19  C   UNL     1       3.391   3.314  19.203  0.00  0.00    +0.000 A 
ATOM     20  C   UNL     1       3.455   3.047  20.574  0.00  0.00    +0.000 A 
ATOM     21  C   UNL     1       2.298   2.713  21.288  0.00  0.00    +0.000 A 
ATOM     22  C   UNL     1       1.072   2.597  20.638  0.00  0.00    +0.000 A 
ATOM     23  C   UNL     1       1.007   2.819  19.265  0.00  0.00    +0.000 A 
ATOM     24  C   UNL     1       2.159   3.176  18.557  0.00  0.00    +0.000 A 
ENDBRANCH  18  19
ENDBRANCH   5  18
TORSDOF 6
ENDMDL
MODEL 2
REMARK VINA RESULT:      -7.4      0.545      1.137
REMARK  Name = 
REMARK  8 active torsions:
REMARK  status: ('A' for Active; 'I' for Inactive)
REMARK    1  A    between atoms: C_1  and  C_2
REMARK    2  A    between atoms: C_2  and  C_3
REMARK    3  A    between atoms: C_3  and  N_4
REMARK    4  A    between atoms: C_8  and  O_9
REMARK    5  A    between atoms: O_9  and  C_10
REMARK    6  A    between atoms: C_16  and  C_17
REMARK    7  A    between atoms: C_20  and  O_21
REMARK    8  A    between atoms: O_21  and  C_22
REMARK                            x       y       z     vdW  Elec       q    Type
REMARK                         _______ _______ _______ _____ _____    ______ ____
ROOT
ATOM      1  N   UNL     1       5.917   6.232  16.948  0.00  0.00    +0.000 NA
ATOM      2  C   UNL     1       6.699   5.467  15.981  0.00  0.00    +0.000 C 
ATOM      3  O   UNL     1       6.570   4.063  16.143  0.00  0.00    +0.000 OA
ATOM      4  C   UNL     1       5.232   3.623  15.915  0.00  0.00    +0.000 C 
ATOM      5  C   UNL     1       4.261   4.238  16.936  0.00  0.00    +0.000 C 
ATOM      6  C   UNL     1       4.492   5.794  16.889  0.00  0.00    +0.000 C 
ENDROOT
BRANCH   6   7
ATOM      7  C   UNL     1       3.558   6.679  17.725  0.00  0.00    +0.000 A 
ATOM      8  C   UNL     1       3.084   7.922  17.292  0.00  0.00    +0.000 A 
ATOM      9  C   UNL     1       2.270   8.706  18.123  0.00  0.00    +0.000 A 
ATOM     10  C   UNL     1       1.904   8.260  19.390  0.00  0.00    +0.000 A 
ATOM     11  C   UNL     1       2.366   7.028  19.839  0.00  0.00    +0.000 A 
ATOM     12  C   UNL     1       3.191   6.250  19.015  0.00  0.00    +0.000 A 
BRANCH  10  13
ATOM     13  O   UNL     1       1.124   9.127  20.107  0.00  0.00    +0.000 OA
ATOM     14  C   UNL     1       0.775  10.339  19.448  0.00  0.00    +0.000 C 
ENDBRANCH  10  13
ENDBRANCH   6   7
BRANCH   1  15
ATOM     15  C   UNL     1       6.495   6.187  18.299  0.00  0.00    +0.000 C 
BRANCH  15  17
ATOM     16  C   UNL     1       7.962   8.260  17.839  0.00  0.00    +0.000 C 
ATOM     17  C   UNL     1       7.879   6.859  18.429  0.00  0.00    +0.000 C 
ENDBRANCH  15  17
ENDBRANCH   1  15
BRANCH   5  18
ATOM     18  O   UNL     1       4.484   3.701  18.253  0.00  0.00    +0.000 OA
BRANCH  18  19
ATOM     19  C   UNL     1       3.416   3.241  18.983  0.00  0.00    +0.000 A 
ATOM     20  C   UNL     1       3.380   3.010  20.361  0.00  0.00    +0.000 A 
ATOM     21  C   UNL     1       2.190   2.623  20.986  0.00  0.00    +0.000 A 
ATOM     22  C   UNL     1       1.031   2.416  20.240  0.00  0.00    +0.000 A 
ATOM     23  C   UNL     1       1.070   2.602  18.861  0.00  0.00    +0.000 A 
ATOM     24  C   UNL     1       2.254   3.012  18.241  0.00  0.00    +0.000 A 
ENDBRANCH  18  19
ENDBRANCH   5  18
TORSDOF 6
ENDMDL
MODEL 3
REMARK VINA RESULT:      -7.4      0.604      1.149
REMARK  Name = 
REMARK  8 active torsions:
REMARK  status: ('A' for Active; 'I' for Inactive)
REMARK    1  A    between atoms: C_1  and  C_2
REMARK    2  A    between atoms: C_2  and  C_3
REMARK    3  A    between atoms: C_3  and  N_4
REMARK    4  A    between atoms: C_8  and  O_9
REMARK    5  A    between atoms: O_9  and  C_10
REMARK    6  A    between atoms: C_16  and  C_17
REMARK    7  A    between atoms: C_20  and  O_21
REMARK    8  A    between atoms: O_21  and  C_22
REMARK                            x       y       z     vdW  Elec       q    Type
REMARK                         _______ _______ _______ _____ _____    ______ ____
ROOT
ATOM      1  N   UNL     1       6.064   6.044  17.082  0.00  0.00    +0.000 NA
ATOM      2  C   UNL     1       6.843   5.320  16.082  0.00  0.00    +0.000 C 
ATOM      3  O   UNL     1       6.610   3.920  16.099  0.00  0.00    +0.000 OA
ATOM      4  C   UNL     1       5.260   3.603  15.766  0.00  0.00    +0.000 C 
ATOM      5  C   UNL     1       4.279   4.186  16.796  0.00  0.00    +0.000 C 
ATOM      6  C   UNL     1       4.618   5.719  16.913  0.00  0.00    +0.000 C 
ENDROOT
BRANCH   6   7
ATOM      7  C   UNL     1       3.703   6.587  17.788  0.00  0.00    +0.000 A 
ATOM      8  C   UNL     1       3.213   6.178  19.032  0.00  0.00    +0.000 A 
ATOM      9  C   UNL     1       2.342   6.999  19.763  0.00  0.00    +0.000 A 
ATOM     10  C   UNL     1       1.958   8.246  19.275  0.00  0.00    +0.000 A 
ATOM     11  C   UNL     1       2.434   8.670  18.040  0.00  0.00    +0.000 A 
ATOM     12  C   UNL     1       3.292   7.844  17.301  0.00  0.00    +0.000 A 
BRANCH  10  13
ATOM     13  O   UNL     1       1.090   8.939  20.075  0.00  0.00    +0.000 OA
ATOM     14  C   UNL     1       0.543  10.127  19.516  0.00  0.00    +0.000 C 
ENDBRANCH  10  13
ENDBRANCH   6   7
BRANCH   1  15
ATOM     15  C   UNL     1       6.564   5.830  18.448  0.00  0.00    +0.000 C 
BRANCH  15  17
ATOM     16  C   UNL     1       8.069   7.889  18.052  0.00  0.00    +0.000 C 
ATOM     17  C   UNL     1       7.886   6.559  18.770  0.00  0.00    +0.000 C 
ENDBRANCH  15  17
ENDBRANCH   1  15
BRANCH   5  18
ATOM     18  O   UNL     1       4.394   3.512  18.063  0.00  0.00    +0.000 OA
BRANCH  18  19
ATOM     19  C   UNL     1       3.259   3.229  18.781  0.00  0.00    +0.000 A 
ATOM     20  C   UNL     1       1.967   3.059  18.275  0.00  0.00    +0.000 A 
ATOM     21  C   UNL     1       0.916   2.684  19.120  0.00  0.00    +0.000 A 
ATOM     22  C   UNL     1       1.129   2.519  20.487  0.00  0.00    +0.000 A 
ATOM     23  C   UNL     1       2.404   2.730  21.006  0.00  0.00    +0.000 A 
ATOM     24  C   UNL     1       3.458   3.081  20.157  0.00  0.00    +0.000 A 
ENDBRANCH  18  19
ENDBRANCH   5  18
TORSDOF 6
ENDMDL
MODEL 4
REMARK VINA RESULT:      -7.3      0.342      1.425
REMARK  Name = 
REMARK  8 active torsions:
REMARK  status: ('A' for Active; 'I' for Inactive)
REMARK    1  A    between atoms: C_1  and  C_2
REMARK    2  A    between atoms: C_2  and  C_3
REMARK    3  A    between atoms: C_3  and  N_4
REMARK    4  A    between atoms: C_8  and  O_9
REMARK    5  A    between atoms: O_9  and  C_10
REMARK    6  A    between atoms: C_16  and  C_17
REMARK    7  A    between atoms: C_20  and  O_21
REMARK    8  A    between atoms: O_21  and  C_22
REMARK                            x       y       z     vdW  Elec       q    Type
REMARK                         _______ _______ _______ _____ _____    ______ ____
ROOT
ATOM      1  N   UNL     1       6.044   6.167  16.994  0.00  0.00    +0.000 NA
ATOM      2  C   UNL     1       6.862   5.440  16.028  0.00  0.00    +0.000 C 
ATOM      3  O   UNL     1       6.684   4.033  16.093  0.00  0.00    +0.000 OA
ATOM      4  C   UNL     1       5.351   3.651  15.760  0.00  0.00    +0.000 C 
ATOM      5  C   UNL     1       4.337   4.231  16.760  0.00  0.00    +0.000 C 
ATOM      6  C   UNL     1       4.614   5.779  16.825  0.00  0.00    +0.000 C 
ENDROOT
BRANCH   6   7
ATOM      7  C   UNL     1       3.657   6.640  17.660  0.00  0.00    +0.000 A 
ATOM      8  C   UNL     1       3.163   7.877  17.233  0.00  0.00    +0.000 A 
ATOM      9  C   UNL     1       2.327   8.638  18.063  0.00  0.00    +0.000 A 
ATOM     10  C   UNL     1       1.959   8.175  19.324  0.00  0.00    +0.000 A 
ATOM     11  C   UNL     1       2.441   6.949  19.767  0.00  0.00    +0.000 A 
ATOM     12  C   UNL     1       3.287   6.193  18.944  0.00  0.00    +0.000 A 
BRANCH  10  13
ATOM     13  O   UNL     1       1.157   9.022  20.041  0.00  0.00    +0.000 OA
ATOM     14  C   UNL     1       0.949   8.675  21.405  0.00  0.00    +0.000 C 
ENDBRANCH  10  13
ENDBRANCH   6   7
BRANCH   1  15
ATOM     15  C   UNL     1       6.539   6.022  18.371  0.00  0.00    +0.000 C 
BRANCH  15  17
ATOM     16  C   UNL     1       8.065   8.076  18.043  0.00  0.00    +0.000 C 
ATOM     17  C   UNL     1       7.908   6.683  18.636  0.00  0.00    +0.000 C 
ENDBRANCH  15  17
ENDBRANCH   1  15
BRANCH   5  18
ATOM     18  O   UNL     1       4.466   3.607  18.051  0.00  0.00    +0.000 OA
BRANCH  18  19
ATOM     19  C   UNL     1       3.336   3.244  18.740  0.00  0.00    +0.000 A 
ATOM     20  C   UNL     1       2.071   2.992  18.202  0.00  0.00    +0.000 A 
ATOM     21  C   UNL     1       1.027   2.543  19.020  0.00  0.00    +0.000 A 
ATOM     22  C   UNL     1       1.218   2.383  20.390  0.00  0.00    +0.000 A 
ATOM     23  C   UNL     1       2.464   2.674  20.941  0.00  0.00    +0.000 A 
ATOM     24  C   UNL     1       3.512   3.100  20.119  0.00  0.00    +0.000 A 
ENDBRANCH  18  19
ENDBRANCH   5  18
TORSDOF 6
ENDMDL
MODEL 5
REMARK VINA RESULT:      -7.1      2.012      5.326
REMARK  Name = 
REMARK  8 active torsions:
REMARK  status: ('A' for Active; 'I' for Inactive)
REMARK    1  A    between atoms: C_1  and  C_2
REMARK    2  A    between atoms: C_2  and  C_3
REMARK    3  A    between atoms: C_3  and  N_4
REMARK    4  A    between atoms: C_8  and  O_9
REMARK    5  A    between atoms: O_9  and  C_10
REMARK    6  A    between atoms: C_16  and  C_17
REMARK    7  A    between atoms: C_20  and  O_21
REMARK    8  A    between atoms: O_21  and  C_22
REMARK                            x       y       z     vdW  Elec       q    Type
REMARK                         _______ _______ _______ _____ _____    ______ ____
ROOT
ATOM      1  N   UNL     1       4.134   3.012  18.564  0.00  0.00    +0.000 NA
ATOM      2  C   UNL     1       3.020   2.138  18.210  0.00  0.00    +0.000 C 
ATOM      3  O   UNL     1       1.752   2.754  18.376  0.00  0.00    +0.000 OA
ATOM      4  C   UNL     1       1.588   3.875  17.509  0.00  0.00    +0.000 C 
ATOM      5  C   UNL     1       2.615   4.976  17.820  0.00  0.00    +0.000 C 
ATOM      6  C   UNL     1       4.029   4.286  17.794  0.00  0.00    +0.000 C 
ENDROOT
BRANCH   6   7
ATOM      7  C   UNL     1       5.264   5.183  17.950  0.00  0.00    +0.000 A 
ATOM      8  C   UNL     1       6.277   4.943  18.884  0.00  0.00    +0.000 A 
ATOM      9  C   UNL     1       7.358   5.827  19.009  0.00  0.00    +0.000 A 
ATOM     10  C   UNL     1       7.456   6.955  18.198  0.00  0.00    +0.000 A 
ATOM     11  C   UNL     1       6.459   7.211  17.264  0.00  0.00    +0.000 A 
ATOM     12  C   UNL     1       5.370   6.336  17.147  0.00  0.00    +0.000 A 
BRANCH  10  13
ATOM     13  O   UNL     1       8.548   7.746  18.434  0.00  0.00    +0.000 OA
ATOM     14  C   UNL     1       8.378   9.134  18.175  0.00  0.00    +0.000 C 
ENDBRANCH  10  13
ENDBRANCH   6   7
BRANCH   1  15
ATOM     15  C   UNL     1       4.256   3.206  20.016  0.00  0.00    +0.000 C 
BRANCH  15  17
ATOM     16  C   UNL     1       2.273   3.356  21.661  0.00  0.00    +0.000 C 
ATOM     17  C   UNL     1       3.201   2.455  20.856  0.00  0.00    +0.000 C 
ENDBRANCH  15  17
ENDBRANCH   1  15
BRANCH   5  18
ATOM     18  O   UNL     1       2.342   5.596  19.090  0.00  0.00    +0.000 OA
BRANCH  18  19
ATOM     19  C   UNL     1       2.058   6.938  19.139  0.00  0.00    +0.000 A 
ATOM     20  C   UNL     1       2.140   7.851  18.083  0.00  0.00    +0.000 A 
ATOM     21  C   UNL     1       1.732   9.178  18.258  0.00  0.00    +0.000 A 
ATOM     22  C   UNL     1       1.283   9.624  19.499  0.00  0.00    +0.000 A 
ATOM     23  C   UNL     1       1.240   8.732  20.567  0.00  0.00    +0.000 A 
ATOM     24  C   UNL     1       1.624   7.400  20.384  0.00  0.00    +0.000 A 
ENDBRANCH  18  19
ENDBRANCH   5  18
TORSDOF 6
ENDMDL
MODEL 6
REMARK VINA RESULT:      -7.0      1.856      5.007
REMARK  Name = 
REMARK  8 active torsions:
REMARK  status: ('A' for Active; 'I' for Inactive)
REMARK    1  A    between atoms: C_1  and  C_2
REMARK    2  A    between atoms: C_2  and  C_3
REMARK    3  A    between atoms: C_3  and  N_4
REMARK    4  A    between atoms: C_8  and  O_9
REMARK    5  A    between atoms: O_9  and  C_10
REMARK    6  A    between atoms: C_16  and  C_17
REMARK    7  A    between atoms: C_20  and  O_21
REMARK    8  A    between atoms: O_21  and  C_22
REMARK                            x       y       z     vdW  Elec       q    Type
REMARK                         _______ _______ _______ _____ _____    ______ ____
ROOT
ATOM      1  N   UNL     1       2.372   4.770  20.077  0.00  0.00    +0.000 NA
ATOM      2  C   UNL     1       3.201   3.671  20.562  0.00  0.00    +0.000 C 
ATOM      3  O   UNL     1       4.225   3.300  19.651  0.00  0.00    +0.000 OA
ATOM      4  C   UNL     1       5.158   4.358  19.442  0.00  0.00    +0.000 C 
ATOM      5  C   UNL     1       4.481   5.584  18.808  0.00  0.00    +0.000 C 
ATOM      6  C   UNL     1       3.243   5.927  19.717  0.00  0.00    +0.000 C 
ENDROOT
BRANCH   6   7
ATOM      7  C   UNL     1       2.446   7.197  19.388  0.00  0.00    +0.000 A 
ATOM      8  C   UNL     1       2.445   7.800  18.126  0.00  0.00    +0.000 A 
ATOM      9  C   UNL     1       1.733   8.986  17.901  0.00  0.00    +0.000 A 
ATOM     10  C   UNL     1       0.999   9.584  18.922  0.00  0.00    +0.000 A 
ATOM     11  C   UNL     1       0.988   9.000  20.184  0.00  0.00    +0.000 A 
ATOM     12  C   UNL     1       1.711   7.821  20.415  0.00  0.00    +0.000 A 
BRANCH  10  13
ATOM     13  O   UNL     1       0.366  10.747  18.578  0.00  0.00    +0.000 OA
ATOM     14  C   UNL     1      -1.048  10.670  18.444  0.00  0.00    +0.000 C 
ENDBRANCH  10  13
ENDBRANCH   6   7
BRANCH   1  15
ATOM     15  C   UNL     1       1.463   4.355  18.998  0.00  0.00    +0.000 C 
BRANCH  15  17
ATOM     16  C   UNL     1       1.048   1.841  18.589  0.00  0.00    +0.000 C 
ATOM     17  C   UNL     1       0.614   3.105  19.317  0.00  0.00    +0.000 C 
ENDBRANCH  15  17
ENDBRANCH   1  15
BRANCH   5  18
ATOM     18  O   UNL     1       4.091   5.315  17.448  0.00  0.00    +0.000 OA
BRANCH  18  19
ATOM     19  C   UNL     1       5.058   5.180  16.484  0.00  0.00    +0.000 A 
ATOM     20  C   UNL     1       6.181   5.992  16.303  0.00  0.00    +0.000 A 
ATOM     21  C   UNL     1       7.135   5.679  15.327  0.00  0.00    +0.000 A 
ATOM     22  C   UNL     1       6.958   4.581  14.489  0.00  0.00    +0.000 A 
ATOM     23  C   UNL     1       5.820   3.792  14.633  0.00  0.00    +0.000 A 
ATOM     24  C   UNL     1       4.880   4.092  15.625  0.00  0.00    +0.000 A 
ENDBRANCH  18  19
ENDBRANCH   5  18
TORSDOF 6
ENDMDL
MODEL 7
REMARK VINA RESULT:      -6.9      1.870      4.973
REMARK  Name = 
REMARK  8 active torsions:
REMARK  status: ('A' for Active; 'I' for Inactive)
REMARK    1  A    between atoms: C_1  and  C_2
REMARK    2  A    between atoms: C_2  and  C_3
REMARK    3  A    between atoms: C_3  and  N_4
REMARK    4  A    between atoms: C_8  and  O_9
REMARK    5  A    between atoms: O_9  and  C_10
REMARK    6  A    between atoms: C_16  and  C_17
REMARK    7  A    between atoms: C_20  and  O_21
REMARK    8  A    between atoms: O_21  and  C_22
REMARK                            x       y       z     vdW  Elec       q    Type
REMARK                         _______ _______ _______ _____ _____    ______ ____
ROOT
ATOM      1  N   UNL     1       2.389   4.789  20.185  0.00  0.00    +0.000 NA
ATOM      2  C   UNL     1       3.203   3.672  20.654  0.00  0.00    +0.000 C 
ATOM      3  O   UNL     1       4.188   3.267  19.715  0.00  0.00    +0.000 OA
ATOM      4  C   UNL     1       5.142   4.298  19.469  0.00  0.00    +0.000 C 
ATOM      5  C   UNL     1       4.478   5.536  18.846  0.00  0.00    +0.000 C 
ATOM      6  C   UNL     1       3.279   5.920  19.790  0.00  0.00    +0.000 C 
ENDROOT
BRANCH   6   7
ATOM      7  C   UNL     1       2.506   7.208  19.475  0.00  0.00    +0.000 A 
ATOM      8  C   UNL     1       1.712   7.877  20.411  0.00  0.00    +0.000 A 
ATOM      9  C   UNL     1       0.993   9.025  20.049  0.00  0.00    +0.000 A 
ATOM     10  C   UNL     1       1.064   9.534  18.754  0.00  0.00    +0.000 A 
ATOM     11  C   UNL     1       1.847   8.881  17.808  0.00  0.00    +0.000 A 
ATOM     12  C   UNL     1       2.555   7.725  18.165  0.00  0.00    +0.000 A 
BRANCH  10  13
ATOM     13  O   UNL     1       0.300  10.646  18.525  0.00  0.00    +0.000 OA
ATOM     14  C   UNL     1      -1.063  10.557  18.923  0.00  0.00    +0.000 C 
ENDBRANCH  10  13
ENDBRANCH   6   7
BRANCH   1  15
ATOM     15  C   UNL     1       1.437   4.390  19.139  0.00  0.00    +0.000 C 
BRANCH  15  17
ATOM     16  C   UNL     1       0.856   1.938  18.583  0.00  0.00    +0.000 C 
ATOM     17  C   UNL     1       0.594   3.142  19.477  0.00  0.00    +0.000 C 
ENDBRANCH  15  17
ENDBRANCH   1  15
BRANCH   5  18
ATOM     18  O   UNL     1       4.039   5.269  17.501  0.00  0.00    +0.000 OA
BRANCH  18  19
ATOM     19  C   UNL     1       4.971   5.002  16.529  0.00  0.00    +0.000 A 
ATOM     20  C   UNL     1       4.988   3.904  15.664  0.00  0.00    +0.000 A 
ATOM     21  C   UNL     1       5.956   3.807  14.657  0.00  0.00    +0.000 A 
ATOM     22  C   UNL     1       6.947   4.778  14.530  0.00  0.00    +0.000 A 
ATOM     23  C   UNL     1       6.962   5.852  15.415  0.00  0.00    +0.000 A 
ATOM     24  C   UNL     1       5.980   5.960  16.404  0.00  0.00    +0.000 A 
ENDBRANCH  18  19
ENDBRANCH   5  18
TORSDOF 6
ENDMDL
MODEL 8
REMARK VINA RESULT:      -6.9      2.077      6.001
REMARK  Name = 
REMARK  8 active torsions:
REMARK  status: ('A' for Active; 'I' for Inactive)
REMARK    1  A    between atoms: C_1  and  C_2
REMARK    2  A    between atoms: C_2  and  C_3
REMARK    3  A    between atoms: C_3  and  N_4
REMARK    4  A    between atoms: C_8  and  O_9
REMARK    5  A    between atoms: O_9  and  C_10
REMARK    6  A    between atoms: C_16  and  C_17
REMARK    7  A    between atoms: C_20  and  O_21
REMARK    8  A    between atoms: O_21  and  C_22
REMARK                            x       y       z     vdW  Elec       q    Type
REMARK                         _______ _______ _______ _____ _____    ______ ____
ROOT
ATOM      1  N   UNL     1       3.633   2.614  18.284  0.00  0.00    +0.000 NA
ATOM      2  C   UNL     1       2.386   2.052  18.793  0.00  0.00    +0.000 C 
ATOM      3  O   UNL     1       1.527   3.026  19.366  0.00  0.00    +0.000 OA
ATOM      4  C   UNL     1       1.094   3.984  18.402  0.00  0.00    +0.000 C 
ATOM      5  C   UNL     1       2.280   4.779  17.833  0.00  0.00    +0.000 C 
ATOM      6  C   UNL     1       3.325   3.716  17.327  0.00  0.00    +0.000 C 
ENDROOT
BRANCH   6   7
ATOM      7  C   UNL     1       4.567   4.233  16.589  0.00  0.00    +0.000 A 
ATOM      8  C   UNL     1       5.008   5.559  16.658  0.00  0.00    +0.000 A 
ATOM      9  C   UNL     1       6.125   5.980  15.922  0.00  0.00    +0.000 A 
ATOM     10  C   UNL     1       6.829   5.087  15.118  0.00  0.00    +0.000 A 
ATOM     11  C   UNL     1       6.406   3.765  15.035  0.00  0.00    +0.000 A 
ATOM     12  C   UNL     1       5.281   3.346  15.759  0.00  0.00    +0.000 A 
BRANCH  10  13
ATOM     13  O   UNL     1       7.886   5.629  14.438  0.00  0.00    +0.000 OA
ATOM     14  C   UNL     1       7.969   5.302  13.056  0.00  0.00    +0.000 C 
ENDBRANCH  10  13
ENDBRANCH   6   7
BRANCH   1  15
ATOM     15  C   UNL     1       4.554   3.005  19.361  0.00  0.00    +0.000 C 
BRANCH  15  17
ATOM     16  C   UNL     1       5.314   1.149  20.985  0.00  0.00    +0.000 C 
ATOM     17  C   UNL     1       4.326   2.272  20.701  0.00  0.00    +0.000 C 
ENDBRANCH  15  17
ENDBRANCH   1  15
BRANCH   5  18
ATOM     18  O   UNL     1       2.843   5.654  18.828  0.00  0.00    +0.000 OA
BRANCH  18  19
ATOM     19  C   UNL     1       2.374   6.939  18.938  0.00  0.00    +0.000 A 
ATOM     20  C   UNL     1       2.297   7.894  17.920  0.00  0.00    +0.000 A 
ATOM     21  C   UNL     1       1.711   9.143  18.159  0.00  0.00    +0.000 A 
ATOM     22  C   UNL     1       1.236   9.472  19.426  0.00  0.00    +0.000 A 
ATOM     23  C   UNL     1       1.348   8.543  20.456  0.00  0.00    +0.000 A 
ATOM     24  C   UNL     1       1.912   7.288  20.210  0.00  0.00    +0.000 A 
ENDBRANCH  18  19
ENDBRANCH   5  18
TORSDOF 6
ENDMDL
MODEL 9
REMARK VINA RESULT:      -6.9      1.853      5.051
REMARK  Name = 
REMARK  8 active torsions:
REMARK  status: ('A' for Active; 'I' for Inactive)
REMARK    1  A    between atoms: C_1  and  C_2
REMARK    2  A    between atoms: C_2  and  C_3
REMARK    3  A    between atoms: C_3  and  N_4
REMARK    4  A    between atoms: C_8  and  O_9
REMARK    5  A    between atoms: O_9  and  C_10
REMARK    6  A    between atoms: C_16  and  C_17
REMARK    7  A    between atoms: C_20  and  O_21
REMARK    8  A    between atoms: O_21  and  C_22
REMARK                            x       y       z     vdW  Elec       q    Type
REMARK                         _______ _______ _______ _____ _____    ______ ____
ROOT
ATOM      1  N   UNL     1       2.380   4.698  20.121  0.00  0.00    +0.000 NA
ATOM      2  C   UNL     1       3.209   3.575  20.549  0.00  0.00    +0.000 C 
ATOM      3  O   UNL     1       4.204   3.222  19.599  0.00  0.00    +0.000 OA
ATOM      4  C   UNL     1       5.144   4.276  19.399  0.00  0.00    +0.000 C 
ATOM      5  C   UNL     1       4.464   5.528  18.822  0.00  0.00    +0.000 C 
ATOM      6  C   UNL     1       3.255   5.856  19.774  0.00  0.00    +0.000 C 
ENDROOT
BRANCH   6   7
ATOM      7  C   UNL     1       2.464   7.144  19.507  0.00  0.00    +0.000 A 
ATOM      8  C   UNL     1       2.502   7.831  18.289  0.00  0.00    +0.000 A 
ATOM      9  C   UNL     1       1.792   9.029  18.123  0.00  0.00    +0.000 A 
ATOM     10  C   UNL     1       1.024   9.555  19.159  0.00  0.00    +0.000 A 
ATOM     11  C   UNL     1       0.976   8.887  20.377  0.00  0.00    +0.000 A 
ATOM     12  C   UNL     1       1.695   7.697  20.550  0.00  0.00    +0.000 A 
BRANCH  10  13
ATOM     13  O   UNL     1       0.399  10.739  18.874  0.00  0.00    +0.000 OA
ATOM     14  C   UNL     1       1.242  11.881  18.782  0.00  0.00    +0.000 C 
ENDBRANCH  10  13
ENDBRANCH   6   7
BRANCH   1  15
ATOM     15  C   UNL     1       1.438   4.327  19.055  0.00  0.00    +0.000 C 
BRANCH  15  17
ATOM     16  C   UNL     1       0.978   1.832  18.583  0.00  0.00    +0.000 C 
ATOM     17  C   UNL     1       0.581   3.080  19.359  0.00  0.00    +0.000 C 
ENDBRANCH  15  17
ENDBRANCH   1  15
BRANCH   5  18
ATOM     18  O   UNL     1       4.035   5.308  17.465  0.00  0.00    +0.000 OA
BRANCH  18  19
ATOM     19  C   UNL     1       4.970   5.034  16.499  0.00  0.00    +0.000 A 
ATOM     20  C   UNL     1       4.970   3.952  15.614  0.00  0.00    +0.000 A 
ATOM     21  C   UNL     1       5.946   3.849  14.617  0.00  0.00    +0.000 A 
ATOM     22  C   UNL     1       6.962   4.797  14.518  0.00  0.00    +0.000 A 
ATOM     23  C   UNL     1       6.994   5.855  15.422  0.00  0.00    +0.000 A 
ATOM     24  C   UNL     1       6.004   5.970  16.403  0.00  0.00    +0.000 A 
ENDBRANCH  18  19
ENDBRANCH   5  18
TORSDOF 6
ENDMDL
