MODEL 1
REMARK VINA RESULT:      -7.3      0.000      0.000
REMARK  Name = 
REMARK  9 active torsions:
REMARK  status: ('A' for Active; 'I' for Inactive)
REMARK    1  A    between atoms: C_1  and  C_2
REMARK    2  A    between atoms: C_2  and  O_3
REMARK    3  A    between atoms: O_3  and  C_4
REMARK    4  A    between atoms: C_4  and  C_6
REMARK    5  A    between atoms: C_10  and  N_11
REMARK    6  A    between atoms: N_11  and  C_12
REMARK    7  A    between atoms: C_12  and  C_13
REMARK    8  A    between atoms: C_13  and  C_14
REMARK    9  A    between atoms: C_21  and  C_22
REMARK                            x       y       z     vdW  Elec       q    Type
REMARK                         _______ _______ _______ _____ _____    ______ ____
ROOT
ATOM      1  C   UNL     1       6.460   4.876  16.176  0.00  0.00    +0.000 C 
ATOM      2  C   UNL     1       6.784   6.231  16.742  0.00  0.00    +0.000 C 
ATOM      3  O   UNL     1       7.953   6.625  16.839  0.00  0.00    +0.000 OA
ATOM      4  C   UNL     1       5.713   7.126  17.213  0.00  0.00    +0.000 C 
ATOM      5  C   UNL     1       4.426   6.763  17.228  0.00  0.00    +0.000 C 
ATOM      6  C   UNL     1       3.955   5.413  16.764  0.00  0.00    +0.000 C 
ATOM      7  C   UNL     1       5.000   4.391  16.308  0.00  0.00    +0.000 C 
ATOM      8  C   UNL     1       4.926   3.120  17.163  0.00  0.00    +0.000 C 
ENDROOT
BRANCH   1   9
ATOM      9  C   UNL     1       6.825   4.790  14.714  0.00  0.00    +0.000 C 
ATOM     10  O   UNL     1       7.713   5.431  14.168  0.00  0.00    +0.000 OA
BRANCH   9  11
ATOM     11  O   UNL     1       5.870   4.055  14.065  0.00  0.00    +0.000 OA
BRANCH  11  13
ATOM     12  C   UNL     1       4.953   3.313  11.979  0.00  0.00    +0.000 C 
ATOM     13  C   UNL     1       6.229   3.580  12.759  0.00  0.00    +0.000 C 
ENDBRANCH  11  13
ENDBRANCH   9  11
ENDBRANCH   1   9
BRANCH   5  14
ATOM     14  N   UNL     1       3.385   7.589  17.648  0.00  0.00    +0.000 N 
ATOM     15  H   UNL     1       3.118   8.227  16.896  0.00  0.00    +0.000 HD
BRANCH  14  16
ATOM     16  C   UNL     1       2.195   7.093  18.347  0.00  0.00    +0.000 C 
BRANCH  16  17
ATOM     17  C   UNL     1       2.566   6.565  19.736  0.00  0.00    +0.000 C 
BRANCH  17  18
ATOM     18  C   UNL     1       2.093   5.147  19.938  0.00  0.00    +0.000 A 
ATOM     19  C   UNL     1       2.189   4.544  21.202  0.00  0.00    +0.000 A 
ATOM     20  C   UNL     1       1.788   3.223  21.383  0.00  0.00    +0.000 A 
ATOM     21  C   UNL     1       1.289   2.491  20.309  0.00  0.00    +0.000 A 
ATOM     22  C   UNL     1       1.184   3.080  19.051  0.00  0.00    +0.000 A 
ATOM     23  C   UNL     1       1.586   4.406  18.864  0.00  0.00    +0.000 A 
ENDBRANCH  17  18
ENDBRANCH  16  17
ENDBRANCH  14  16
ENDBRANCH   5  14
TORSDOF 7
ENDMDL
MODEL 2
REMARK VINA RESULT:      -7.3      1.889      2.538
REMARK  Name = 
REMARK  9 active torsions:
REMARK  status: ('A' for Active; 'I' for Inactive)
REMARK    1  A    between atoms: C_1  and  C_2
REMARK    2  A    between atoms: C_2  and  O_3
REMARK    3  A    between atoms: O_3  and  C_4
REMARK    4  A    between atoms: C_4  and  C_6
REMARK    5  A    between atoms: C_10  and  N_11
REMARK    6  A    between atoms: N_11  and  C_12
REMARK    7  A    between atoms: C_12  and  C_13
REMARK    8  A    between atoms: C_13  and  C_14
REMARK    9  A    between atoms: C_21  and  C_22
REMARK                            x       y       z     vdW  Elec       q    Type
REMARK                         _______ _______ _______ _____ _____    ______ ____
ROOT
ATOM      1  C   UNL     1       6.343   5.709  16.812  0.00  0.00    +0.000 C 
ATOM      2  C   UNL     1       5.109   6.542  16.598  0.00  0.00    +0.000 C 
ATOM      3  O   UNL     1       4.909   7.134  15.530  0.00  0.00    +0.000 OA
ATOM      4  C   UNL     1       4.105   6.687  17.666  0.00  0.00    +0.000 C 
ATOM      5  C   UNL     1       4.266   6.156  18.882  0.00  0.00    +0.000 C 
ATOM      6  C   UNL     1       5.481   5.361  19.270  0.00  0.00    +0.000 C 
ATOM      7  C   UNL     1       6.608   5.201  18.245  0.00  0.00    +0.000 C 
ATOM      8  C   UNL     1       7.923   5.773  18.790  0.00  0.00    +0.000 C 
ENDROOT
BRANCH   1   9
ATOM      9  C   UNL     1       6.355   4.503  15.905  0.00  0.00    +0.000 C 
ATOM     10  O   UNL     1       5.682   3.494  16.060  0.00  0.00    +0.000 OA
BRANCH   9  11
ATOM     11  O   UNL     1       7.391   4.631  15.017  0.00  0.00    +0.000 OA
BRANCH  11  13
ATOM     12  C   UNL     1       8.064   5.405  12.852  0.00  0.00    +0.000 C 
ATOM     13  C   UNL     1       7.028   4.610  13.629  0.00  0.00    +0.000 C 
ENDBRANCH  11  13
ENDBRANCH   9  11
ENDBRANCH   1   9
BRANCH   5  14
ATOM     14  N   UNL     1       3.330   6.257  19.910  0.00  0.00    +0.000 N 
ATOM     15  H   UNL     1       3.470   7.127  20.428  0.00  0.00    +0.000 HD
BRANCH  14  16
ATOM     16  C   UNL     1       1.898   5.995  19.726  0.00  0.00    +0.000 C 
BRANCH  16  17
ATOM     17  C   UNL     1       1.529   4.612  20.273  0.00  0.00    +0.000 C 
BRANCH  17  18
ATOM     18  C   UNL     1       2.229   3.509  19.518  0.00  0.00    +0.000 A 
ATOM     19  C   UNL     1       3.199   2.721  20.158  0.00  0.00    +0.000 A 
ATOM     20  C   UNL     1       3.873   1.728  19.454  0.00  0.00    +0.000 A 
ATOM     21  C   UNL     1       3.589   1.509  18.109  0.00  0.00    +0.000 A 
ATOM     22  C   UNL     1       2.626   2.282  17.464  0.00  0.00    +0.000 A 
ATOM     23  C   UNL     1       1.946   3.281  18.166  0.00  0.00    +0.000 A 
ENDBRANCH  17  18
ENDBRANCH  16  17
ENDBRANCH  14  16
ENDBRANCH   5  14
TORSDOF 7
ENDMDL
MODEL 3
REMARK VINA RESULT:      -7.3      3.464      6.843
REMARK  Name = 
REMARK  9 active torsions:
REMARK  status: ('A' for Active; 'I' for Inactive)
REMARK    1  A    between atoms: C_1  and  C_2
REMARK    2  A    between atoms: C_2  and  O_3
REMARK    3  A    between atoms: O_3  and  C_4
REMARK    4  A    between atoms: C_4  and  C_6
REMARK    5  A    between atoms: C_10  and  N_11
REMARK    6  A    between atoms: N_11  and  C_12
REMARK    7  A    between atoms: C_12  and  C_13
REMARK    8  A    between atoms: C_13  and  C_14
REMARK    9  A    between atoms: C_21  and  C_22
REMARK                            x       y       z     vdW  Elec       q    Type
REMARK                         _______ _______ _______ _____ _____    ______ ____
ROOT
ATOM      1  C   UNL     1       2.539   2.359  20.132  0.00  0.00    +0.000 C 
ATOM      2  C   UNL     1       1.723   2.551  18.883  0.00  0.00    +0.000 C 
ATOM      3  O   UNL     1       0.544   2.181  18.822  0.00  0.00    +0.000 OA
ATOM      4  C   UNL     1       2.313   3.176  17.688  0.00  0.00    +0.000 C 
ATOM      5  C   UNL     1       3.600   3.535  17.623  0.00  0.00    +0.000 C 
ATOM      6  C   UNL     1       4.558   3.338  18.764  0.00  0.00    +0.000 C 
ATOM      7  C   UNL     1       4.053   2.644  20.033  0.00  0.00    +0.000 C 
ATOM      8  C   UNL     1       4.865   1.375  20.318  0.00  0.00    +0.000 C 
ENDROOT
BRANCH   1   9
ATOM      9  C   UNL     1       2.004   3.192  21.271  0.00  0.00    +0.000 C 
ATOM     10  O   UNL     1       1.107   2.858  22.032  0.00  0.00    +0.000 OA
BRANCH   9  11
ATOM     11  O   UNL     1       2.528   4.454  21.175  0.00  0.00    +0.000 OA
BRANCH  11  13
ATOM     12  C   UNL     1       2.374   6.357  19.726  0.00  0.00    +0.000 C 
ATOM     13  C   UNL     1       1.627   5.469  20.707  0.00  0.00    +0.000 C 
ENDBRANCH  11  13
ENDBRANCH   9  11
ENDBRANCH   1   9
BRANCH   5  14
ATOM     14  N   UNL     1       4.187   4.145  16.517  0.00  0.00    +0.000 N 
ATOM     15  H   UNL     1       4.133   5.162  16.606  0.00  0.00    +0.000 HD
BRANCH  14  16
ATOM     16  C   UNL     1       5.490   3.747  15.973  0.00  0.00    +0.000 C 
BRANCH  16  17
ATOM     17  C   UNL     1       6.295   4.980  15.548  0.00  0.00    +0.000 C 
BRANCH  17  18
ATOM     18  C   UNL     1       6.941   5.659  16.730  0.00  0.00    +0.000 A 
ATOM     19  C   UNL     1       7.074   7.056  16.755  0.00  0.00    +0.000 A 
ATOM     20  C   UNL     1       7.703   7.682  17.827  0.00  0.00    +0.000 A 
ATOM     21  C   UNL     1       8.205   6.926  18.883  0.00  0.00    +0.000 A 
ATOM     22  C   UNL     1       8.074   5.539  18.872  0.00  0.00    +0.000 A 
ATOM     23  C   UNL     1       7.444   4.905  17.797  0.00  0.00    +0.000 A 
ENDBRANCH  17  18
ENDBRANCH  16  17
ENDBRANCH  14  16
ENDBRANCH   5  14
TORSDOF 7
ENDMDL
MODEL 4
REMARK VINA RESULT:      -7.3      1.569      1.883
REMARK  Name = 
REMARK  9 active torsions:
REMARK  status: ('A' for Active; 'I' for Inactive)
REMARK    1  A    between atoms: C_1  and  C_2
REMARK    2  A    between atoms: C_2  and  O_3
REMARK    3  A    between atoms: O_3  and  C_4
REMARK    4  A    between atoms: C_4  and  C_6
REMARK    5  A    between atoms: C_10  and  N_11
REMARK    6  A    between atoms: N_11  and  C_12
REMARK    7  A    between atoms: C_12  and  C_13
REMARK    8  A    between atoms: C_13  and  C_14
REMARK    9  A    between atoms: C_21  and  C_22
REMARK                            x       y       z     vdW  Elec       q    Type
REMARK                         _______ _______ _______ _____ _____    ______ ____
ROOT
ATOM      1  C   UNL     1       5.812   4.141  17.841  0.00  0.00    +0.000 C 
ATOM      2  C   UNL     1       5.923   5.073  19.017  0.00  0.00    +0.000 C 
ATOM      3  O   UNL     1       6.931   5.086  19.735  0.00  0.00    +0.000 OA
ATOM      4  C   UNL     1       4.823   5.992  19.355  0.00  0.00    +0.000 C 
ATOM      5  C   UNL     1       3.661   5.998  18.694  0.00  0.00    +0.000 C 
ATOM      6  C   UNL     1       3.372   5.074  17.545  0.00  0.00    +0.000 C 
ATOM      7  C   UNL     1       4.434   4.042  17.152  0.00  0.00    +0.000 C 
ATOM      8  C   UNL     1       3.875   2.618  17.259  0.00  0.00    +0.000 C 
ENDROOT
BRANCH   1   9
ATOM      9  C   UNL     1       6.820   4.484  16.772  0.00  0.00    +0.000 C 
ATOM     10  O   UNL     1       8.034   4.481  16.917  0.00  0.00    +0.000 OA
BRANCH   9  11
ATOM     11  O   UNL     1       6.156   5.006  15.694  0.00  0.00    +0.000 OA
BRANCH  11  13
ATOM     12  C   UNL     1       6.127   3.771  13.641  0.00  0.00    +0.000 C 
ATOM     13  C   UNL     1       6.818   4.872  14.428  0.00  0.00    +0.000 C 
ENDBRANCH  11  13
ENDBRANCH   9  11
ENDBRANCH   1   9
BRANCH   5  14
ATOM     14  N   UNL     1       2.606   6.865  18.974  0.00  0.00    +0.000 N 
ATOM     15  H   UNL     1       1.830   6.692  18.333  0.00  0.00    +0.000 HD
BRANCH  14  16
ATOM     16  C   UNL     1       2.104   7.112  20.331  0.00  0.00    +0.000 C 
BRANCH  16  17
ATOM     17  C   UNL     1       0.912   6.200  20.638  0.00  0.00    +0.000 C 
BRANCH  17  18
ATOM     18  C   UNL     1       1.298   4.743  20.594  0.00  0.00    +0.000 A 
ATOM     19  C   UNL     1       2.295   4.251  21.451  0.00  0.00    +0.000 A 
ATOM     20  C   UNL     1       2.680   2.915  21.386  0.00  0.00    +0.000 A 
ATOM     21  C   UNL     1       2.078   2.057  20.469  0.00  0.00    +0.000 A 
ATOM     22  C   UNL     1       1.084   2.533  19.616  0.00  0.00    +0.000 A 
ATOM     23  C   UNL     1       0.694   3.874  19.677  0.00  0.00    +0.000 A 
ENDBRANCH  17  18
ENDBRANCH  16  17
ENDBRANCH  14  16
ENDBRANCH   5  14
TORSDOF 7
ENDMDL
MODEL 5
REMARK VINA RESULT:      -7.2      1.261      1.645
REMARK  Name = 
REMARK  9 active torsions:
REMARK  status: ('A' for Active; 'I' for Inactive)
REMARK    1  A    between atoms: C_1  and  C_2
REMARK    2  A    between atoms: C_2  and  O_3
REMARK    3  A    between atoms: O_3  and  C_4
REMARK    4  A    between atoms: C_4  and  C_6
REMARK    5  A    between atoms: C_10  and  N_11
REMARK    6  A    between atoms: N_11  and  C_12
REMARK    7  A    between atoms: C_12  and  C_13
REMARK    8  A    between atoms: C_13  and  C_14
REMARK    9  A    between atoms: C_21  and  C_22
REMARK                            x       y       z     vdW  Elec       q    Type
REMARK                         _______ _______ _______ _____ _____    ______ ____
ROOT
ATOM      1  C   UNL     1       6.127   4.203  16.625  0.00  0.00    +0.000 C 
ATOM      2  C   UNL     1       6.790   4.722  17.871  0.00  0.00    +0.000 C 
ATOM      3  O   UNL     1       7.989   4.517  18.095  0.00  0.00    +0.000 OA
ATOM      4  C   UNL     1       6.021   5.480  18.873  0.00  0.00    +0.000 C 
ATOM      5  C   UNL     1       4.703   5.684  18.766  0.00  0.00    +0.000 C 
ATOM      6  C   UNL     1       3.889   5.163  17.615  0.00  0.00    +0.000 C 
ATOM      7  C   UNL     1       4.589   4.314  16.549  0.00  0.00    +0.000 C 
ATOM      8  C   UNL     1       3.948   2.924  16.454  0.00  0.00    +0.000 C 
ENDROOT
BRANCH   1   9
ATOM      9  C   UNL     1       6.681   4.872  15.390  0.00  0.00    +0.000 C 
ATOM     10  O   UNL     1       7.612   5.665  15.373  0.00  0.00    +0.000 OA
BRANCH   9  11
ATOM     11  O   UNL     1       5.841   4.619  14.339  0.00  0.00    +0.000 OA
BRANCH  11  13
ATOM     12  C   UNL     1       5.256   3.344  12.396  0.00  0.00    +0.000 C 
ATOM     13  C   UNL     1       6.396   3.841  13.269  0.00  0.00    +0.000 C 
ENDBRANCH  11  13
ENDBRANCH   9  11
ENDBRANCH   1   9
BRANCH   5  14
ATOM     14  N   UNL     1       3.948   6.411  19.684  0.00  0.00    +0.000 N 
ATOM     15  H   UNL     1       4.503   7.178  20.067  0.00  0.00    +0.000 HD
BRANCH  14  16
ATOM     16  C   UNL     1       2.573   6.854  19.425  0.00  0.00    +0.000 C 
BRANCH  16  17
ATOM     17  C   UNL     1       1.610   6.249  20.453  0.00  0.00    +0.000 C 
BRANCH  17  18
ATOM     18  C   UNL     1       1.667   4.741  20.449  0.00  0.00    +0.000 A 
ATOM     19  C   UNL     1       1.139   4.018  19.369  0.00  0.00    +0.000 A 
ATOM     20  C   UNL     1       1.156   2.626  19.381  0.00  0.00    +0.000 A 
ATOM     21  C   UNL     1       1.698   1.942  20.466  0.00  0.00    +0.000 A 
ATOM     22  C   UNL     1       2.230   2.650  21.542  0.00  0.00    +0.000 A 
ATOM     23  C   UNL     1       2.214   4.047  21.536  0.00  0.00    +0.000 A 
ENDBRANCH  17  18
ENDBRANCH  16  17
ENDBRANCH  14  16
ENDBRANCH   5  14
TORSDOF 7
ENDMDL
MODEL 6
REMARK VINA RESULT:      -7.1      3.290      6.392
REMARK  Name = 
REMARK  9 active torsions:
REMARK  status: ('A' for Active; 'I' for Inactive)
REMARK    1  A    between atoms: C_1  and  C_2
REMARK    2  A    between atoms: C_2  and  O_3
REMARK    3  A    between atoms: O_3  and  C_4
REMARK    4  A    between atoms: C_4  and  C_6
REMARK    5  A    between atoms: C_10  and  N_11
REMARK    6  A    between atoms: N_11  and  C_12
REMARK    7  A    between atoms: C_12  and  C_13
REMARK    8  A    between atoms: C_13  and  C_14
REMARK    9  A    between atoms: C_21  and  C_22
REMARK                            x       y       z     vdW  Elec       q    Type
REMARK                         _______ _______ _______ _____ _____    ______ ____
ROOT
ATOM      1  C   UNL     1       1.932   4.244  18.615  0.00  0.00    +0.000 C 
ATOM      2  C   UNL     1       2.552   5.370  19.396  0.00  0.00    +0.000 C 
ATOM      3  O   UNL     1       1.868   6.303  19.834  0.00  0.00    +0.000 OA
ATOM      4  C   UNL     1       4.002   5.399  19.651  0.00  0.00    +0.000 C 
ATOM      5  C   UNL     1       4.840   4.484  19.152  0.00  0.00    +0.000 C 
ATOM      6  C   UNL     1       4.379   3.341  18.291  0.00  0.00    +0.000 C 
ATOM      7  C   UNL     1       2.895   3.255  17.923  0.00  0.00    +0.000 C 
ATOM      8  C   UNL     1       2.710   3.292  16.401  0.00  0.00    +0.000 C 
ENDROOT
BRANCH   1   9
ATOM      9  C   UNL     1       1.000   3.426  19.476  0.00  0.00    +0.000 C 
ATOM     10  O   UNL     1       0.125   2.681  19.060  0.00  0.00    +0.000 OA
BRANCH   9  11
ATOM     11  O   UNL     1       1.148   3.819  20.779  0.00  0.00    +0.000 OA
BRANCH  11  13
ATOM     12  C   UNL     1       2.876   2.362  21.574  0.00  0.00    +0.000 C 
ATOM     13  C   UNL     1       1.420   2.771  21.720  0.00  0.00    +0.000 C 
ENDBRANCH  11  13
ENDBRANCH   9  11
ENDBRANCH   1   9
BRANCH   5  14
ATOM     14  N   UNL     1       6.214   4.470  19.387  0.00  0.00    +0.000 N 
ATOM     15  H   UNL     1       6.678   3.850  18.721  0.00  0.00    +0.000 HD
BRANCH  14  16
ATOM     16  C   UNL     1       7.008   5.685  19.597  0.00  0.00    +0.000 C 
BRANCH  16  17
ATOM     17  C   UNL     1       7.794   6.039  18.330  0.00  0.00    +0.000 C 
BRANCH  17  18
ATOM     18  C   UNL     1       7.009   5.722  17.081  0.00  0.00    +0.000 A 
ATOM     19  C   UNL     1       5.972   6.570  16.665  0.00  0.00    +0.000 A 
ATOM     20  C   UNL     1       5.222   6.260  15.534  0.00  0.00    +0.000 A 
ATOM     21  C   UNL     1       5.497   5.105  14.807  0.00  0.00    +0.000 A 
ATOM     22  C   UNL     1       6.528   4.258  15.208  0.00  0.00    +0.000 A 
ATOM     23  C   UNL     1       7.283   4.564  16.343  0.00  0.00    +0.000 A 
ENDBRANCH  17  18
ENDBRANCH  16  17
ENDBRANCH  14  16
ENDBRANCH   5  14
TORSDOF 7
ENDMDL
MODEL 7
REMARK VINA RESULT:      -7.1      4.183      7.358
REMARK  Name = 
REMARK  9 active torsions:
REMARK  status: ('A' for Active; 'I' for Inactive)
REMARK    1  A    between atoms: C_1  and  C_2
REMARK    2  A    between atoms: C_2  and  O_3
REMARK    3  A    between atoms: O_3  and  C_4
REMARK    4  A    between atoms: C_4  and  C_6
REMARK    5  A    between atoms: C_10  and  N_11
REMARK    6  A    between atoms: N_11  and  C_12
REMARK    7  A    between atoms: C_12  and  C_13
REMARK    8  A    between atoms: C_13  and  C_14
REMARK    9  A    between atoms: C_21  and  C_22
REMARK                            x       y       z     vdW  Elec       q    Type
REMARK                         _______ _______ _______ _____ _____    ______ ____
ROOT
ATOM      1  C   UNL     1       3.951   5.219  18.541  0.00  0.00    +0.000 C 
ATOM      2  C   UNL     1       5.344   5.010  19.069  0.00  0.00    +0.000 C 
ATOM      3  O   UNL     1       5.582   4.167  19.942  0.00  0.00    +0.000 OA
ATOM      4  C   UNL     1       6.467   5.819  18.567  0.00  0.00    +0.000 C 
ATOM      5  C   UNL     1       6.303   6.811  17.685  0.00  0.00    +0.000 C 
ATOM      6  C   UNL     1       4.961   7.188  17.123  0.00  0.00    +0.000 C 
ATOM      7  C   UNL     1       3.722   6.441  17.626  0.00  0.00    +0.000 C 
ATOM      8  C   UNL     1       2.721   7.414  18.260  0.00  0.00    +0.000 C 
ENDROOT
BRANCH   1   9
ATOM      9  C   UNL     1       3.461   4.005  17.790  0.00  0.00    +0.000 C 
ATOM     10  O   UNL     1       4.145   3.302  17.060  0.00  0.00    +0.000 OA
BRANCH   9  11
ATOM     11  O   UNL     1       2.096   3.951  17.884  0.00  0.00    +0.000 OA
BRANCH  11  13
ATOM     12  C   UNL     1       1.809   2.639  19.869  0.00  0.00    +0.000 C 
ATOM     13  C   UNL     1       1.552   2.716  18.373  0.00  0.00    +0.000 C 
ENDBRANCH  11  13
ENDBRANCH   9  11
ENDBRANCH   1   9
BRANCH   5  14
ATOM     14  N   UNL     1       7.345   7.584  17.174  0.00  0.00    +0.000 N 
ATOM     15  H   UNL     1       6.993   8.211  16.448  0.00  0.00    +0.000 HD
BRANCH  14  16
ATOM     16  C   UNL     1       8.323   8.277  18.019  0.00  0.00    +0.000 C 
BRANCH  16  17
ATOM     17  C   UNL     1       8.141   9.795  17.920  0.00  0.00    +0.000 C 
BRANCH  17  18
ATOM     18  C   UNL     1       9.260  10.537  18.608  0.00  0.00    +0.000 A 
ATOM     19  C   UNL     1       9.223  10.739  19.996  0.00  0.00    +0.000 A 
ATOM     20  C   UNL     1      10.235  11.456  20.629  0.00  0.00    +0.000 A 
ATOM     21  C   UNL     1      11.291  11.978  19.886  0.00  0.00    +0.000 A 
ATOM     22  C   UNL     1      11.341  11.780  18.508  0.00  0.00    +0.000 A 
ATOM     23  C   UNL     1      10.326  11.062  17.868  0.00  0.00    +0.000 A 
ENDBRANCH  17  18
ENDBRANCH  16  17
ENDBRANCH  14  16
ENDBRANCH   5  14
TORSDOF 7
ENDMDL
MODEL 8
REMARK VINA RESULT:      -7.0      1.734      2.229
REMARK  Name = 
REMARK  9 active torsions:
REMARK  status: ('A' for Active; 'I' for Inactive)
REMARK    1  A    between atoms: C_1  and  C_2
REMARK    2  A    between atoms: C_2  and  O_3
REMARK    3  A    between atoms: O_3  and  C_4
REMARK    4  A    between atoms: C_4  and  C_6
REMARK    5  A    between atoms: C_10  and  N_11
REMARK    6  A    between atoms: N_11  and  C_12
REMARK    7  A    between atoms: C_12  and  C_13
REMARK    8  A    between atoms: C_13  and  C_14
REMARK    9  A    between atoms: C_21  and  C_22
REMARK                            x       y       z     vdW  Elec       q    Type
REMARK                         _______ _______ _______ _____ _____    ______ ____
ROOT
ATOM      1  C   UNL     1       6.006   4.876  17.021  0.00  0.00    +0.000 C 
ATOM      2  C   UNL     1       6.390   5.005  18.469  0.00  0.00    +0.000 C 
ATOM      3  O   UNL     1       7.513   4.674  18.869  0.00  0.00    +0.000 OA
ATOM      4  C   UNL     1       5.429   5.519  19.460  0.00  0.00    +0.000 C 
ATOM      5  C   UNL     1       4.166   5.826  19.146  0.00  0.00    +0.000 C 
ATOM      6  C   UNL     1       3.613   5.679  17.756  0.00  0.00    +0.000 C 
ATOM      7  C   UNL     1       4.519   5.099  16.666  0.00  0.00    +0.000 C 
ATOM      8  C   UNL     1       3.907   3.825  16.071  0.00  0.00    +0.000 C 
ENDROOT
BRANCH   1   9
ATOM      9  C   UNL     1       6.813   5.810  16.153  0.00  0.00    +0.000 C 
ATOM     10  O   UNL     1       7.537   6.707  16.563  0.00  0.00    +0.000 OA
BRANCH   9  11
ATOM     11  O   UNL     1       6.437   5.634  14.849  0.00  0.00    +0.000 OA
BRANCH  11  13
ATOM     12  C   UNL     1       6.206   3.855  13.260  0.00  0.00    +0.000 C 
ATOM     13  C   UNL     1       7.180   4.653  14.112  0.00  0.00    +0.000 C 
ENDBRANCH  11  13
ENDBRANCH   9  11
ENDBRANCH   1   9
BRANCH   5  14
ATOM     14  N   UNL     1       3.236   6.331  20.052  0.00  0.00    +0.000 N 
ATOM     15  H   UNL     1       3.141   7.342  19.931  0.00  0.00    +0.000 HD
BRANCH  14  16
ATOM     16  C   UNL     1       1.924   5.718  20.287  0.00  0.00    +0.000 C 
BRANCH  16  17
ATOM     17  C   UNL     1       2.074   4.407  21.065  0.00  0.00    +0.000 C 
BRANCH  17  18
ATOM     18  C   UNL     1       2.536   3.280  20.174  0.00  0.00    +0.000 A 
ATOM     19  C   UNL     1       3.782   2.673  20.394  0.00  0.00    +0.000 A 
ATOM     20  C   UNL     1       4.228   1.659  19.550  0.00  0.00    +0.000 A 
ATOM     21  C   UNL     1       3.439   1.241  18.482  0.00  0.00    +0.000 A 
ATOM     22  C   UNL     1       2.197   1.833  18.258  0.00  0.00    +0.000 A 
ATOM     23  C   UNL     1       1.746   2.852  19.101  0.00  0.00    +0.000 A 
ENDBRANCH  17  18
ENDBRANCH  16  17
ENDBRANCH  14  16
ENDBRANCH   5  14
TORSDOF 7
ENDMDL
MODEL 9
REMARK VINA RESULT:      -7.0      4.231      7.454
REMARK  Name = 
REMARK  9 active torsions:
REMARK  status: ('A' for Active; 'I' for Inactive)
REMARK    1  A    between atoms: C_1  and  C_2
REMARK    2  A    between atoms: C_2  and  O_3
REMARK    3  A    between atoms: O_3  and  C_4
REMARK    4  A    between atoms: C_4  and  C_6
REMARK    5  A    between atoms: C_10  and  N_11
REMARK    6  A    between atoms: N_11  and  C_12
REMARK    7  A    between atoms: C_12  and  C_13
REMARK    8  A    between atoms: C_13  and  C_14
REMARK    9  A    between atoms: C_21  and  C_22
REMARK                            x       y       z     vdW  Elec       q    Type
REMARK                         _______ _______ _______ _____ _____    ______ ____
ROOT
ATOM      1  C   UNL     1       4.471   5.103  17.906  0.00  0.00    +0.000 C 
ATOM      2  C   UNL     1       5.688   4.762  18.722  0.00  0.00    +0.000 C 
ATOM      3  O   UNL     1       5.703   3.782  19.477  0.00  0.00    +0.000 OA
ATOM      4  C   UNL     1       6.897   5.601  18.655  0.00  0.00    +0.000 C 
ATOM      5  C   UNL     1       6.954   6.726  17.935  0.00  0.00    +0.000 C 
ATOM      6  C   UNL     1       5.794   7.236  17.127  0.00  0.00    +0.000 C 
ATOM      7  C   UNL     1       4.472   6.463  17.176  0.00  0.00    +0.000 C 
ATOM      8  C   UNL     1       3.339   7.358  17.692  0.00  0.00    +0.000 C 
ENDROOT
BRANCH   1   9
ATOM      9  C   UNL     1       4.192   4.043  16.868  0.00  0.00    +0.000 C 
ATOM     10  O   UNL     1       4.890   3.809  15.892  0.00  0.00    +0.000 OA
BRANCH   9  11
ATOM     11  O   UNL     1       2.934   3.545  17.076  0.00  0.00    +0.000 OA
BRANCH  11  13
ATOM     12  C   UNL     1       1.217   2.880  18.610  0.00  0.00    +0.000 C 
ATOM     13  C   UNL     1       2.332   3.875  18.337  0.00  0.00    +0.000 C 
ENDBRANCH  11  13
ENDBRANCH   9  11
ENDBRANCH   1   9
BRANCH   5  14
ATOM     14  N   UNL     1       8.086   7.533  17.833  0.00  0.00    +0.000 N 
ATOM     15  H   UNL     1       8.678   7.213  17.064  0.00  0.00    +0.000 HD
BRANCH  14  16
ATOM     16  C   UNL     1       8.037   8.999  17.865  0.00  0.00    +0.000 C 
BRANCH  16  17
ATOM     17  C   UNL     1       8.955   9.545  18.964  0.00  0.00    +0.000 C 
BRANCH  17  18
ATOM     18  C   UNL     1       9.518  10.896  18.600  0.00  0.00    +0.000 A 
ATOM     19  C   UNL     1      10.809  11.258  19.015  0.00  0.00    +0.000 A 
ATOM     20  C   UNL     1      11.317  12.518  18.713  0.00  0.00    +0.000 A 
ATOM     21  C   UNL     1      10.546  13.429  17.995  0.00  0.00    +0.000 A 
ATOM     22  C   UNL     1       9.265  13.079  17.573  0.00  0.00    +0.000 A 
ATOM     23  C   UNL     1       8.750  11.815  17.875  0.00  0.00    +0.000 A 
ENDBRANCH  17  18
ENDBRANCH  16  17
ENDBRANCH  14  16
ENDBRANCH   5  14
TORSDOF 7
ENDMDL
