MODEL 1
REMARK VINA RESULT:      -7.3      0.000      0.000
REMARK  Name = 
REMARK  14 active torsions:
REMARK  status: ('A' for Active; 'I' for Inactive)
REMARK    1  A    between atoms: C_1  and  C_2
REMARK    2  A    between atoms: C_2  and  C_3
REMARK    3  A    between atoms: C_3  and  C_4
REMARK    4  A    between atoms: C_4  and  C_5
REMARK    5  A    between atoms: C_5  and  S_6
REMARK    6  A    between atoms: C_5  and  C_28
REMARK    7  A    between atoms: S_6  and  C_7
REMARK    8  A    between atoms: C_10  and  O_11
REMARK    9  A    between atoms: O_11  and  C_12
REMARK   10  A    between atoms: C_12  and  C_13
REMARK   11  A    between atoms: C_13  and  C_14
REMARK   12  A    between atoms: C_14  and  O_15
REMARK   13  A    between atoms: O_15  and  C_16
REMARK   14  A    between atoms: C_28  and  O_30
REMARK                            x       y       z     vdW  Elec       q    Type
REMARK                         _______ _______ _______ _____ _____    ______ ____
ROOT
ATOM      1  C   UNL     1       3.705   5.138  18.327  0.00  0.00    +0.000 A 
ATOM      2  C   UNL     1       3.625   6.278  17.536  0.00  0.00    +0.000 A 
ATOM      3  C   UNL     1       2.934   7.402  17.988  0.00  0.00    +0.000 A 
ATOM      4  C   UNL     1       2.300   7.407  19.237  0.00  0.00    +0.000 A 
ATOM      5  C   UNL     1       2.334   6.243  20.005  0.00  0.00    +0.000 A 
ATOM      6  C   UNL     1       3.025   5.108  19.549  0.00  0.00    +0.000 A 
ENDROOT
BRANCH   1   7
ATOM      7  S   UNL     1       4.659   3.751  17.740  0.00  0.00    +0.000 S 
BRANCH   7   8
ATOM      8  C   UNL     1       5.869   4.603  16.625  0.00  0.00    +0.000 C 
BRANCH   8   9
ATOM      9  C   UNL     1       7.080   5.097  17.419  0.00  0.00    +0.000 C 
ATOM     10  O   UNL     1       7.886   4.379  17.988  0.00  0.00    +0.000 OA
BRANCH   9  11
ATOM     11  O   UNL     1       7.233   6.447  17.378  0.00  0.00    +0.000 OA
ATOM     12  H   UNL     1       8.130   6.704  17.081  0.00  0.00    +0.000 HD
ENDBRANCH   9  11
ENDBRANCH   8   9
BRANCH   8  13
ATOM     13  C   UNL     1       6.273   3.795  15.384  0.00  0.00    +0.000 C 
BRANCH  13  14
ATOM     14  C   UNL     1       5.788   4.433  14.078  0.00  0.00    +0.000 C 
BRANCH  14  16
ATOM     15  C   UNL     1       5.189   3.167  12.006  0.00  0.00    +0.000 C 
ATOM     16  C   UNL     1       6.333   3.720  12.843  0.00  0.00    +0.000 C 
ENDBRANCH  14  16
ENDBRANCH  13  14
ENDBRANCH   8  13
ENDBRANCH   7   8
ENDBRANCH   1   7
BRANCH   4  17
ATOM     17  O   UNL     1       1.637   8.487  19.786  0.00  0.00    +0.000 OA
BRANCH  17  18
ATOM     18  C   UNL     1       1.125   8.225  21.092  0.00  0.00    +0.000 C 
BRANCH  18  19
ATOM     19  C   UNL     1       1.206   9.402  22.067  0.00  0.00    +0.000 C 
BRANCH  19  20
ATOM     20  C   UNL     1      -0.091  10.190  21.864  0.00  0.00    +0.000 C 
BRANCH  20  21
ATOM     21  O   UNL     1      -0.050  11.119  20.784  0.00  0.00    +0.000 OA
BRANCH  21  22
ATOM     22  C   UNL     1      -1.282  11.661  20.453  0.00  0.00    +0.000 A 
ATOM     23  C   UNL     1      -1.977  12.565  21.273  0.00  0.00    +0.000 A 
ATOM     24  C   UNL     1      -3.228  13.046  20.910  0.00  0.00    +0.000 A 
ATOM     25  C   UNL     1      -3.806  12.618  19.727  0.00  0.00    +0.000 A 
ATOM     26  C   UNL     1      -3.138  11.714  18.883  0.00  0.00    +0.000 A 
ATOM     27  C   UNL     1      -1.866  11.237  19.234  0.00  0.00    +0.000 A 
ATOM     28  C   UNL     1      -1.108  10.307  18.330  0.00  0.00    +0.000 C 
ATOM     29  C   UNL     1      -1.753   9.884  17.013  0.00  0.00    +0.000 C 
ATOM     30  C   UNL     1      -3.155  10.365  16.675  0.00  0.00    +0.000 C 
ATOM     31  C   UNL     1      -3.868  11.286  17.648  0.00  0.00    +0.000 C 
ENDBRANCH  21  22
ENDBRANCH  20  21
ENDBRANCH  19  20
ENDBRANCH  18  19
ENDBRANCH  17  18
ENDBRANCH   4  17
TORSDOF 13
ENDMDL
MODEL 2
REMARK VINA RESULT:      -7.2      2.696      4.989
REMARK  Name = 
REMARK  14 active torsions:
REMARK  status: ('A' for Active; 'I' for Inactive)
REMARK    1  A    between atoms: C_1  and  C_2
REMARK    2  A    between atoms: C_2  and  C_3
REMARK    3  A    between atoms: C_3  and  C_4
REMARK    4  A    between atoms: C_4  and  C_5
REMARK    5  A    between atoms: C_5  and  S_6
REMARK    6  A    between atoms: C_5  and  C_28
REMARK    7  A    between atoms: S_6  and  C_7
REMARK    8  A    between atoms: C_10  and  O_11
REMARK    9  A    between atoms: O_11  and  C_12
REMARK   10  A    between atoms: C_12  and  C_13
REMARK   11  A    between atoms: C_13  and  C_14
REMARK   12  A    between atoms: C_14  and  O_15
REMARK   13  A    between atoms: O_15  and  C_16
REMARK   14  A    between atoms: C_28  and  O_30
REMARK                            x       y       z     vdW  Elec       q    Type
REMARK                         _______ _______ _______ _____ _____    ______ ____
ROOT
ATOM      1  C   UNL     1       4.030   4.245  17.259  0.00  0.00    +0.000 A 
ATOM      2  C   UNL     1       2.804   3.674  16.936  0.00  0.00    +0.000 A 
ATOM      3  C   UNL     1       2.119   2.899  17.872  0.00  0.00    +0.000 A 
ATOM      4  C   UNL     1       2.649   2.669  19.148  0.00  0.00    +0.000 A 
ATOM      5  C   UNL     1       3.905   3.196  19.451  0.00  0.00    +0.000 A 
ATOM      6  C   UNL     1       4.598   3.973  18.508  0.00  0.00    +0.000 A 
ENDROOT
BRANCH   1   7
ATOM      7  S   UNL     1       4.834   5.287  16.058  0.00  0.00    +0.000 S 
BRANCH   7   8
ATOM      8  C   UNL     1       6.384   4.323  15.738  0.00  0.00    +0.000 C 
BRANCH   8   9
ATOM      9  C   UNL     1       6.745   4.358  14.252  0.00  0.00    +0.000 C 
ATOM     10  O   UNL     1       7.369   5.251  13.703  0.00  0.00    +0.000 OA
BRANCH   9  11
ATOM     11  O   UNL     1       6.365   3.238  13.582  0.00  0.00    +0.000 OA
ATOM     12  H   UNL     1       7.133   2.746  13.228  0.00  0.00    +0.000 HD
ENDBRANCH   9  11
ENDBRANCH   8   9
BRANCH   8  13
ATOM     13  C   UNL     1       7.569   4.702  16.638  0.00  0.00    +0.000 C 
BRANCH  13  14
ATOM     14  C   UNL     1       7.577   6.188  17.013  0.00  0.00    +0.000 C 
BRANCH  14  16
ATOM     15  C   UNL     1       8.137   5.528  19.359  0.00  0.00    +0.000 C 
ATOM     16  C   UNL     1       7.263   6.419  18.489  0.00  0.00    +0.000 C 
ENDBRANCH  14  16
ENDBRANCH  13  14
ENDBRANCH   8  13
ENDBRANCH   7   8
ENDBRANCH   1   7
BRANCH   4  17
ATOM     17  O   UNL     1       2.022   1.958  20.152  0.00  0.00    +0.000 OA
BRANCH  17  18
ATOM     18  C   UNL     1       1.238   2.780  21.015  0.00  0.00    +0.000 C 
BRANCH  18  19
ATOM     19  C   UNL     1       1.961   4.010  21.570  0.00  0.00    +0.000 C 
BRANCH  19  20
ATOM     20  C   UNL     1       1.540   5.172  20.666  0.00  0.00    +0.000 C 
BRANCH  20  21
ATOM     21  O   UNL     1       2.282   6.372  20.870  0.00  0.00    +0.000 OA
BRANCH  21  22
ATOM     22  C   UNL     1       2.047   7.355  19.921  0.00  0.00    +0.000 A 
ATOM     23  C   UNL     1       2.569   7.314  18.617  0.00  0.00    +0.000 A 
ATOM     24  C   UNL     1       2.335   8.347  17.719  0.00  0.00    +0.000 A 
ATOM     25  C   UNL     1       1.586   9.441  18.118  0.00  0.00    +0.000 A 
ATOM     26  C   UNL     1       1.049   9.514  19.416  0.00  0.00    +0.000 A 
ATOM     27  C   UNL     1       1.267   8.467  20.323  0.00  0.00    +0.000 A 
ATOM     28  C   UNL     1       0.666   8.494  21.700  0.00  0.00    +0.000 C 
ATOM     29  C   UNL     1      -0.189   9.694  22.099  0.00  0.00    +0.000 C 
ATOM     30  C   UNL     1      -0.367  10.846  21.123  0.00  0.00    +0.000 C 
ATOM     31  C   UNL     1       0.288  10.757  19.756  0.00  0.00    +0.000 C 
ENDBRANCH  21  22
ENDBRANCH  20  21
ENDBRANCH  19  20
ENDBRANCH  18  19
ENDBRANCH  17  18
ENDBRANCH   4  17
TORSDOF 13
ENDMDL
MODEL 3
REMARK VINA RESULT:      -7.1      5.784      9.508
REMARK  Name = 
REMARK  14 active torsions:
REMARK  status: ('A' for Active; 'I' for Inactive)
REMARK    1  A    between atoms: C_1  and  C_2
REMARK    2  A    between atoms: C_2  and  C_3
REMARK    3  A    between atoms: C_3  and  C_4
REMARK    4  A    between atoms: C_4  and  C_5
REMARK    5  A    between atoms: C_5  and  S_6
REMARK    6  A    between atoms: C_5  and  C_28
REMARK    7  A    between atoms: S_6  and  C_7
REMARK    8  A    between atoms: C_10  and  O_11
REMARK    9  A    between atoms: O_11  and  C_12
REMARK   10  A    between atoms: C_12  and  C_13
REMARK   11  A    between atoms: C_13  and  C_14
REMARK   12  A    between atoms: C_14  and  O_15
REMARK   13  A    between atoms: O_15  and  C_16
REMARK   14  A    between atoms: C_28  and  O_30
REMARK                            x       y       z     vdW  Elec       q    Type
REMARK                         _______ _______ _______ _____ _____    ______ ____
ROOT
ATOM      1  C   UNL     1       4.001   4.789  17.052  0.00  0.00    +0.000 A 
ATOM      2  C   UNL     1       5.146   4.044  16.792  0.00  0.00    +0.000 A 
ATOM      3  C   UNL     1       6.387   4.672  16.690  0.00  0.00    +0.000 A 
ATOM      4  C   UNL     1       6.509   6.060  16.833  0.00  0.00    +0.000 A 
ATOM      5  C   UNL     1       5.352   6.812  17.038  0.00  0.00    +0.000 A 
ATOM      6  C   UNL     1       4.100   6.182  17.137  0.00  0.00    +0.000 A 
ENDROOT
BRANCH   1   7
ATOM      7  S   UNL     1       2.448   3.937  17.247  0.00  0.00    +0.000 S 
BRANCH   7   8
ATOM      8  C   UNL     1       2.398   3.712  19.085  0.00  0.00    +0.000 C 
BRANCH   8   9
ATOM      9  C   UNL     1       3.052   2.388  19.486  0.00  0.00    +0.000 C 
ATOM     10  O   UNL     1       3.665   2.193  20.522  0.00  0.00    +0.000 OA
BRANCH   9  11
ATOM     11  O   UNL     1       2.823   1.387  18.596  0.00  0.00    +0.000 OA
ATOM     12  H   UNL     1       2.298   1.693  17.828  0.00  0.00    +0.000 HD
ENDBRANCH   9  11
ENDBRANCH   8   9
BRANCH   8  13
ATOM     13  C   UNL     1       2.944   4.900  19.889  0.00  0.00    +0.000 C 
BRANCH  13  14
ATOM     14  C   UNL     1       1.835   5.739  20.534  0.00  0.00    +0.000 C 
BRANCH  14  16
ATOM     15  C   UNL     1       1.130   8.056  21.159  0.00  0.00    +0.000 C 
ATOM     16  C   UNL     1       1.944   7.220  20.181  0.00  0.00    +0.000 C 
ENDBRANCH  14  16
ENDBRANCH  13  14
ENDBRANCH   8  13
ENDBRANCH   7   8
ENDBRANCH   1   7
BRANCH   4  17
ATOM     17  O   UNL     1       7.699   6.760  16.796  0.00  0.00    +0.000 OA
BRANCH  17  18
ATOM     18  C   UNL     1       7.574   8.103  17.262  0.00  0.00    +0.000 C 
BRANCH  18  19
ATOM     19  C   UNL     1       8.419   8.442  18.491  0.00  0.00    +0.000 C 
BRANCH  19  20
ATOM     20  C   UNL     1       8.816   9.911  18.320  0.00  0.00    +0.000 C 
BRANCH  20  21
ATOM     21  O   UNL     1       9.926  10.316  19.119  0.00  0.00    +0.000 OA
BRANCH  21  22
ATOM     22  C   UNL     1      10.333  11.623  18.907  0.00  0.00    +0.000 A 
ATOM     23  C   UNL     1      10.955  12.060  17.725  0.00  0.00    +0.000 A 
ATOM     24  C   UNL     1      11.380  13.374  17.582  0.00  0.00    +0.000 A 
ATOM     25  C   UNL     1      11.199  14.266  18.625  0.00  0.00    +0.000 A 
ATOM     26  C   UNL     1      10.580  13.863  19.821  0.00  0.00    +0.000 A 
ATOM     27  C   UNL     1      10.133  12.541  19.967  0.00  0.00    +0.000 A 
ATOM     28  C   UNL     1       9.425  12.093  21.214  0.00  0.00    +0.000 C 
ATOM     29  C   UNL     1       9.203  13.109  22.332  0.00  0.00    +0.000 C 
ATOM     30  C   UNL     1       9.745  14.522  22.180  0.00  0.00    +0.000 C 
ATOM     31  C   UNL     1      10.469  14.896  20.899  0.00  0.00    +0.000 C 
ENDBRANCH  21  22
ENDBRANCH  20  21
ENDBRANCH  19  20
ENDBRANCH  18  19
ENDBRANCH  17  18
ENDBRANCH   4  17
TORSDOF 13
ENDMDL
MODEL 4
REMARK VINA RESULT:      -7.1      2.432      4.637
REMARK  Name = 
REMARK  14 active torsions:
REMARK  status: ('A' for Active; 'I' for Inactive)
REMARK    1  A    between atoms: C_1  and  C_2
REMARK    2  A    between atoms: C_2  and  C_3
REMARK    3  A    between atoms: C_3  and  C_4
REMARK    4  A    between atoms: C_4  and  C_5
REMARK    5  A    between atoms: C_5  and  S_6
REMARK    6  A    between atoms: C_5  and  C_28
REMARK    7  A    between atoms: S_6  and  C_7
REMARK    8  A    between atoms: C_10  and  O_11
REMARK    9  A    between atoms: O_11  and  C_12
REMARK   10  A    between atoms: C_12  and  C_13
REMARK   11  A    between atoms: C_13  and  C_14
REMARK   12  A    between atoms: C_14  and  O_15
REMARK   13  A    between atoms: O_15  and  C_16
REMARK   14  A    between atoms: C_28  and  O_30
REMARK                            x       y       z     vdW  Elec       q    Type
REMARK                         _______ _______ _______ _____ _____    ______ ____
ROOT
ATOM      1  C   UNL     1       2.859   7.047  19.035  0.00  0.00    +0.000 A 
ATOM      2  C   UNL     1       2.087   7.389  20.139  0.00  0.00    +0.000 A 
ATOM      3  C   UNL     1       1.251   8.505  20.095  0.00  0.00    +0.000 A 
ATOM      4  C   UNL     1       1.178   9.309  18.950  0.00  0.00    +0.000 A 
ATOM      5  C   UNL     1       1.995   8.996  17.864  0.00  0.00    +0.000 A 
ATOM      6  C   UNL     1       2.841   7.875  17.908  0.00  0.00    +0.000 A 
ENDROOT
BRANCH   1   7
ATOM      7  S   UNL     1       3.857   5.572  19.110  0.00  0.00    +0.000 S 
BRANCH   7   8
ATOM      8  C   UNL     1       3.539   4.846  17.436  0.00  0.00    +0.000 C 
BRANCH   8   9
ATOM      9  C   UNL     1       4.842   4.725  16.643  0.00  0.00    +0.000 C 
ATOM     10  O   UNL     1       5.309   5.593  15.924  0.00  0.00    +0.000 OA
BRANCH   9  11
ATOM     11  O   UNL     1       5.501   3.559  16.870  0.00  0.00    +0.000 OA
ATOM     12  H   UNL     1       6.174   3.379  16.182  0.00  0.00    +0.000 HD
ENDBRANCH   9  11
ENDBRANCH   8   9
BRANCH   8  13
ATOM     13  C   UNL     1       2.738   3.537  17.449  0.00  0.00    +0.000 C 
BRANCH  13  14
ATOM     14  C   UNL     1       1.341   3.702  18.056  0.00  0.00    +0.000 C 
BRANCH  14  16
ATOM     15  C   UNL     1       1.025   3.351  20.512  0.00  0.00    +0.000 C 
ATOM     16  C   UNL     1       1.054   2.675  19.149  0.00  0.00    +0.000 C 
ENDBRANCH  14  16
ENDBRANCH  13  14
ENDBRANCH   8  13
ENDBRANCH   7   8
ENDBRANCH   1   7
BRANCH   4  17
ATOM     17  O   UNL     1       0.345  10.401  18.799  0.00  0.00    +0.000 OA
BRANCH  17  18
ATOM     18  C   UNL     1      -0.716  10.432  19.753  0.00  0.00    +0.000 C 
BRANCH  18  19
ATOM     19  C   UNL     1      -1.048  11.819  20.306  0.00  0.00    +0.000 C 
BRANCH  19  20
ATOM     20  C   UNL     1      -2.092  12.400  19.348  0.00  0.00    +0.000 C 
BRANCH  20  21
ATOM     21  O   UNL     1      -3.238  12.952  19.993  0.00  0.00    +0.000 OA
BRANCH  21  22
ATOM     22  C   UNL     1      -4.430  12.321  19.674  0.00  0.00    +0.000 A 
ATOM     23  C   UNL     1      -4.684  11.729  18.425  0.00  0.00    +0.000 A 
ATOM     24  C   UNL     1      -5.912  11.146  18.145  0.00  0.00    +0.000 A 
ATOM     25  C   UNL     1      -6.908  11.159  19.106  0.00  0.00    +0.000 A 
ATOM     26  C   UNL     1      -6.688  11.743  20.366  0.00  0.00    +0.000 A 
ATOM     27  C   UNL     1      -5.444  12.319  20.663  0.00  0.00    +0.000 A 
ATOM     28  C   UNL     1      -5.163  12.908  22.016  0.00  0.00    +0.000 C 
ATOM     29  C   UNL     1      -6.267  12.872  23.071  0.00  0.00    +0.000 C 
ATOM     30  C   UNL     1      -7.628  12.295  22.713  0.00  0.00    +0.000 C 
ATOM     31  C   UNL     1      -7.844  11.737  21.318  0.00  0.00    +0.000 C 
ENDBRANCH  21  22
ENDBRANCH  20  21
ENDBRANCH  19  20
ENDBRANCH  18  19
ENDBRANCH  17  18
ENDBRANCH   4  17
TORSDOF 13
ENDMDL
MODEL 5
REMARK VINA RESULT:      -7.1      0.860      1.164
REMARK  Name = 
REMARK  14 active torsions:
REMARK  status: ('A' for Active; 'I' for Inactive)
REMARK    1  A    between atoms: C_1  and  C_2
REMARK    2  A    between atoms: C_2  and  C_3
REMARK    3  A    between atoms: C_3  and  C_4
REMARK    4  A    between atoms: C_4  and  C_5
REMARK    5  A    between atoms: C_5  and  S_6
REMARK    6  A    between atoms: C_5  and  C_28
REMARK    7  A    between atoms: S_6  and  C_7
REMARK    8  A    between atoms: C_10  and  O_11
REMARK    9  A    between atoms: O_11  and  C_12
REMARK   10  A    between atoms: C_12  and  C_13
REMARK   11  A    between atoms: C_13  and  C_14
REMARK   12  A    between atoms: C_14  and  O_15
REMARK   13  A    between atoms: O_15  and  C_16
REMARK   14  A    between atoms: C_28  and  O_30
REMARK                            x       y       z     vdW  Elec       q    Type
REMARK                         _______ _______ _______ _____ _____    ______ ____
ROOT
ATOM      1  C   UNL     1       3.833   4.746  18.529  0.00  0.00    +0.000 A 
ATOM      2  C   UNL     1       3.500   6.069  18.258  0.00  0.00    +0.000 A 
ATOM      3  C   UNL     1       2.638   6.766  19.104  0.00  0.00    +0.000 A 
ATOM      4  C   UNL     1       2.082   6.153  20.235  0.00  0.00    +0.000 A 
ATOM      5  C   UNL     1       2.372   4.809  20.474  0.00  0.00    +0.000 A 
ATOM      6  C   UNL     1       3.237   4.104  19.620  0.00  0.00    +0.000 A 
ENDROOT
BRANCH   1   7
ATOM      7  S   UNL     1       4.994   3.918  17.461  0.00  0.00    +0.000 S 
BRANCH   7   8
ATOM      8  C   UNL     1       5.645   5.344  16.474  0.00  0.00    +0.000 C 
BRANCH   8   9
ATOM      9  C   UNL     1       7.080   5.677  16.888  0.00  0.00    +0.000 C 
ATOM     10  O   UNL     1       7.664   6.715  16.622  0.00  0.00    +0.000 OA
BRANCH   9  11
ATOM     11  O   UNL     1       7.649   4.719  17.666  0.00  0.00    +0.000 OA
ATOM     12  H   UNL     1       8.560   4.958  17.932  0.00  0.00    +0.000 HD
ENDBRANCH   9  11
ENDBRANCH   8   9
BRANCH   8  13
ATOM     13  C   UNL     1       5.493   5.192  14.955  0.00  0.00    +0.000 C 
BRANCH  13  14
ATOM     14  C   UNL     1       6.255   3.984  14.401  0.00  0.00    +0.000 C 
BRANCH  14  16
ATOM     15  C   UNL     1       6.940   3.835  12.000  0.00  0.00    +0.000 C 
ATOM     16  C   UNL     1       5.808   3.607  12.991  0.00  0.00    +0.000 C 
ENDBRANCH  14  16
ENDBRANCH  13  14
ENDBRANCH   8  13
ENDBRANCH   7   8
ENDBRANCH   1   7
BRANCH   4  17
ATOM     17  O   UNL     1       1.260   6.777  21.153  0.00  0.00    +0.000 OA
BRANCH  17  18
ATOM     18  C   UNL     1       1.144   8.182  20.935  0.00  0.00    +0.000 C 
BRANCH  18  19
ATOM     19  C   UNL     1       1.432   9.053  22.160  0.00  0.00    +0.000 C 
BRANCH  19  20
ATOM     20  C   UNL     1       0.260  10.034  22.248  0.00  0.00    +0.000 C 
BRANCH  20  21
ATOM     21  O   UNL     1       0.397  11.187  21.421  0.00  0.00    +0.000 OA
BRANCH  21  22
ATOM     22  C   UNL     1      -0.803  11.800  21.096  0.00  0.00    +0.000 A 
ATOM     23  C   UNL     1      -1.459  12.715  21.937  0.00  0.00    +0.000 A 
ATOM     24  C   UNL     1      -2.681  13.268  21.579  0.00  0.00    +0.000 A 
ATOM     25  C   UNL     1      -3.270  12.904  20.379  0.00  0.00    +0.000 A 
ATOM     26  C   UNL     1      -2.640  11.991  19.514  0.00  0.00    +0.000 A 
ATOM     27  C   UNL     1      -1.397  11.441  19.861  0.00  0.00    +0.000 A 
ATOM     28  C   UNL     1      -0.679  10.500  18.936  0.00  0.00    +0.000 C 
ATOM     29  C   UNL     1      -1.332  10.148  17.602  0.00  0.00    +0.000 C 
ATOM     30  C   UNL     1      -2.705  10.709  17.268  0.00  0.00    +0.000 C 
ATOM     31  C   UNL     1      -3.380  11.637  18.262  0.00  0.00    +0.000 C 
ENDBRANCH  21  22
ENDBRANCH  20  21
ENDBRANCH  19  20
ENDBRANCH  18  19
ENDBRANCH  17  18
ENDBRANCH   4  17
TORSDOF 13
ENDMDL
MODEL 6
REMARK VINA RESULT:      -7.0      1.475      3.234
REMARK  Name = 
REMARK  14 active torsions:
REMARK  status: ('A' for Active; 'I' for Inactive)
REMARK    1  A    between atoms: C_1  and  C_2
REMARK    2  A    between atoms: C_2  and  C_3
REMARK    3  A    between atoms: C_3  and  C_4
REMARK    4  A    between atoms: C_4  and  C_5
REMARK    5  A    between atoms: C_5  and  S_6
REMARK    6  A    between atoms: C_5  and  C_28
REMARK    7  A    between atoms: S_6  and  C_7
REMARK    8  A    between atoms: C_10  and  O_11
REMARK    9  A    between atoms: O_11  and  C_12
REMARK   10  A    between atoms: C_12  and  C_13
REMARK   11  A    between atoms: C_13  and  C_14
REMARK   12  A    between atoms: C_14  and  O_15
REMARK   13  A    between atoms: O_15  and  C_16
REMARK   14  A    between atoms: C_28  and  O_30
REMARK                            x       y       z     vdW  Elec       q    Type
REMARK                         _______ _______ _______ _____ _____    ______ ____
ROOT
ATOM      1  C   UNL     1       3.400   5.215  18.013  0.00  0.00    +0.000 A 
ATOM      2  C   UNL     1       3.222   6.531  17.600  0.00  0.00    +0.000 A 
ATOM      3  C   UNL     1       2.667   7.472  18.467  0.00  0.00    +0.000 A 
ATOM      4  C   UNL     1       2.267   7.116  19.762  0.00  0.00    +0.000 A 
ATOM      5  C   UNL     1       2.394   5.784  20.154  0.00  0.00    +0.000 A 
ATOM      6  C   UNL     1       2.949   4.833  19.281  0.00  0.00    +0.000 A 
ENDROOT
BRANCH   1   7
ATOM      7  S   UNL     1       4.180   4.064  16.899  0.00  0.00    +0.000 S 
BRANCH   7   8
ATOM      8  C   UNL     1       5.952   4.586  17.036  0.00  0.00    +0.000 C 
BRANCH   8   9
ATOM      9  C   UNL     1       6.636   4.541  15.668  0.00  0.00    +0.000 C 
ATOM     10  O   UNL     1       7.492   5.321  15.285  0.00  0.00    +0.000 OA
BRANCH   9  11
ATOM     11  O   UNL     1       6.253   3.478  14.913  0.00  0.00    +0.000 OA
ATOM     12  H   UNL     1       6.248   3.691  13.957  0.00  0.00    +0.000 HD
ENDBRANCH   9  11
ENDBRANCH   8   9
BRANCH   8  13
ATOM     13  C   UNL     1       6.169   5.925  17.755  0.00  0.00    +0.000 C 
BRANCH  13  14
ATOM     14  C   UNL     1       7.329   5.879  18.754  0.00  0.00    +0.000 C 
BRANCH  14  16
ATOM     15  C   UNL     1       7.716   8.058  17.589  0.00  0.00    +0.000 C 
ATOM     16  C   UNL     1       8.251   7.091  18.635  0.00  0.00    +0.000 C 
ENDBRANCH  14  16
ENDBRANCH  13  14
ENDBRANCH   8  13
ENDBRANCH   7   8
ENDBRANCH   1   7
BRANCH   4  17
ATOM     17  O   UNL     1       1.755   7.988  20.702  0.00  0.00    +0.000 OA
BRANCH  17  18
ATOM     18  C   UNL     1       0.918   8.995  20.134  0.00  0.00    +0.000 C 
BRANCH  18  19
ATOM     19  C   UNL     1       0.791  10.275  20.963  0.00  0.00    +0.000 C 
BRANCH  19  20
ATOM     20  C   UNL     1      -0.677  10.694  20.843  0.00  0.00    +0.000 C 
BRANCH  20  21
ATOM     21  O   UNL     1      -0.932  11.651  19.817  0.00  0.00    +0.000 OA
BRANCH  21  22
ATOM     22  C   UNL     1      -1.749  11.188  18.798  0.00  0.00    +0.000 A 
ATOM     23  C   UNL     1      -1.308  10.320  17.784  0.00  0.00    +0.000 A 
ATOM     24  C   UNL     1      -2.160   9.920  16.764  0.00  0.00    +0.000 A 
ATOM     25  C   UNL     1      -3.461  10.394  16.735  0.00  0.00    +0.000 A 
ATOM     26  C   UNL     1      -3.934  11.263  17.734  0.00  0.00    +0.000 A 
ATOM     27  C   UNL     1      -3.085  11.658  18.778  0.00  0.00    +0.000 A 
ATOM     28  C   UNL     1      -3.576  12.548  19.885  0.00  0.00    +0.000 C 
ATOM     29  C   UNL     1      -5.026  13.022  19.850  0.00  0.00    +0.000 C 
ATOM     30  C   UNL     1      -5.916  12.630  18.681  0.00  0.00    +0.000 C 
ATOM     31  C   UNL     1      -5.344  11.745  17.588  0.00  0.00    +0.000 C 
ENDBRANCH  21  22
ENDBRANCH  20  21
ENDBRANCH  19  20
ENDBRANCH  18  19
ENDBRANCH  17  18
ENDBRANCH   4  17
TORSDOF 13
ENDMDL
MODEL 7
REMARK VINA RESULT:      -7.0      0.927      2.260
REMARK  Name = 
REMARK  14 active torsions:
REMARK  status: ('A' for Active; 'I' for Inactive)
REMARK    1  A    between atoms: C_1  and  C_2
REMARK    2  A    between atoms: C_2  and  C_3
REMARK    3  A    between atoms: C_3  and  C_4
REMARK    4  A    between atoms: C_4  and  C_5
REMARK    5  A    between atoms: C_5  and  S_6
REMARK    6  A    between atoms: C_5  and  C_28
REMARK    7  A    between atoms: S_6  and  C_7
REMARK    8  A    between atoms: C_10  and  O_11
REMARK    9  A    between atoms: O_11  and  C_12
REMARK   10  A    between atoms: C_12  and  C_13
REMARK   11  A    between atoms: C_13  and  C_14
REMARK   12  A    between atoms: C_14  and  O_15
REMARK   13  A    between atoms: O_15  and  C_16
REMARK   14  A    between atoms: C_28  and  O_30
REMARK                            x       y       z     vdW  Elec       q    Type
REMARK                         _______ _______ _______ _____ _____    ______ ____
ROOT
ATOM      1  C   UNL     1       3.758   5.348  17.625  0.00  0.00    +0.000 A 
ATOM      2  C   UNL     1       4.131   6.565  17.065  0.00  0.00    +0.000 A 
ATOM      3  C   UNL     1       3.509   7.746  17.469  0.00  0.00    +0.000 A 
ATOM      4  C   UNL     1       2.493   7.735  18.434  0.00  0.00    +0.000 A 
ATOM      5  C   UNL     1       2.082   6.507  18.953  0.00  0.00    +0.000 A 
ATOM      6  C   UNL     1       2.705   5.316  18.544  0.00  0.00    +0.000 A 
ENDROOT
BRANCH   1   7
ATOM      7  S   UNL     1       4.630   3.874  17.132  0.00  0.00    +0.000 S 
BRANCH   7   8
ATOM      8  C   UNL     1       5.810   4.565  15.881  0.00  0.00    +0.000 C 
BRANCH   8   9
ATOM      9  C   UNL     1       7.074   5.090  16.564  0.00  0.00    +0.000 C 
ATOM     10  O   UNL     1       7.579   6.182  16.360  0.00  0.00    +0.000 OA
BRANCH   9  11
ATOM     11  O   UNL     1       7.566   4.244  17.506  0.00  0.00    +0.000 OA
ATOM     12  H   UNL     1       7.795   3.370  17.129  0.00  0.00    +0.000 HD
ENDBRANCH   9  11
ENDBRANCH   8   9
BRANCH   8  13
ATOM     13  C   UNL     1       6.125   3.622  14.712  0.00  0.00    +0.000 C 
BRANCH  13  14
ATOM     14  C   UNL     1       5.695   4.194  13.357  0.00  0.00    +0.000 C 
BRANCH  14  16
ATOM     15  C   UNL     1       4.274   3.316  11.495  0.00  0.00    +0.000 C 
ATOM     16  C   UNL     1       5.560   3.116  12.285  0.00  0.00    +0.000 C 
ENDBRANCH  14  16
ENDBRANCH  13  14
ENDBRANCH   8  13
ENDBRANCH   7   8
ENDBRANCH   1   7
BRANCH   4  17
ATOM     17  O   UNL     1       1.856   8.856  18.929  0.00  0.00    +0.000 OA
BRANCH  17  18
ATOM     18  C   UNL     1       1.099   8.595  20.109  0.00  0.00    +0.000 C 
BRANCH  18  19
ATOM     19  C   UNL     1       0.987   9.772  21.081  0.00  0.00    +0.000 C 
BRANCH  19  20
ATOM     20  C   UNL     1      -0.420  10.339  20.875  0.00  0.00    +0.000 C 
BRANCH  20  21
ATOM     21  O   UNL     1      -0.525  11.270  19.800  0.00  0.00    +0.000 OA
BRANCH  21  22
ATOM     22  C   UNL     1      -1.568  11.013  18.924  0.00  0.00    +0.000 A 
ATOM     23  C   UNL     1      -1.453  10.167  17.808  0.00  0.00    +0.000 A 
ATOM     24  C   UNL     1      -2.519   9.977  16.940  0.00  0.00    +0.000 A 
ATOM     25  C   UNL     1      -3.712  10.641  17.169  0.00  0.00    +0.000 A 
ATOM     26  C   UNL     1      -3.861  11.495  18.276  0.00  0.00    +0.000 A 
ATOM     27  C   UNL     1      -2.794  11.679  19.168  0.00  0.00    +0.000 A 
ATOM     28  C   UNL     1      -2.939  12.547  20.385  0.00  0.00    +0.000 C 
ATOM     29  C   UNL     1      -4.279  13.235  20.635  0.00  0.00    +0.000 C 
ATOM     30  C   UNL     1      -5.406  13.070  19.628  0.00  0.00    +0.000 C 
ATOM     31  C   UNL     1      -5.179  12.193  18.410  0.00  0.00    +0.000 C 
ENDBRANCH  21  22
ENDBRANCH  20  21
ENDBRANCH  19  20
ENDBRANCH  18  19
ENDBRANCH  17  18
ENDBRANCH   4  17
TORSDOF 13
ENDMDL
MODEL 8
REMARK VINA RESULT:      -7.0      3.490     10.847
REMARK  Name = 
REMARK  14 active torsions:
REMARK  status: ('A' for Active; 'I' for Inactive)
REMARK    1  A    between atoms: C_1  and  C_2
REMARK    2  A    between atoms: C_2  and  C_3
REMARK    3  A    between atoms: C_3  and  C_4
REMARK    4  A    between atoms: C_4  and  C_5
REMARK    5  A    between atoms: C_5  and  S_6
REMARK    6  A    between atoms: C_5  and  C_28
REMARK    7  A    between atoms: S_6  and  C_7
REMARK    8  A    between atoms: C_10  and  O_11
REMARK    9  A    between atoms: O_11  and  C_12
REMARK   10  A    between atoms: C_12  and  C_13
REMARK   11  A    between atoms: C_13  and  C_14
REMARK   12  A    between atoms: C_14  and  O_15
REMARK   13  A    between atoms: O_15  and  C_16
REMARK   14  A    between atoms: C_28  and  O_30
REMARK                            x       y       z     vdW  Elec       q    Type
REMARK                         _______ _______ _______ _____ _____    ______ ____
ROOT
ATOM      1  C   UNL     1      -1.077  12.001  22.217  0.00  0.00    +0.000 A 
ATOM      2  C   UNL     1      -0.857  10.747  22.777  0.00  0.00    +0.000 A 
ATOM      3  C   UNL     1      -0.123   9.785  22.084  0.00  0.00    +0.000 A 
ATOM      4  C   UNL     1       0.397  10.051  20.810  0.00  0.00    +0.000 A 
ATOM      5  C   UNL     1       0.127  11.289  20.227  0.00  0.00    +0.000 A 
ATOM      6  C   UNL     1      -0.615  12.258  20.922  0.00  0.00    +0.000 A 
ENDROOT
BRANCH   1   7
ATOM      7  S   UNL     1      -1.957  13.223  23.170  0.00  0.00    +0.000 S 
BRANCH   7   8
ATOM      8  C   UNL     1      -3.708  12.675  22.913  0.00  0.00    +0.000 C 
BRANCH   8   9
ATOM      9  C   UNL     1      -4.537  12.905  24.179  0.00  0.00    +0.000 C 
ATOM     10  O   UNL     1      -5.078  12.028  24.832  0.00  0.00    +0.000 OA
BRANCH   9  11
ATOM     11  O   UNL     1      -4.562  14.205  24.574  0.00  0.00    +0.000 OA
ATOM     12  H   UNL     1      -5.455  14.483  24.863  0.00  0.00    +0.000 HD
ENDBRANCH   9  11
ENDBRANCH   8   9
BRANCH   8  13
ATOM     13  C   UNL     1      -4.381  13.252  21.660  0.00  0.00    +0.000 C 
BRANCH  13  14
ATOM     14  C   UNL     1      -5.852  12.843  21.535  0.00  0.00    +0.000 C 
BRANCH  14  16
ATOM     15  C   UNL     1      -7.329  11.058  20.594  0.00  0.00    +0.000 C 
ATOM     16  C   UNL     1      -6.104  11.925  20.342  0.00  0.00    +0.000 C 
ENDBRANCH  14  16
ENDBRANCH  13  14
ENDBRANCH   8  13
ENDBRANCH   7   8
ENDBRANCH   1   7
BRANCH   4  17
ATOM     17  O   UNL     1       1.173   9.179  20.072  0.00  0.00    +0.000 OA
BRANCH  17  18
ATOM     18  C   UNL     1       1.266   9.541  18.695  0.00  0.00    +0.000 C 
BRANCH  18  19
ATOM     19  C   UNL     1       1.550   8.380  17.739  0.00  0.00    +0.000 C 
BRANCH  19  20
ATOM     20  C   UNL     1       3.058   8.133  17.835  0.00  0.00    +0.000 C 
BRANCH  20  21
ATOM     21  O   UNL     1       3.424   7.063  18.703  0.00  0.00    +0.000 OA
BRANCH  21  22
ATOM     22  C   UNL     1       3.605   5.847  18.064  0.00  0.00    +0.000 A 
ATOM     23  C   UNL     1       4.524   5.650  17.020  0.00  0.00    +0.000 A 
ATOM     24  C   UNL     1       4.636   4.420  16.387  0.00  0.00    +0.000 A 
ATOM     25  C   UNL     1       3.819   3.373  16.780  0.00  0.00    +0.000 A 
ATOM     26  C   UNL     1       2.889   3.536  17.821  0.00  0.00    +0.000 A 
ATOM     27  C   UNL     1       2.782   4.771  18.478  0.00  0.00    +0.000 A 
ATOM     28  C   UNL     1       1.830   4.963  19.625  0.00  0.00    +0.000 C 
ATOM     29  C   UNL     1       0.971   3.779  20.065  0.00  0.00    +0.000 C 
ATOM     30  C   UNL     1       1.059   2.465  19.305  0.00  0.00    +0.000 C 
ATOM     31  C   UNL     1       2.029   2.353  18.143  0.00  0.00    +0.000 C 
ENDBRANCH  21  22
ENDBRANCH  20  21
ENDBRANCH  19  20
ENDBRANCH  18  19
ENDBRANCH  17  18
ENDBRANCH   4  17
TORSDOF 13
ENDMDL
MODEL 9
REMARK VINA RESULT:      -7.0      0.877      1.127
REMARK  Name = 
REMARK  14 active torsions:
REMARK  status: ('A' for Active; 'I' for Inactive)
REMARK    1  A    between atoms: C_1  and  C_2
REMARK    2  A    between atoms: C_2  and  C_3
REMARK    3  A    between atoms: C_3  and  C_4
REMARK    4  A    between atoms: C_4  and  C_5
REMARK    5  A    between atoms: C_5  and  S_6
REMARK    6  A    between atoms: C_5  and  C_28
REMARK    7  A    between atoms: S_6  and  C_7
REMARK    8  A    between atoms: C_10  and  O_11
REMARK    9  A    between atoms: O_11  and  C_12
REMARK   10  A    between atoms: C_12  and  C_13
REMARK   11  A    between atoms: C_13  and  C_14
REMARK   12  A    between atoms: C_14  and  O_15
REMARK   13  A    between atoms: O_15  and  C_16
REMARK   14  A    between atoms: C_28  and  O_30
REMARK                            x       y       z     vdW  Elec       q    Type
REMARK                         _______ _______ _______ _____ _____    ______ ____
ROOT
ATOM      1  C   UNL     1       3.833   5.766  18.455  0.00  0.00    +0.000 A 
ATOM      2  C   UNL     1       3.814   6.780  17.504  0.00  0.00    +0.000 A 
ATOM      3  C   UNL     1       3.037   7.920  17.705  0.00  0.00    +0.000 A 
ATOM      4  C   UNL     1       2.253   8.067  18.856  0.00  0.00    +0.000 A 
ATOM      5  C   UNL     1       2.229   7.024  19.783  0.00  0.00    +0.000 A 
ATOM      6  C   UNL     1       3.008   5.873  19.580  0.00  0.00    +0.000 A 
ENDROOT
BRANCH   1   7
ATOM      7  S   UNL     1       4.897   4.361  18.191  0.00  0.00    +0.000 S 
BRANCH   7   8
ATOM      8  C   UNL     1       5.745   4.852  16.619  0.00  0.00    +0.000 C 
BRANCH   8   9
ATOM      9  C   UNL     1       7.168   5.336  16.901  0.00  0.00    +0.000 C 
ATOM     10  O   UNL     1       7.580   6.465  16.691  0.00  0.00    +0.000 OA
BRANCH   9  11
ATOM     11  O   UNL     1       7.947   4.394  17.495  0.00  0.00    +0.000 OA
ATOM     12  H   UNL     1       7.413   3.674  17.890  0.00  0.00    +0.000 HD
ENDBRANCH   9  11
ENDBRANCH   8   9
BRANCH   8  13
ATOM     13  C   UNL     1       5.695   3.793  15.509  0.00  0.00    +0.000 C 
BRANCH  13  14
ATOM     14  C   UNL     1       5.475   4.400  14.119  0.00  0.00    +0.000 C 
BRANCH  14  16
ATOM     15  C   UNL     1       5.199   3.226  11.928  0.00  0.00    +0.000 C 
ATOM     16  C   UNL     1       6.186   3.614  13.020  0.00  0.00    +0.000 C 
ENDBRANCH  14  16
ENDBRANCH  13  14
ENDBRANCH   8  13
ENDBRANCH   7   8
ENDBRANCH   1   7
BRANCH   4  17
ATOM     17  O   UNL     1       1.492   9.178  19.161  0.00  0.00    +0.000 OA
BRANCH  17  18
ATOM     18  C   UNL     1       0.510   8.926  20.165  0.00  0.00    +0.000 C 
BRANCH  18  19
ATOM     19  C   UNL     1       0.131  10.138  21.019  0.00  0.00    +0.000 C 
BRANCH  19  20
ATOM     20  C   UNL     1       0.947  11.305  20.455  0.00  0.00    +0.000 C 
BRANCH  20  21
ATOM     21  O   UNL     1       0.280  12.049  19.438  0.00  0.00    +0.000 OA
BRANCH  21  22
ATOM     22  C   UNL     1      -1.018  12.413  19.758  0.00  0.00    +0.000 A 
ATOM     23  C   UNL     1      -1.346  13.238  20.847  0.00  0.00    +0.000 A 
ATOM     24  C   UNL     1      -2.668  13.538  21.146  0.00  0.00    +0.000 A 
ATOM     25  C   UNL     1      -3.682  13.006  20.366  0.00  0.00    +0.000 A 
ATOM     26  C   UNL     1      -3.388  12.177  19.269  0.00  0.00    +0.000 A 
ATOM     27  C   UNL     1      -2.054  11.883  18.951  0.00  0.00    +0.000 A 
ATOM     28  C   UNL     1      -1.708  11.040  17.756  0.00  0.00    +0.000 C 
ATOM     29  C   UNL     1      -2.844  10.500  16.891  0.00  0.00    +0.000 C 
ATOM     30  C   UNL     1      -4.286  10.781  17.284  0.00  0.00    +0.000 C 
ATOM     31  C   UNL     1      -4.559  11.624  18.516  0.00  0.00    +0.000 C 
ENDBRANCH  21  22
ENDBRANCH  20  21
ENDBRANCH  19  20
ENDBRANCH  18  19
ENDBRANCH  17  18
ENDBRANCH   4  17
TORSDOF 13
ENDMDL
