MODEL 1
REMARK VINA RESULT:      -6.5      0.000      0.000
REMARK  Name = 
REMARK  11 active torsions:
REMARK  status: ('A' for Active; 'I' for Inactive)
REMARK    1  A    between atoms: C_1  and  C_2
REMARK    2  A    between atoms: C_2  and  O_3
REMARK    3  A    between atoms: O_3  and  C_4
REMARK    4  A    between atoms: C_4  and  C_6
REMARK    5  A    between atoms: C_8  and  S_9
REMARK    6  A    between atoms: S_9  and  C_10
REMARK    7  A    between atoms: C_10  and  C_11
REMARK    8  A    between atoms: C_10  and  C_12
REMARK    9  A    between atoms: C_13  and  C_14
REMARK   10  A    between atoms: C_16  and  N_17
REMARK   11  A    between atoms: N_17  and  C_18
REMARK                            x       y       z     vdW  Elec       q    Type
REMARK                         _______ _______ _______ _____ _____    ______ ____
ROOT
ATOM      1  C   UNL     1       3.443   4.334  17.756  0.00  0.00    +0.000 A 
ATOM      2  S   UNL     1       4.301   3.456  16.560  0.00  0.00    +0.000 S 
ATOM      3  C   UNL     1       5.650   4.497  16.631  0.00  0.00    +0.000 A 
ATOM      4  C   UNL     1       5.433   5.545  17.508  0.00  0.00    +0.000 A 
ATOM      5  C   UNL     1       4.145   5.458  18.160  0.00  0.00    +0.000 A 
ENDROOT
BRANCH   1   6
ATOM      6  C   UNL     1       2.173   3.843  18.259  0.00  0.00    +0.000 C 
ATOM      7  O   UNL     1       1.114   3.899  17.649  0.00  0.00    +0.000 OA
BRANCH   6   8
ATOM      8  O   UNL     1       2.312   3.377  19.534  0.00  0.00    +0.000 OA
BRANCH   8  10
ATOM      9  C   UNL     1       1.310   2.778  21.603  0.00  0.00    +0.000 C 
ATOM     10  C   UNL     1       1.317   3.794  20.475  0.00  0.00    +0.000 C 
ENDBRANCH   8  10
ENDBRANCH   6   8
ENDBRANCH   1   6
BRANCH   4  11
ATOM     11  C   UNL     1       6.426   6.553  17.745  0.00  0.00    +0.000 C 
ATOM     12  N   UNL     1       7.259   7.338  17.939  0.00  0.00    +0.000 NA
ENDBRANCH   4  11
BRANCH   5  13
ATOM     13  N   UNL     1       3.660   6.312  19.113  0.00  0.00    +0.000 N 
ATOM     14  H   UNL     1       3.921   6.161  20.094  0.00  0.00    +0.000 HD
BRANCH  13  15
ATOM     15  C   UNL     1       2.686   7.328  18.988  0.00  0.00    +0.000 A 
ATOM     16  C   UNL     1       2.553   8.081  17.813  0.00  0.00    +0.000 A 
ATOM     17  C   UNL     1       1.763   9.232  17.782  0.00  0.00    +0.000 A 
ATOM     18  C   UNL     1       1.070   9.620  18.923  0.00  0.00    +0.000 A 
ATOM     19 CL   UNL     1       0.172  11.087  18.919  0.00  0.00    +0.000 Cl
ATOM     20  C   UNL     1       1.122   8.839  20.075  0.00  0.00    +0.000 A 
ATOM     21  C   UNL     1       1.924   7.692  20.105  0.00  0.00    +0.000 A 
ENDBRANCH  13  15
ENDBRANCH   5  13
BRANCH   3  22
ATOM     22  S   UNL     1       7.044   4.152  15.602  0.00  0.00    +0.000 S 
BRANCH  22  23
ATOM     23  C   UNL     1       6.548   4.790  13.960  0.00  0.00    +0.000 C 
ATOM     24  C   UNL     1       7.736   5.328  13.168  0.00  0.00    +0.000 C 
ATOM     25  C   UNL     1       5.874   3.657  13.188  0.00  0.00    +0.000 C 
ENDBRANCH  22  23
ENDBRANCH   3  22
TORSDOF 8
ENDMDL
MODEL 2
REMARK VINA RESULT:      -6.0      1.128      1.484
REMARK  Name = 
REMARK  11 active torsions:
REMARK  status: ('A' for Active; 'I' for Inactive)
REMARK    1  A    between atoms: C_1  and  C_2
REMARK    2  A    between atoms: C_2  and  O_3
REMARK    3  A    between atoms: O_3  and  C_4
REMARK    4  A    between atoms: C_4  and  C_6
REMARK    5  A    between atoms: C_8  and  S_9
REMARK    6  A    between atoms: S_9  and  C_10
REMARK    7  A    between atoms: C_10  and  C_11
REMARK    8  A    between atoms: C_10  and  C_12
REMARK    9  A    between atoms: C_13  and  C_14
REMARK   10  A    between atoms: C_16  and  N_17
REMARK   11  A    between atoms: N_17  and  C_18
REMARK                            x       y       z     vdW  Elec       q    Type
REMARK                         _______ _______ _______ _____ _____    ______ ____
ROOT
ATOM      1  C   UNL     1       4.045   3.745  17.268  0.00  0.00    +0.000 A 
ATOM      2  S   UNL     1       4.775   3.235  15.804  0.00  0.00    +0.000 S 
ATOM      3  C   UNL     1       5.759   4.624  15.702  0.00  0.00    +0.000 A 
ATOM      4  C   UNL     1       5.495   5.506  16.734  0.00  0.00    +0.000 A 
ATOM      5  C   UNL     1       4.491   5.001  17.646  0.00  0.00    +0.000 A 
ENDROOT
BRANCH   1   6
ATOM      6  C   UNL     1       3.130   2.870  17.978  0.00  0.00    +0.000 C 
ATOM      7  O   UNL     1       3.416   1.757  18.398  0.00  0.00    +0.000 OA
BRANCH   6   8
ATOM      8  O   UNL     1       1.889   3.433  18.051  0.00  0.00    +0.000 OA
BRANCH   8  10
ATOM      9  C   UNL     1       0.824   3.383  20.173  0.00  0.00    +0.000 C 
ATOM     10  C   UNL     1       0.911   2.717  18.811  0.00  0.00    +0.000 C 
ENDBRANCH   8  10
ENDBRANCH   6   8
ENDBRANCH   1   6
BRANCH   4  11
ATOM     11  C   UNL     1       6.200   6.748  16.870  0.00  0.00    +0.000 C 
ATOM     12  N   UNL     1       6.802   7.732  17.000  0.00  0.00    +0.000 NA
ENDBRANCH   4  11
BRANCH   5  13
ATOM     13  N   UNL     1       4.052   5.614  18.787  0.00  0.00    +0.000 N 
ATOM     14  H   UNL     1       4.364   5.255  19.696  0.00  0.00    +0.000 HD
BRANCH  13  15
ATOM     15  C   UNL     1       3.065   6.615  18.939  0.00  0.00    +0.000 A 
ATOM     16  C   UNL     1       2.844   7.587  17.953  0.00  0.00    +0.000 A 
ATOM     17  C   UNL     1       2.048   8.705  18.212  0.00  0.00    +0.000 A 
ATOM     18  C   UNL     1       1.437   8.841  19.453  0.00  0.00    +0.000 A 
ATOM     19 CL   UNL     1       0.534  10.260  19.810  0.00  0.00    +0.000 Cl
ATOM     20  C   UNL     1       1.576   7.844  20.416  0.00  0.00    +0.000 A 
ATOM     21  C   UNL     1       2.384   6.731  20.157  0.00  0.00    +0.000 A 
ENDBRANCH  13  15
ENDBRANCH   5  13
BRANCH   3  22
ATOM     22  S   UNL     1       6.883   4.771  14.347  0.00  0.00    +0.000 S 
BRANCH  22  23
ATOM     23  C   UNL     1       6.247   3.576  13.116  0.00  0.00    +0.000 C 
ATOM     24  C   UNL     1       4.887   3.989  12.560  0.00  0.00    +0.000 C 
ATOM     25  C   UNL     1       7.265   3.468  11.981  0.00  0.00    +0.000 C 
ENDBRANCH  22  23
ENDBRANCH   3  22
TORSDOF 8
ENDMDL
MODEL 3
REMARK VINA RESULT:      -6.0      0.770      1.405
REMARK  Name = 
REMARK  11 active torsions:
REMARK  status: ('A' for Active; 'I' for Inactive)
REMARK    1  A    between atoms: C_1  and  C_2
REMARK    2  A    between atoms: C_2  and  O_3
REMARK    3  A    between atoms: O_3  and  C_4
REMARK    4  A    between atoms: C_4  and  C_6
REMARK    5  A    between atoms: C_8  and  S_9
REMARK    6  A    between atoms: S_9  and  C_10
REMARK    7  A    between atoms: C_10  and  C_11
REMARK    8  A    between atoms: C_10  and  C_12
REMARK    9  A    between atoms: C_13  and  C_14
REMARK   10  A    between atoms: C_16  and  N_17
REMARK   11  A    between atoms: N_17  and  C_18
REMARK                            x       y       z     vdW  Elec       q    Type
REMARK                         _______ _______ _______ _____ _____    ______ ____
ROOT
ATOM      1  C   UNL     1       2.899   4.244  18.158  0.00  0.00    +0.000 A 
ATOM      2  S   UNL     1       3.666   3.283  16.966  0.00  0.00    +0.000 S 
ATOM      3  C   UNL     1       5.119   4.170  17.050  0.00  0.00    +0.000 A 
ATOM      4  C   UNL     1       5.011   5.233  17.929  0.00  0.00    +0.000 A 
ATOM      5  C   UNL     1       3.717   5.284  18.573  0.00  0.00    +0.000 A 
ENDROOT
BRANCH   1   6
ATOM      6  C   UNL     1       1.580   3.894  18.651  0.00  0.00    +0.000 C 
ATOM      7  O   UNL     1       0.672   3.455  17.958  0.00  0.00    +0.000 OA
BRANCH   6   8
ATOM      8  O   UNL     1       1.471   4.188  19.979  0.00  0.00    +0.000 OA
BRANCH   8  10
ATOM      9  C   UNL     1       2.479   2.739  21.569  0.00  0.00    +0.000 C 
ATOM     10  C   UNL     1       1.187   3.090  20.852  0.00  0.00    +0.000 C 
ENDBRANCH   8  10
ENDBRANCH   6   8
ENDBRANCH   1   6
BRANCH   4  11
ATOM     11  C   UNL     1       6.106   6.126  18.178  0.00  0.00    +0.000 C 
ATOM     12  N   UNL     1       7.004   6.824  18.411  0.00  0.00    +0.000 NA
ENDBRANCH   4  11
BRANCH   5  13
ATOM     13  N   UNL     1       3.321   6.183  19.525  0.00  0.00    +0.000 N 
ATOM     14  H   UNL     1       3.419   5.933  20.516  0.00  0.00    +0.000 HD
BRANCH  13  15
ATOM     15  C   UNL     1       2.618   7.399  19.367  0.00  0.00    +0.000 A 
ATOM     16  C   UNL     1       1.820   7.928  20.392  0.00  0.00    +0.000 A 
ATOM     17  C   UNL     1       0.946   8.989  20.147  0.00  0.00    +0.000 A 
ATOM     18  C   UNL     1       0.888   9.552  18.877  0.00  0.00    +0.000 A 
ATOM     19 CL   UNL     1      -0.254  10.795  18.545  0.00  0.00    +0.000 Cl
ATOM     20  C   UNL     1       1.734   9.097  17.868  0.00  0.00    +0.000 A 
ATOM     21  C   UNL     1       2.601   8.026  18.115  0.00  0.00    +0.000 A 
ENDBRANCH  13  15
ENDBRANCH   5  13
BRANCH   3  22
ATOM     22  S   UNL     1       6.476   3.679  16.030  0.00  0.00    +0.000 S 
BRANCH  22  23
ATOM     23  C   UNL     1       6.255   4.661  14.501  0.00  0.00    +0.000 C 
ATOM     24  C   UNL     1       5.723   3.817  13.347  0.00  0.00    +0.000 C 
ATOM     25  C   UNL     1       5.289   5.806  14.802  0.00  0.00    +0.000 C 
ENDBRANCH  22  23
ENDBRANCH   3  22
TORSDOF 8
ENDMDL
MODEL 4
REMARK VINA RESULT:      -5.9      2.152      2.934
REMARK  Name = 
REMARK  11 active torsions:
REMARK  status: ('A' for Active; 'I' for Inactive)
REMARK    1  A    between atoms: C_1  and  C_2
REMARK    2  A    between atoms: C_2  and  O_3
REMARK    3  A    between atoms: O_3  and  C_4
REMARK    4  A    between atoms: C_4  and  C_6
REMARK    5  A    between atoms: C_8  and  S_9
REMARK    6  A    between atoms: S_9  and  C_10
REMARK    7  A    between atoms: C_10  and  C_11
REMARK    8  A    between atoms: C_10  and  C_12
REMARK    9  A    between atoms: C_13  and  C_14
REMARK   10  A    between atoms: C_16  and  N_17
REMARK   11  A    between atoms: N_17  and  C_18
REMARK                            x       y       z     vdW  Elec       q    Type
REMARK                         _______ _______ _______ _____ _____    ______ ____
ROOT
ATOM      1  C   UNL     1       3.315   4.824  19.429  0.00  0.00    +0.000 A 
ATOM      2  S   UNL     1       4.797   3.964  19.440  0.00  0.00    +0.000 S 
ATOM      3  C   UNL     1       5.424   4.844  18.120  0.00  0.00    +0.000 A 
ATOM      4  C   UNL     1       4.497   5.743  17.627  0.00  0.00    +0.000 A 
ATOM      5  C   UNL     1       3.262   5.730  18.381  0.00  0.00    +0.000 A 
ENDROOT
BRANCH   1   6
ATOM      6  C   UNL     1       2.326   4.600  20.467  0.00  0.00    +0.000 C 
ATOM      7  O   UNL     1       2.555   4.643  21.668  0.00  0.00    +0.000 OA
BRANCH   6   8
ATOM      8  O   UNL     1       1.122   4.266  19.918  0.00  0.00    +0.000 OA
BRANCH   8  10
ATOM      9  C   UNL     1       0.862   2.293  18.621  0.00  0.00    +0.000 C 
ATOM     10  C   UNL     1       0.741   2.889  20.012  0.00  0.00    +0.000 C 
ENDBRANCH   8  10
ENDBRANCH   6   8
ENDBRANCH   1   6
BRANCH   4  11
ATOM     11  C   UNL     1       4.791   6.605  16.518  0.00  0.00    +0.000 C 
ATOM     12  N   UNL     1       5.002   7.279  15.597  0.00  0.00    +0.000 NA
ENDBRANCH   4  11
BRANCH   5  13
ATOM     13  N   UNL     1       2.177   6.535  18.173  0.00  0.00    +0.000 N 
ATOM     14  H   UNL     1       1.476   6.255  17.477  0.00  0.00    +0.000 HD
BRANCH  13  15
ATOM     15  C   UNL     1       1.921   7.835  18.667  0.00  0.00    +0.000 A 
ATOM     16  C   UNL     1       1.564   8.057  20.004  0.00  0.00    +0.000 A 
ATOM     17  C   UNL     1       1.081   9.299  20.422  0.00  0.00    +0.000 A 
ATOM     18  C   UNL     1       0.983  10.341  19.507  0.00  0.00    +0.000 A 
ATOM     19 CL   UNL     1       0.301  11.843  19.993  0.00  0.00    +0.000 Cl
ATOM     20  C   UNL     1       1.413  10.165  18.194  0.00  0.00    +0.000 A 
ATOM     21  C   UNL     1       1.886   8.915  17.777  0.00  0.00    +0.000 A 
ENDBRANCH  13  15
ENDBRANCH   5  13
BRANCH   3  22
ATOM     22  S   UNL     1       7.060   4.481  17.559  0.00  0.00    +0.000 S 
BRANCH  22  23
ATOM     23  C   UNL     1       8.103   5.718  18.414  0.00  0.00    +0.000 C 
ATOM     24  C   UNL     1       7.804   7.142  17.953  0.00  0.00    +0.000 C 
ATOM     25  C   UNL     1       7.860   5.593  19.918  0.00  0.00    +0.000 C 
ENDBRANCH  22  23
ENDBRANCH   3  22
TORSDOF 8
ENDMDL
MODEL 5
REMARK VINA RESULT:      -5.9      5.922      9.524
REMARK  Name = 
REMARK  11 active torsions:
REMARK  status: ('A' for Active; 'I' for Inactive)
REMARK    1  A    between atoms: C_1  and  C_2
REMARK    2  A    between atoms: C_2  and  O_3
REMARK    3  A    between atoms: O_3  and  C_4
REMARK    4  A    between atoms: C_4  and  C_6
REMARK    5  A    between atoms: C_8  and  S_9
REMARK    6  A    between atoms: S_9  and  C_10
REMARK    7  A    between atoms: C_10  and  C_11
REMARK    8  A    between atoms: C_10  and  C_12
REMARK    9  A    between atoms: C_13  and  C_14
REMARK   10  A    between atoms: C_16  and  N_17
REMARK   11  A    between atoms: N_17  and  C_18
REMARK                            x       y       z     vdW  Elec       q    Type
REMARK                         _______ _______ _______ _____ _____    ______ ____
ROOT
ATOM      1  C   UNL     1      -1.951  11.201  18.653  0.00  0.00    +0.000 A 
ATOM      2  S   UNL     1      -2.929  12.185  19.659  0.00  0.00    +0.000 S 
ATOM      3  C   UNL     1      -1.584  12.880  20.444  0.00  0.00    +0.000 A 
ATOM      4  C   UNL     1      -0.397  12.328  19.997  0.00  0.00    +0.000 A 
ATOM      5  C   UNL     1      -0.606  11.343  18.958  0.00  0.00    +0.000 A 
ENDROOT
BRANCH   1   6
ATOM      6  C   UNL     1      -2.549  10.400  17.601  0.00  0.00    +0.000 C 
ATOM      7  O   UNL     1      -3.246   9.412  17.788  0.00  0.00    +0.000 OA
BRANCH   6   8
ATOM      8  O   UNL     1      -2.169  10.860  16.374  0.00  0.00    +0.000 OA
BRANCH   8  10
ATOM      9  C   UNL     1      -3.000  10.025  14.311  0.00  0.00    +0.000 C 
ATOM     10  C   UNL     1      -3.213  11.048  15.413  0.00  0.00    +0.000 C 
ENDBRANCH   8  10
ENDBRANCH   6   8
ENDBRANCH   1   6
BRANCH   4  11
ATOM     11  C   UNL     1       0.876  12.753  20.504  0.00  0.00    +0.000 C 
ATOM     12  N   UNL     1       1.922  13.092  20.874  0.00  0.00    +0.000 NA
ENDBRANCH   4  11
BRANCH   5  13
ATOM     13  N   UNL     1       0.367  10.660  18.281  0.00  0.00    +0.000 N 
ATOM     14  H   UNL     1       0.510  10.856  17.284  0.00  0.00    +0.000 HD
BRANCH  13  15
ATOM     15  C   UNL     1       1.146   9.561  18.709  0.00  0.00    +0.000 A 
ATOM     16  C   UNL     1       1.892   8.790  17.805  0.00  0.00    +0.000 A 
ATOM     17  C   UNL     1       2.457   7.574  18.193  0.00  0.00    +0.000 A 
ATOM     18  C   UNL     1       2.307   7.134  19.504  0.00  0.00    +0.000 A 
ATOM     19 CL   UNL     1       2.919   5.593  19.962  0.00  0.00    +0.000 Cl
ATOM     20  C   UNL     1       1.643   7.925  20.438  0.00  0.00    +0.000 A 
ATOM     21  C   UNL     1       1.068   9.139  20.042  0.00  0.00    +0.000 A 
ENDBRANCH  13  15
ENDBRANCH   5  13
BRANCH   3  22
ATOM     22  S   UNL     1      -1.865  14.105  21.686  0.00  0.00    +0.000 S 
BRANCH  22  23
ATOM     23  C   UNL     1      -2.940  13.259  22.902  0.00  0.00    +0.000 C 
ATOM     24  C   UNL     1      -2.376  11.907  23.328  0.00  0.00    +0.000 C 
ATOM     25  C   UNL     1      -3.095  14.170  24.120  0.00  0.00    +0.000 C 
ENDBRANCH  22  23
ENDBRANCH   3  22
TORSDOF 8
ENDMDL
MODEL 6
REMARK VINA RESULT:      -5.8      6.351      9.794
REMARK  Name = 
REMARK  11 active torsions:
REMARK  status: ('A' for Active; 'I' for Inactive)
REMARK    1  A    between atoms: C_1  and  C_2
REMARK    2  A    between atoms: C_2  and  O_3
REMARK    3  A    between atoms: O_3  and  C_4
REMARK    4  A    between atoms: C_4  and  C_6
REMARK    5  A    between atoms: C_8  and  S_9
REMARK    6  A    between atoms: S_9  and  C_10
REMARK    7  A    between atoms: C_10  and  C_11
REMARK    8  A    between atoms: C_10  and  C_12
REMARK    9  A    between atoms: C_13  and  C_14
REMARK   10  A    between atoms: C_16  and  N_17
REMARK   11  A    between atoms: N_17  and  C_18
REMARK                            x       y       z     vdW  Elec       q    Type
REMARK                         _______ _______ _______ _____ _____    ______ ____
ROOT
ATOM      1  C   UNL     1      -1.334  12.415  20.347  0.00  0.00    +0.000 A 
ATOM      2  S   UNL     1      -3.009  12.776  20.356  0.00  0.00    +0.000 S 
ATOM      3  C   UNL     1      -3.313  11.844  18.961  0.00  0.00    +0.000 A 
ATOM      4  C   UNL     1      -2.145  11.310  18.447  0.00  0.00    +0.000 A 
ATOM      5  C   UNL     1      -0.988  11.646  19.247  0.00  0.00    +0.000 A 
ENDROOT
BRANCH   1   6
ATOM      6  C   UNL     1      -0.479  12.856  21.434  0.00  0.00    +0.000 C 
ATOM      7  O   UNL     1      -0.159  14.018  21.641  0.00  0.00    +0.000 OA
BRANCH   6   8
ATOM      8  O   UNL     1      -0.027  11.786  22.150  0.00  0.00    +0.000 OA
BRANCH   8  10
ATOM      9  C   UNL     1      -0.462   9.735  23.266  0.00  0.00    +0.000 C 
ATOM     10  C   UNL     1      -0.984  11.134  22.992  0.00  0.00    +0.000 C 
ENDBRANCH   8  10
ENDBRANCH   6   8
ENDBRANCH   1   6
BRANCH   4  11
ATOM     11  C   UNL     1      -2.142  10.481  17.276  0.00  0.00    +0.000 C 
ATOM     12  N   UNL     1      -2.099   9.825  16.319  0.00  0.00    +0.000 NA
ENDBRANCH   4  11
BRANCH   5  13
ATOM     13  N   UNL     1       0.297  11.229  19.029  0.00  0.00    +0.000 N 
ATOM     14  H   UNL     1       0.986  11.904  18.678  0.00  0.00    +0.000 HD
BRANCH  13  15
ATOM     15  C   UNL     1       0.826   9.919  19.058  0.00  0.00    +0.000 A 
ATOM     16  C   UNL     1       0.916   9.187  20.250  0.00  0.00    +0.000 A 
ATOM     17  C   UNL     1       1.655   8.003  20.313  0.00  0.00    +0.000 A 
ATOM     18  C   UNL     1       2.285   7.525  19.169  0.00  0.00    +0.000 A 
ATOM     19 CL   UNL     1       3.274   6.121  19.263  0.00  0.00    +0.000 Cl
ATOM     20  C   UNL     1       2.138   8.193  17.956  0.00  0.00    +0.000 A 
ATOM     21  C   UNL     1       1.405   9.384  17.900  0.00  0.00    +0.000 A 
ENDBRANCH  13  15
ENDBRANCH   5  13
BRANCH   3  22
ATOM     22  S   UNL     1      -4.971  11.727  18.362  0.00  0.00    +0.000 S 
BRANCH  22  23
ATOM     23  C   UNL     1      -5.996  11.927  19.865  0.00  0.00    +0.000 C 
ATOM     24  C   UNL     1      -6.774  13.240  19.862  0.00  0.00    +0.000 C 
ATOM     25  C   UNL     1      -6.963  10.746  19.947  0.00  0.00    +0.000 C 
ENDBRANCH  22  23
ENDBRANCH   3  22
TORSDOF 8
ENDMDL
MODEL 7
REMARK VINA RESULT:      -5.8      1.683      2.201
REMARK  Name = 
REMARK  11 active torsions:
REMARK  status: ('A' for Active; 'I' for Inactive)
REMARK    1  A    between atoms: C_1  and  C_2
REMARK    2  A    between atoms: C_2  and  O_3
REMARK    3  A    between atoms: O_3  and  C_4
REMARK    4  A    between atoms: C_4  and  C_6
REMARK    5  A    between atoms: C_8  and  S_9
REMARK    6  A    between atoms: S_9  and  C_10
REMARK    7  A    between atoms: C_10  and  C_11
REMARK    8  A    between atoms: C_10  and  C_12
REMARK    9  A    between atoms: C_13  and  C_14
REMARK   10  A    between atoms: C_16  and  N_17
REMARK   11  A    between atoms: N_17  and  C_18
REMARK                            x       y       z     vdW  Elec       q    Type
REMARK                         _______ _______ _______ _____ _____    ______ ____
ROOT
ATOM      1  C   UNL     1       3.649   4.486  19.348  0.00  0.00    +0.000 A 
ATOM      2  S   UNL     1       5.205   3.788  19.180  0.00  0.00    +0.000 S 
ATOM      3  C   UNL     1       5.654   4.861  17.933  0.00  0.00    +0.000 A 
ATOM      4  C   UNL     1       4.613   5.706  17.595  0.00  0.00    +0.000 A 
ATOM      5  C   UNL     1       3.439   5.486  18.412  0.00  0.00    +0.000 A 
ENDROOT
BRANCH   1   6
ATOM      6  C   UNL     1       2.759   4.054  20.410  0.00  0.00    +0.000 C 
ATOM      7  O   UNL     1       2.275   4.792  21.256  0.00  0.00    +0.000 OA
BRANCH   6   8
ATOM      8  O   UNL     1       2.594   2.699  20.374  0.00  0.00    +0.000 OA
BRANCH   8  10
ATOM      9  C   UNL     1       0.577   2.643  19.120  0.00  0.00    +0.000 C 
ATOM     10  C   UNL     1       2.016   2.161  19.180  0.00  0.00    +0.000 C 
ENDBRANCH   8  10
ENDBRANCH   6   8
ENDBRANCH   1   6
BRANCH   4  11
ATOM     11  C   UNL     1       4.747   6.705  16.574  0.00  0.00    +0.000 C 
ATOM     12  N   UNL     1       4.816   7.529  15.759  0.00  0.00    +0.000 NA
ENDBRANCH   4  11
BRANCH   5  13
ATOM     13  N   UNL     1       2.269   6.193  18.355  0.00  0.00    +0.000 N 
ATOM     14  H   UNL     1       1.476   5.800  17.836  0.00  0.00    +0.000 HD
BRANCH  13  15
ATOM     15  C   UNL     1       2.002   7.513  18.784  0.00  0.00    +0.000 A 
ATOM     16  C   UNL     1       1.708   7.808  20.122  0.00  0.00    +0.000 A 
ATOM     17  C   UNL     1       1.211   9.061  20.490  0.00  0.00    +0.000 A 
ATOM     18  C   UNL     1       1.036  10.042  19.520  0.00  0.00    +0.000 A 
ATOM     19 CL   UNL     1       0.336  11.552  19.950  0.00  0.00    +0.000 Cl
ATOM     20  C   UNL     1       1.403   9.796  18.199  0.00  0.00    +0.000 A 
ATOM     21  C   UNL     1       1.890   8.535  17.833  0.00  0.00    +0.000 A 
ENDBRANCH  13  15
ENDBRANCH   5  13
BRANCH   3  22
ATOM     22  S   UNL     1       7.276   4.731  17.243  0.00  0.00    +0.000 S 
BRANCH  22  23
ATOM     23  C   UNL     1       6.993   3.994  15.591  0.00  0.00    +0.000 C 
ATOM     24  C   UNL     1       5.596   3.393  15.460  0.00  0.00    +0.000 C 
ATOM     25  C   UNL     1       7.195   5.083  14.539  0.00  0.00    +0.000 C 
ENDBRANCH  22  23
ENDBRANCH   3  22
TORSDOF 8
ENDMDL
MODEL 8
REMARK VINA RESULT:      -5.8      3.466      6.283
REMARK  Name = 
REMARK  11 active torsions:
REMARK  status: ('A' for Active; 'I' for Inactive)
REMARK    1  A    between atoms: C_1  and  C_2
REMARK    2  A    between atoms: C_2  and  O_3
REMARK    3  A    between atoms: O_3  and  C_4
REMARK    4  A    between atoms: C_4  and  C_6
REMARK    5  A    between atoms: C_8  and  S_9
REMARK    6  A    between atoms: S_9  and  C_10
REMARK    7  A    between atoms: C_10  and  C_11
REMARK    8  A    between atoms: C_10  and  C_12
REMARK    9  A    between atoms: C_13  and  C_14
REMARK   10  A    between atoms: C_16  and  N_17
REMARK   11  A    between atoms: N_17  and  C_18
REMARK                            x       y       z     vdW  Elec       q    Type
REMARK                         _______ _______ _______ _____ _____    ______ ____
ROOT
ATOM      1  C   UNL     1       2.598   4.501  20.408  0.00  0.00    +0.000 A 
ATOM      2  S   UNL     1       1.605   5.833  20.824  0.00  0.00    +0.000 S 
ATOM      3  C   UNL     1       2.324   6.852  19.661  0.00  0.00    +0.000 A 
ATOM      4  C   UNL     1       3.357   6.213  19.000  0.00  0.00    +0.000 A 
ATOM      5  C   UNL     1       3.526   4.844  19.437  0.00  0.00    +0.000 A 
ENDROOT
BRANCH   1   6
ATOM      6  C   UNL     1       2.376   3.199  21.011  0.00  0.00    +0.000 C 
ATOM      7  O   UNL     1       3.220   2.564  21.627  0.00  0.00    +0.000 OA
BRANCH   6   8
ATOM      8  O   UNL     1       1.116   2.753  20.735  0.00  0.00    +0.000 OA
BRANCH   8  10
ATOM      9  C   UNL     1       1.628   1.711  18.663  0.00  0.00    +0.000 C 
ATOM     10  C   UNL     1       0.739   2.729  19.354  0.00  0.00    +0.000 C 
ENDBRANCH   8  10
ENDBRANCH   6   8
ENDBRANCH   1   6
BRANCH   4  11
ATOM     11  C   UNL     1       4.115   6.862  17.969  0.00  0.00    +0.000 C 
ATOM     12  N   UNL     1       4.757   7.400  17.166  0.00  0.00    +0.000 NA
ENDBRANCH   4  11
BRANCH   5  13
ATOM     13  N   UNL     1       4.425   3.940  18.941  0.00  0.00    +0.000 N 
ATOM     14  H   UNL     1       4.696   3.139  19.521  0.00  0.00    +0.000 HD
BRANCH  13  15
ATOM     15  C   UNL     1       5.203   4.011  17.763  0.00  0.00    +0.000 A 
ATOM     16  C   UNL     1       6.548   4.407  17.791  0.00  0.00    +0.000 A 
ATOM     17  C   UNL     1       7.233   4.706  16.611  0.00  0.00    +0.000 A 
ATOM     18  C   UNL     1       6.584   4.579  15.388  0.00  0.00    +0.000 A 
ATOM     19 CL   UNL     1       7.393   5.037  13.941  0.00  0.00    +0.000 Cl
ATOM     20  C   UNL     1       5.276   4.106  15.334  0.00  0.00    +0.000 A 
ATOM     21  C   UNL     1       4.589   3.817  16.519  0.00  0.00    +0.000 A 
ENDBRANCH  13  15
ENDBRANCH   5  13
BRANCH   3  22
ATOM     22  S   UNL     1       1.726   8.506  19.496  0.00  0.00    +0.000 S 
BRANCH  22  23
ATOM     23  C   UNL     1       0.650   8.733  20.958  0.00  0.00    +0.000 C 
ATOM     24  C   UNL     1       1.431   9.205  22.181  0.00  0.00    +0.000 C 
ATOM     25  C   UNL     1      -0.433   9.752  20.604  0.00  0.00    +0.000 C 
ENDBRANCH  22  23
ENDBRANCH   3  22
TORSDOF 8
ENDMDL
MODEL 9
REMARK VINA RESULT:      -5.7      6.070      9.744
REMARK  Name = 
REMARK  11 active torsions:
REMARK  status: ('A' for Active; 'I' for Inactive)
REMARK    1  A    between atoms: C_1  and  C_2
REMARK    2  A    between atoms: C_2  and  O_3
REMARK    3  A    between atoms: O_3  and  C_4
REMARK    4  A    between atoms: C_4  and  C_6
REMARK    5  A    between atoms: C_8  and  S_9
REMARK    6  A    between atoms: S_9  and  C_10
REMARK    7  A    between atoms: C_10  and  C_11
REMARK    8  A    between atoms: C_10  and  C_12
REMARK    9  A    between atoms: C_13  and  C_14
REMARK   10  A    between atoms: C_16  and  N_17
REMARK   11  A    between atoms: N_17  and  C_18
REMARK                            x       y       z     vdW  Elec       q    Type
REMARK                         _______ _______ _______ _____ _____    ______ ____
ROOT
ATOM      1  C   UNL     1      -1.814  11.270  18.310  0.00  0.00    +0.000 A 
ATOM      2  S   UNL     1      -3.147  11.999  19.103  0.00  0.00    +0.000 S 
ATOM      3  C   UNL     1      -2.156  12.782  20.248  0.00  0.00    +0.000 A 
ATOM      4  C   UNL     1      -0.825  12.447  20.077  0.00  0.00    +0.000 A 
ATOM      5  C   UNL     1      -0.622  11.560  18.953  0.00  0.00    +0.000 A 
ENDROOT
BRANCH   1   6
ATOM      6  C   UNL     1      -2.010  10.512  17.087  0.00  0.00    +0.000 C 
ATOM      7  O   UNL     1      -1.622   9.366  16.909  0.00  0.00    +0.000 OA
BRANCH   6   8
ATOM      8  O   UNL     1      -2.623  11.280  16.141  0.00  0.00    +0.000 OA
BRANCH   8  10
ATOM      9  C   UNL     1      -3.375  10.171  14.179  0.00  0.00    +0.000 C 
ATOM     10  C   UNL     1      -3.792  10.724  15.530  0.00  0.00    +0.000 C 
ENDBRANCH   8  10
ENDBRANCH   6   8
ENDBRANCH   1   6
BRANCH   4  11
ATOM     11  C   UNL     1       0.207  12.985  20.917  0.00  0.00    +0.000 C 
ATOM     12  N   UNL     1       1.033  13.459  21.580  0.00  0.00    +0.000 NA
ENDBRANCH   4  11
BRANCH   5  13
ATOM     13  N   UNL     1       0.581  11.091  18.498  0.00  0.00    +0.000 N 
ATOM     14  H   UNL     1       1.033  11.567  17.709  0.00  0.00    +0.000 HD
BRANCH  13  15
ATOM     15  C   UNL     1       1.267   9.906  18.849  0.00  0.00    +0.000 A 
ATOM     16  C   UNL     1       1.997   9.171  17.905  0.00  0.00    +0.000 A 
ATOM     17  C   UNL     1       2.464   7.888  18.198  0.00  0.00    +0.000 A 
ATOM     18  C   UNL     1       2.229   7.342  19.455  0.00  0.00    +0.000 A 
ATOM     19 CL   UNL     1       2.718   5.728  19.789  0.00  0.00    +0.000 Cl
ATOM     20  C   UNL     1       1.580   8.090  20.434  0.00  0.00    +0.000 A 
ATOM     21  C   UNL     1       1.104   9.371  20.133  0.00  0.00    +0.000 A 
ENDBRANCH  13  15
ENDBRANCH   5  13
BRANCH   3  22
ATOM     22  S   UNL     1      -2.916  13.818  21.461  0.00  0.00    +0.000 S 
BRANCH  22  23
ATOM     23  C   UNL     1      -3.996  12.677  22.400  0.00  0.00    +0.000 C 
ATOM     24  C   UNL     1      -3.661  12.660  23.888  0.00  0.00    +0.000 C 
ATOM     25  C   UNL     1      -5.446  13.113  22.194  0.00  0.00    +0.000 C 
ENDBRANCH  22  23
ENDBRANCH   3  22
TORSDOF 8
ENDMDL
