MODEL 1
REMARK VINA RESULT:      -7.4      0.000      0.000
REMARK  Name = 
REMARK  7 active torsions:
REMARK  status: ('A' for Active; 'I' for Inactive)
REMARK    1  A    between atoms: C_1  and  C_2
REMARK    2  A    between atoms: C_2  and  C_3
REMARK    3  A    between atoms: C_10  and  C_11
REMARK    4  A    between atoms: C_11  and  C_12
REMARK    5  A    between atoms: C_12  and  C_13
REMARK    6  A    between atoms: C_13  and  O_14
REMARK    7  A    between atoms: O_14  and  C_15
REMARK                            x       y       z     vdW  Elec       q    Type
REMARK                         _______ _______ _______ _____ _____    ______ ____
ROOT
ATOM      1  C   UNL     1       7.179   5.773  17.073  0.00  0.00    +0.000 A 
ATOM      2  N   UNL     1       7.571   5.833  15.774  0.00  0.00    +0.000 NA
ATOM      3  C   UNL     1       7.059   5.016  14.829  0.00  0.00    +0.000 A 
ATOM      4  N   UNL     1       7.482   5.143  13.489  0.00  0.00    +0.000 N 
ATOM      5  N   UNL     1       6.125   4.098  15.169  0.00  0.00    +0.000 NA
ATOM      6  C   UNL     1       5.674   3.971  16.446  0.00  0.00    +0.000 A 
ATOM      7  N   UNL     1       4.657   3.011  16.691  0.00  0.00    +0.000 N 
ATOM      8  C   UNL     1       6.198   4.817  17.464  0.00  0.00    +0.000 A 
ATOM      9  H   UNL     1       8.176   5.862  13.232  0.00  0.00    +0.000 HD
ATOM     10  H   UNL     1       7.084   4.541  12.756  0.00  0.00    +0.000 HD
ATOM     11  H   UNL     1       4.321   2.422  15.915  0.00  0.00    +0.000 HD
ATOM     12  H   UNL     1       4.194   2.911  17.602  0.00  0.00    +0.000 HD
ENDROOT
BRANCH   1  14
ATOM     13  C   UNL     1       7.734   8.203  17.578  0.00  0.00    +0.000 C 
ATOM     14  C   UNL     1       7.803   6.750  18.052  0.00  0.00    +0.000 C 
ENDBRANCH   1  14
BRANCH   8  15
ATOM     15  C   UNL     1       5.711   4.739  18.907  0.00  0.00    +0.000 C 
BRANCH  15  16
ATOM     16  C   UNL     1       4.954   5.991  19.394  0.00  0.00    +0.000 C 
BRANCH  16  17
ATOM     17  C   UNL     1       3.710   6.173  18.525  0.00  0.00    +0.000 C 
BRANCH  17  18
ATOM     18  O   UNL     1       2.551   6.024  19.260  0.00  0.00    +0.000 OA
BRANCH  18  19
ATOM     19  C   UNL     1       2.149   4.849  19.817  0.00  0.00    +0.000 A 
ATOM     20  C   UNL     1       2.355   4.561  21.186  0.00  0.00    +0.000 A 
ATOM     21  C   UNL     1       1.923   3.352  21.730  0.00  0.00    +0.000 A 
ATOM     22  C   UNL     1       1.280   2.412  20.925  0.00  0.00    +0.000 A 
ATOM     23  C   UNL     1       1.072   2.680  19.570  0.00  0.00    +0.000 A 
ATOM     24  C   UNL     1       1.504   3.891  19.014  0.00  0.00    +0.000 A 
ATOM     25 CL   UNL     1       1.223   4.198  17.306  0.00  0.00    +0.000 Cl
ENDBRANCH  18  19
ENDBRANCH  17  18
ENDBRANCH  16  17
ENDBRANCH  15  16
ENDBRANCH   8  15
TORSDOF 6
ENDMDL
MODEL 2
REMARK VINA RESULT:      -7.2      2.473      3.695
REMARK  Name = 
REMARK  7 active torsions:
REMARK  status: ('A' for Active; 'I' for Inactive)
REMARK    1  A    between atoms: C_1  and  C_2
REMARK    2  A    between atoms: C_2  and  C_3
REMARK    3  A    between atoms: C_10  and  C_11
REMARK    4  A    between atoms: C_11  and  C_12
REMARK    5  A    between atoms: C_12  and  C_13
REMARK    6  A    between atoms: C_13  and  O_14
REMARK    7  A    between atoms: O_14  and  C_15
REMARK                            x       y       z     vdW  Elec       q    Type
REMARK                         _______ _______ _______ _____ _____    ______ ____
ROOT
ATOM      1  C   UNL     1       6.351   6.501  16.999  0.00  0.00    +0.000 A 
ATOM      2  N   UNL     1       6.926   7.729  16.914  0.00  0.00    +0.000 NA
ATOM      3  C   UNL     1       7.869   8.144  17.785  0.00  0.00    +0.000 A 
ATOM      4  N   UNL     1       8.452   9.419  17.631  0.00  0.00    +0.000 N 
ATOM      5  N   UNL     1       8.267   7.324  18.785  0.00  0.00    +0.000 NA
ATOM      6  C   UNL     1       7.746   6.078  18.943  0.00  0.00    +0.000 A 
ATOM      7  N   UNL     1       8.265   5.276  19.993  0.00  0.00    +0.000 N 
ATOM      8  C   UNL     1       6.748   5.614  18.040  0.00  0.00    +0.000 A 
ATOM      9  H   UNL     1       8.162  10.029  16.852  0.00  0.00    +0.000 HD
ATOM     10  H   UNL     1       9.188   9.740  18.276  0.00  0.00    +0.000 HD
ATOM     11  H   UNL     1       8.985   5.668  20.619  0.00  0.00    +0.000 HD
ATOM     12  H   UNL     1       7.999   4.294  20.128  0.00  0.00    +0.000 HD
ENDROOT
BRANCH   1  14
ATOM     13  C   UNL     1       5.886   5.281  14.815  0.00  0.00    +0.000 C 
ATOM     14  C   UNL     1       5.314   6.125  15.956  0.00  0.00    +0.000 C 
ENDBRANCH   1  14
BRANCH   8  15
ATOM     15  C   UNL     1       6.147   4.216  18.150  0.00  0.00    +0.000 C 
BRANCH  15  16
ATOM     16  C   UNL     1       4.990   4.097  19.161  0.00  0.00    +0.000 C 
BRANCH  16  17
ATOM     17  C   UNL     1       3.877   3.264  18.528  0.00  0.00    +0.000 C 
BRANCH  17  18
ATOM     18  O   UNL     1       2.765   4.032  18.246  0.00  0.00    +0.000 OA
BRANCH  18  19
ATOM     19  C   UNL     1       2.489   5.221  18.850  0.00  0.00    +0.000 A 
ATOM     20  C   UNL     1       2.731   6.458  18.208  0.00  0.00    +0.000 A 
ATOM     21  C   UNL     1       2.429   7.661  18.847  0.00  0.00    +0.000 A 
ATOM     22  C   UNL     1       1.884   7.653  20.131  0.00  0.00    +0.000 A 
ATOM     23  C   UNL     1       1.643   6.440  20.779  0.00  0.00    +0.000 A 
ATOM     24  C   UNL     1       1.945   5.227  20.146  0.00  0.00    +0.000 A 
ATOM     25 CL   UNL     1       1.625   3.717  20.989  0.00  0.00    +0.000 Cl
ENDBRANCH  18  19
ENDBRANCH  17  18
ENDBRANCH  16  17
ENDBRANCH  15  16
ENDBRANCH   8  15
TORSDOF 6
ENDMDL
MODEL 3
REMARK VINA RESULT:      -6.9      2.040      3.510
REMARK  Name = 
REMARK  7 active torsions:
REMARK  status: ('A' for Active; 'I' for Inactive)
REMARK    1  A    between atoms: C_1  and  C_2
REMARK    2  A    between atoms: C_2  and  C_3
REMARK    3  A    between atoms: C_10  and  C_11
REMARK    4  A    between atoms: C_11  and  C_12
REMARK    5  A    between atoms: C_12  and  C_13
REMARK    6  A    between atoms: C_13  and  O_14
REMARK    7  A    between atoms: O_14  and  C_15
REMARK                            x       y       z     vdW  Elec       q    Type
REMARK                         _______ _______ _______ _____ _____    ______ ____
ROOT
ATOM      1  C   UNL     1       5.786   5.162  15.793  0.00  0.00    +0.000 A 
ATOM      2  N   UNL     1       6.486   6.316  15.950  0.00  0.00    +0.000 NA
ATOM      3  C   UNL     1       6.909   6.743  17.159  0.00  0.00    +0.000 A 
ATOM      4  N   UNL     1       7.656   7.935  17.257  0.00  0.00    +0.000 N 
ATOM      5  N   UNL     1       6.635   6.012  18.263  0.00  0.00    +0.000 NA
ATOM      6  C   UNL     1       5.943   4.843  18.197  0.00  0.00    +0.000 A 
ATOM      7  N   UNL     1       5.750   4.124  19.406  0.00  0.00    +0.000 N 
ATOM      8  C   UNL     1       5.482   4.369  16.937  0.00  0.00    +0.000 A 
ATOM      9  H   UNL     1       7.883   8.475  16.409  0.00  0.00    +0.000 HD
ATOM     10  H   UNL     1       8.003   8.261  18.170  0.00  0.00    +0.000 HD
ATOM     11  H   UNL     1       6.102   4.520  20.291  0.00  0.00    +0.000 HD
ATOM     12  H   UNL     1       5.322   3.192  19.438  0.00  0.00    +0.000 HD
ENDROOT
BRANCH   1  14
ATOM     13  C   UNL     1       6.455   3.972  13.646  0.00  0.00    +0.000 C 
ATOM     14  C   UNL     1       5.375   4.762  14.388  0.00  0.00    +0.000 C 
ENDBRANCH   1  14
BRANCH   8  15
ATOM     15  C   UNL     1       4.725   3.052  16.798  0.00  0.00    +0.000 C 
BRANCH  15  16
ATOM     16  C   UNL     1       3.849   2.688  18.013  0.00  0.00    +0.000 C 
BRANCH  16  17
ATOM     17  C   UNL     1       2.439   2.376  17.517  0.00  0.00    +0.000 C 
BRANCH  17  18
ATOM     18  O   UNL     1       1.495   3.171  18.138  0.00  0.00    +0.000 OA
BRANCH  18  19
ATOM     19  C   UNL     1       1.767   4.388  18.684  0.00  0.00    +0.000 A 
ATOM     20  C   UNL     1       2.155   5.493  17.892  0.00  0.00    +0.000 A 
ATOM     21  C   UNL     1       2.418   6.730  18.478  0.00  0.00    +0.000 A 
ATOM     22  C   UNL     1       2.298   6.890  19.859  0.00  0.00    +0.000 A 
ATOM     23  C   UNL     1       1.919   5.807  20.656  0.00  0.00    +0.000 A 
ATOM     24  C   UNL     1       1.655   4.560  20.076  0.00  0.00    +0.000 A 
ATOM     25 CL   UNL     1       1.176   3.219  21.107  0.00  0.00    +0.000 Cl
ENDBRANCH  18  19
ENDBRANCH  17  18
ENDBRANCH  16  17
ENDBRANCH  15  16
ENDBRANCH   8  15
TORSDOF 6
ENDMDL
MODEL 4
REMARK VINA RESULT:      -6.9      3.437      6.721
REMARK  Name = 
REMARK  7 active torsions:
REMARK  status: ('A' for Active; 'I' for Inactive)
REMARK    1  A    between atoms: C_1  and  C_2
REMARK    2  A    between atoms: C_2  and  C_3
REMARK    3  A    between atoms: C_10  and  C_11
REMARK    4  A    between atoms: C_11  and  C_12
REMARK    5  A    between atoms: C_12  and  C_13
REMARK    6  A    between atoms: C_13  and  O_14
REMARK    7  A    between atoms: O_14  and  C_15
REMARK                            x       y       z     vdW  Elec       q    Type
REMARK                         _______ _______ _______ _____ _____    ______ ____
ROOT
ATOM      1  C   UNL     1       2.926   6.332  18.562  0.00  0.00    +0.000 A 
ATOM      2  N   UNL     1       2.098   5.815  19.508  0.00  0.00    +0.000 NA
ATOM      3  C   UNL     1       2.020   4.490  19.748  0.00  0.00    +0.000 A 
ATOM      4  N   UNL     1       1.164   4.012  20.763  0.00  0.00    +0.000 N 
ATOM      5  N   UNL     1       2.781   3.631  19.032  0.00  0.00    +0.000 NA
ATOM      6  C   UNL     1       3.638   4.062  18.068  0.00  0.00    +0.000 A 
ATOM      7  N   UNL     1       4.429   3.086  17.407  0.00  0.00    +0.000 N 
ATOM      8  C   UNL     1       3.740   5.455  17.791  0.00  0.00    +0.000 A 
ATOM      9  H   UNL     1       0.605   4.674  21.322  0.00  0.00    +0.000 HD
ATOM     10  H   UNL     1       1.110   3.005  20.971  0.00  0.00    +0.000 HD
ATOM     11  H   UNL     1       4.307   2.091  17.647  0.00  0.00    +0.000 HD
ATOM     12  H   UNL     1       5.165   3.328  16.735  0.00  0.00    +0.000 HD
ENDROOT
BRANCH   1  14
ATOM     13  C   UNL     1       1.667   8.397  17.772  0.00  0.00    +0.000 C 
ATOM     14  C   UNL     1       2.953   7.839  18.385  0.00  0.00    +0.000 C 
ENDBRANCH   1  14
BRANCH   8  15
ATOM     15  C   UNL     1       4.703   5.999  16.741  0.00  0.00    +0.000 C 
BRANCH  15  16
ATOM     16  C   UNL     1       6.133   6.257  17.259  0.00  0.00    +0.000 C 
BRANCH  16  17
ATOM     17  C   UNL     1       7.081   5.276  16.573  0.00  0.00    +0.000 C 
BRANCH  17  18
ATOM     18  O   UNL     1       7.332   5.643  15.265  0.00  0.00    +0.000 OA
BRANCH  18  19
ATOM     19  C   UNL     1       6.947   4.912  14.183  0.00  0.00    +0.000 A 
ATOM     20  C   UNL     1       5.826   4.051  14.223  0.00  0.00    +0.000 A 
ATOM     21  C   UNL     1       5.450   3.322  13.095  0.00  0.00    +0.000 A 
ATOM     22  C   UNL     1       6.179   3.437  11.912  0.00  0.00    +0.000 A 
ATOM     23  C   UNL     1       7.291   4.281  11.858  0.00  0.00    +0.000 A 
ATOM     24  C   UNL     1       7.678   5.015  12.986  0.00  0.00    +0.000 A 
ATOM     25 CL   UNL     1       9.080   6.071  12.882  0.00  0.00    +0.000 Cl
ENDBRANCH  18  19
ENDBRANCH  17  18
ENDBRANCH  16  17
ENDBRANCH  15  16
ENDBRANCH   8  15
TORSDOF 6
ENDMDL
MODEL 5
REMARK VINA RESULT:      -6.9      4.173      7.754
REMARK  Name = 
REMARK  7 active torsions:
REMARK  status: ('A' for Active; 'I' for Inactive)
REMARK    1  A    between atoms: C_1  and  C_2
REMARK    2  A    between atoms: C_2  and  C_3
REMARK    3  A    between atoms: C_10  and  C_11
REMARK    4  A    between atoms: C_11  and  C_12
REMARK    5  A    between atoms: C_12  and  C_13
REMARK    6  A    between atoms: C_13  and  O_14
REMARK    7  A    between atoms: O_14  and  C_15
REMARK                            x       y       z     vdW  Elec       q    Type
REMARK                         _______ _______ _______ _____ _____    ______ ____
ROOT
ATOM      1  C   UNL     1       5.772   5.106  16.730  0.00  0.00    +0.000 A 
ATOM      2  N   UNL     1       4.945   4.132  17.191  0.00  0.00    +0.000 NA
ATOM      3  C   UNL     1       5.021   3.660  18.453  0.00  0.00    +0.000 A 
ATOM      4  N   UNL     1       4.116   2.668  18.885  0.00  0.00    +0.000 N 
ATOM      5  N   UNL     1       5.948   4.160  19.302  0.00  0.00    +0.000 NA
ATOM      6  C   UNL     1       6.815   5.138  18.925  0.00  0.00    +0.000 A 
ATOM      7  N   UNL     1       7.717   5.630  19.904  0.00  0.00    +0.000 N 
ATOM      8  C   UNL     1       6.759   5.653  17.599  0.00  0.00    +0.000 A 
ATOM      9  H   UNL     1       3.396   2.309  18.241  0.00  0.00    +0.000 HD
ATOM     10  H   UNL     1       4.150   2.314  19.851  0.00  0.00    +0.000 HD
ATOM     11  H   UNL     1       7.715   5.214  20.847  0.00  0.00    +0.000 HD
ATOM     12  H   UNL     1       8.340   6.427  19.736  0.00  0.00    +0.000 HD
ENDROOT
BRANCH   1  14
ATOM     13  C   UNL     1       5.642   4.443  14.278  0.00  0.00    +0.000 C 
ATOM     14  C   UNL     1       5.589   5.579  15.300  0.00  0.00    +0.000 C 
ENDBRANCH   1  14
BRANCH   8  15
ATOM     15  C   UNL     1       7.686   6.768  17.128  0.00  0.00    +0.000 C 
BRANCH  15  16
ATOM     16  C   UNL     1       7.235   8.186  17.531  0.00  0.00    +0.000 C 
BRANCH  16  17
ATOM     17  C   UNL     1       8.346   8.831  18.358  0.00  0.00    +0.000 C 
BRANCH  17  18
ATOM     18  O   UNL     1       8.740  10.042  17.822  0.00  0.00    +0.000 OA
BRANCH  18  19
ATOM     19  C   UNL     1       9.281  11.056  18.551  0.00  0.00    +0.000 A 
ATOM     20  C   UNL     1      10.238  10.819  19.564  0.00  0.00    +0.000 A 
ATOM     21  C   UNL     1      10.783  11.880  20.288  0.00  0.00    +0.000 A 
ATOM     22  C   UNL     1      10.387  13.189  20.016  0.00  0.00    +0.000 A 
ATOM     23  C   UNL     1       9.440  13.439  19.021  0.00  0.00    +0.000 A 
ATOM     24  C   UNL     1       8.886  12.380  18.290  0.00  0.00    +0.000 A 
ATOM     25 CL   UNL     1       7.699  12.730  17.041  0.00  0.00    +0.000 Cl
ENDBRANCH  18  19
ENDBRANCH  17  18
ENDBRANCH  16  17
ENDBRANCH  15  16
ENDBRANCH   8  15
TORSDOF 6
ENDMDL
MODEL 6
REMARK VINA RESULT:      -6.7      4.438      8.169
REMARK  Name = 
REMARK  7 active torsions:
REMARK  status: ('A' for Active; 'I' for Inactive)
REMARK    1  A    between atoms: C_1  and  C_2
REMARK    2  A    between atoms: C_2  and  C_3
REMARK    3  A    between atoms: C_10  and  C_11
REMARK    4  A    between atoms: C_11  and  C_12
REMARK    5  A    between atoms: C_12  and  C_13
REMARK    6  A    between atoms: C_13  and  O_14
REMARK    7  A    between atoms: O_14  and  C_15
REMARK                            x       y       z     vdW  Elec       q    Type
REMARK                         _______ _______ _______ _____ _____    ______ ____
ROOT
ATOM      1  C   UNL     1       5.607   5.709  17.319  0.00  0.00    +0.000 A 
ATOM      2  N   UNL     1       4.767   4.783  17.851  0.00  0.00    +0.000 NA
ATOM      3  C   UNL     1       5.001   4.201  19.046  0.00  0.00    +0.000 A 
ATOM      4  N   UNL     1       4.079   3.266  19.562  0.00  0.00    +0.000 N 
ATOM      5  N   UNL     1       6.105   4.536  19.752  0.00  0.00    +0.000 NA
ATOM      6  C   UNL     1       6.998   5.455  19.296  0.00  0.00    +0.000 A 
ATOM      7  N   UNL     1       8.098   5.775  20.133  0.00  0.00    +0.000 N 
ATOM      8  C   UNL     1       6.778   6.084  18.038  0.00  0.00    +0.000 A 
ATOM      9  H   UNL     1       3.226   3.033  19.030  0.00  0.00    +0.000 HD
ATOM     10  H   UNL     1       4.234   2.830  20.481  0.00  0.00    +0.000 HD
ATOM     11  H   UNL     1       8.208   5.282  21.033  0.00  0.00    +0.000 HD
ATOM     12  H   UNL     1       8.768   6.520  19.913  0.00  0.00    +0.000 HD
ENDROOT
BRANCH   1  14
ATOM     13  C   UNL     1       5.531   5.390  14.797  0.00  0.00    +0.000 C 
ATOM     14  C   UNL     1       5.241   6.317  15.978  0.00  0.00    +0.000 C 
ENDBRANCH   1  14
BRANCH   8  15
ATOM     15  C   UNL     1       7.729   7.142  17.488  0.00  0.00    +0.000 C 
BRANCH  15  16
ATOM     16  C   UNL     1       7.352   8.591  17.854  0.00  0.00    +0.000 C 
BRANCH  16  17
ATOM     17  C   UNL     1       8.556   9.490  17.576  0.00  0.00    +0.000 C 
BRANCH  17  18
ATOM     18  O   UNL     1       8.654  10.509  18.503  0.00  0.00    +0.000 OA
BRANCH  18  19
ATOM     19  C   UNL     1       9.817  11.143  18.817  0.00  0.00    +0.000 A 
ATOM     20  C   UNL     1      10.768  11.489  17.830  0.00  0.00    +0.000 A 
ATOM     21  C   UNL     1      11.947  12.148  18.179  0.00  0.00    +0.000 A 
ATOM     22  C   UNL     1      12.197  12.474  19.512  0.00  0.00    +0.000 A 
ATOM     23  C   UNL     1      11.269  12.136  20.499  0.00  0.00    +0.000 A 
ATOM     24  C   UNL     1      10.083  11.472  20.158  0.00  0.00    +0.000 A 
ATOM     25 CL   UNL     1       8.934  11.065  21.424  0.00  0.00    +0.000 Cl
ENDBRANCH  18  19
ENDBRANCH  17  18
ENDBRANCH  16  17
ENDBRANCH  15  16
ENDBRANCH   8  15
TORSDOF 6
ENDMDL
MODEL 7
REMARK VINA RESULT:      -6.7      4.020      5.138
REMARK  Name = 
REMARK  7 active torsions:
REMARK  status: ('A' for Active; 'I' for Inactive)
REMARK    1  A    between atoms: C_1  and  C_2
REMARK    2  A    between atoms: C_2  and  C_3
REMARK    3  A    between atoms: C_10  and  C_11
REMARK    4  A    between atoms: C_11  and  C_12
REMARK    5  A    between atoms: C_12  and  C_13
REMARK    6  A    between atoms: C_13  and  O_14
REMARK    7  A    between atoms: O_14  and  C_15
REMARK                            x       y       z     vdW  Elec       q    Type
REMARK                         _______ _______ _______ _____ _____    ______ ____
ROOT
ATOM      1  C   UNL     1       4.725   4.814  18.729  0.00  0.00    +0.000 A 
ATOM      2  N   UNL     1       6.002   4.348  18.731  0.00  0.00    +0.000 NA
ATOM      3  C   UNL     1       6.891   4.683  17.773  0.00  0.00    +0.000 A 
ATOM      4  N   UNL     1       8.212   4.193  17.843  0.00  0.00    +0.000 N 
ATOM      5  N   UNL     1       6.518   5.507  16.767  0.00  0.00    +0.000 NA
ATOM      6  C   UNL     1       5.261   6.021  16.689  0.00  0.00    +0.000 A 
ATOM      7  N   UNL     1       4.982   6.915  15.623  0.00  0.00    +0.000 N 
ATOM      8  C   UNL     1       4.300   5.683  17.684  0.00  0.00    +0.000 A 
ATOM      9  H   UNL     1       8.498   3.585  18.625  0.00  0.00    +0.000 HD
ATOM     10  H   UNL     1       8.907   4.457  17.130  0.00  0.00    +0.000 HD
ATOM     11  H   UNL     1       5.716   7.118  14.929  0.00  0.00    +0.000 HD
ATOM     12  H   UNL     1       4.093   7.421  15.538  0.00  0.00    +0.000 HD
ENDROOT
BRANCH   1  14
ATOM     13  C   UNL     1       3.626   2.876  19.958  0.00  0.00    +0.000 C 
ATOM     14  C   UNL     1       3.810   4.392  19.864  0.00  0.00    +0.000 C 
ENDBRANCH   1  14
BRANCH   8  15
ATOM     15  C   UNL     1       2.885   6.250  17.664  0.00  0.00    +0.000 C 
BRANCH  15  16
ATOM     16  C   UNL     1       2.793   7.751  18.006  0.00  0.00    +0.000 C 
BRANCH  16  17
ATOM     17  C   UNL     1       2.075   7.899  19.346  0.00  0.00    +0.000 C 
BRANCH  17  18
ATOM     18  O   UNL     1       1.370   9.085  19.415  0.00  0.00    +0.000 OA
BRANCH  18  19
ATOM     19  C   UNL     1       0.713   9.515  20.527  0.00  0.00    +0.000 A 
ATOM     20  C   UNL     1       0.257   8.617  21.519  0.00  0.00    +0.000 A 
ATOM     21  C   UNL     1      -0.405   9.088  22.653  0.00  0.00    +0.000 A 
ATOM     22  C   UNL     1      -0.624  10.455  22.818  0.00  0.00    +0.000 A 
ATOM     23  C   UNL     1      -0.184  11.355  21.845  0.00  0.00    +0.000 A 
ATOM     24  C   UNL     1       0.481  10.891  20.702  0.00  0.00    +0.000 A 
ATOM     25 CL   UNL     1       1.026  12.050  19.498  0.00  0.00    +0.000 Cl
ENDBRANCH  18  19
ENDBRANCH  17  18
ENDBRANCH  16  17
ENDBRANCH  15  16
ENDBRANCH   8  15
TORSDOF 6
ENDMDL
MODEL 8
REMARK VINA RESULT:      -6.6      3.518      6.925
REMARK  Name = 
REMARK  7 active torsions:
REMARK  status: ('A' for Active; 'I' for Inactive)
REMARK    1  A    between atoms: C_1  and  C_2
REMARK    2  A    between atoms: C_2  and  C_3
REMARK    3  A    between atoms: C_10  and  C_11
REMARK    4  A    between atoms: C_11  and  C_12
REMARK    5  A    between atoms: C_12  and  C_13
REMARK    6  A    between atoms: C_13  and  O_14
REMARK    7  A    between atoms: O_14  and  C_15
REMARK                            x       y       z     vdW  Elec       q    Type
REMARK                         _______ _______ _______ _____ _____    ______ ____
ROOT
ATOM      1  C   UNL     1       2.595   5.527  19.269  0.00  0.00    +0.000 A 
ATOM      2  N   UNL     1       1.648   4.794  19.910  0.00  0.00    +0.000 NA
ATOM      3  C   UNL     1       1.879   3.535  20.339  0.00  0.00    +0.000 A 
ATOM      4  N   UNL     1       0.866   2.832  21.025  0.00  0.00    +0.000 N 
ATOM      5  N   UNL     1       3.088   2.966  20.131  0.00  0.00    +0.000 NA
ATOM      6  C   UNL     1       4.095   3.629  19.500  0.00  0.00    +0.000 A 
ATOM      7  N   UNL     1       5.342   2.963  19.375  0.00  0.00    +0.000 N 
ATOM      8  C   UNL     1       3.879   4.957  19.035  0.00  0.00    +0.000 A 
ATOM      9  H   UNL     1      -0.046   3.281  21.202  0.00  0.00    +0.000 HD
ATOM     10  H   UNL     1       1.036   1.880  21.376  0.00  0.00    +0.000 HD
ATOM     11  H   UNL     1       5.438   1.998  19.727  0.00  0.00    +0.000 HD
ATOM     12  H   UNL     1       6.181   3.418  18.998  0.00  0.00    +0.000 HD
ENDROOT
BRANCH   1  14
ATOM     13  C   UNL     1       1.953   7.869  20.028  0.00  0.00    +0.000 C 
ATOM     14  C   UNL     1       2.239   6.940  18.846  0.00  0.00    +0.000 C 
ENDBRANCH   1  14
BRANCH   8  15
ATOM     15  C   UNL     1       4.979   5.758  18.346  0.00  0.00    +0.000 C 
BRANCH  15  16
ATOM     16  C   UNL     1       5.062   5.546  16.821  0.00  0.00    +0.000 C 
BRANCH  16  17
ATOM     17  C   UNL     1       6.492   5.140  16.466  0.00  0.00    +0.000 C 
BRANCH  17  18
ATOM     18  O   UNL     1       6.837   5.556  15.195  0.00  0.00    +0.000 OA
BRANCH  18  19
ATOM     19  C   UNL     1       6.616   4.825  14.069  0.00  0.00    +0.000 A 
ATOM     20  C   UNL     1       5.488   3.983  13.935  0.00  0.00    +0.000 A 
ATOM     21  C   UNL     1       5.281   3.253  12.764  0.00  0.00    +0.000 A 
ATOM     22  C   UNL     1       6.190   3.349  11.711  0.00  0.00    +0.000 A 
ATOM     23  C   UNL     1       7.311   4.174  11.829  0.00  0.00    +0.000 A 
ATOM     24  C   UNL     1       7.528   4.909  13.001  0.00  0.00    +0.000 A 
ATOM     25 CL   UNL     1       8.946   5.941  13.116  0.00  0.00    +0.000 Cl
ENDBRANCH  18  19
ENDBRANCH  17  18
ENDBRANCH  16  17
ENDBRANCH  15  16
ENDBRANCH   8  15
TORSDOF 6
ENDMDL
MODEL 9
REMARK VINA RESULT:      -6.6      3.548      6.412
REMARK  Name = 
REMARK  7 active torsions:
REMARK  status: ('A' for Active; 'I' for Inactive)
REMARK    1  A    between atoms: C_1  and  C_2
REMARK    2  A    between atoms: C_2  and  C_3
REMARK    3  A    between atoms: C_10  and  C_11
REMARK    4  A    between atoms: C_11  and  C_12
REMARK    5  A    between atoms: C_12  and  C_13
REMARK    6  A    between atoms: C_13  and  O_14
REMARK    7  A    between atoms: O_14  and  C_15
REMARK                            x       y       z     vdW  Elec       q    Type
REMARK                         _______ _______ _______ _____ _____    ______ ____
ROOT
ATOM      1  C   UNL     1       2.416   4.079  18.755  0.00  0.00    +0.000 A 
ATOM      2  N   UNL     1       2.462   3.180  19.773  0.00  0.00    +0.000 NA
ATOM      3  C   UNL     1       2.268   3.538  21.059  0.00  0.00    +0.000 A 
ATOM      4  N   UNL     1       2.298   2.557  22.072  0.00  0.00    +0.000 N 
ATOM      5  N   UNL     1       2.021   4.833  21.366  0.00  0.00    +0.000 NA
ATOM      6  C   UNL     1       1.956   5.798  20.410  0.00  0.00    +0.000 A 
ATOM      7  N   UNL     1       1.642   7.117  20.829  0.00  0.00    +0.000 N 
ATOM      8  C   UNL     1       2.159   5.449  19.045  0.00  0.00    +0.000 A 
ATOM      9  H   UNL     1       2.462   1.568  21.828  0.00  0.00    +0.000 HD
ATOM     10  H   UNL     1       2.131   2.813  23.055  0.00  0.00    +0.000 HD
ATOM     11  H   UNL     1       1.511   7.311  21.833  0.00  0.00    +0.000 HD
ATOM     12  H   UNL     1       1.482   7.887  20.170  0.00  0.00    +0.000 HD
ENDROOT
BRANCH   1  14
ATOM     13  C   UNL     1       3.982   2.882  17.146  0.00  0.00    +0.000 C 
ATOM     14  C   UNL     1       2.628   3.568  17.342  0.00  0.00    +0.000 C 
ENDBRANCH   1  14
BRANCH   8  15
ATOM     15  C   UNL     1       2.070   6.483  17.927  0.00  0.00    +0.000 C 
BRANCH  15  16
ATOM     16  C   UNL     1       3.145   7.587  17.992  0.00  0.00    +0.000 C 
BRANCH  16  17
ATOM     17  C   UNL     1       4.484   6.940  18.341  0.00  0.00    +0.000 C 
BRANCH  17  18
ATOM     18  O   UNL     1       5.406   7.104  17.326  0.00  0.00    +0.000 OA
BRANCH  18  19
ATOM     19  C   UNL     1       5.806   6.105  16.492  0.00  0.00    +0.000 A 
ATOM     20  C   UNL     1       5.167   5.864  15.254  0.00  0.00    +0.000 A 
ATOM     21  C   UNL     1       5.605   4.839  14.416  0.00  0.00    +0.000 A 
ATOM     22  C   UNL     1       6.683   4.039  14.794  0.00  0.00    +0.000 A 
ATOM     23  C   UNL     1       7.323   4.262  16.015  0.00  0.00    +0.000 A 
ATOM     24  C   UNL     1       6.888   5.288  16.865  0.00  0.00    +0.000 A 
ATOM     25 CL   UNL     1       7.718   5.544  18.393  0.00  0.00    +0.000 Cl
ENDBRANCH  18  19
ENDBRANCH  17  18
ENDBRANCH  16  17
ENDBRANCH  15  16
ENDBRANCH   8  15
TORSDOF 6
ENDMDL
