MODEL 1
REMARK VINA RESULT:      -6.8      0.000      0.000
REMARK  Name = 
REMARK  8 active torsions:
REMARK  status: ('A' for Active; 'I' for Inactive)
REMARK    1  A    between atoms: C_1  and  C_2
REMARK    2  A    between atoms: C_2  and  C_3
REMARK    3  A    between atoms: C_7  and  O_8
REMARK    4  A    between atoms: C_13  and  C_14
REMARK    5  A    between atoms: C_18  and  C_20
REMARK    6  A    between atoms: C_23  and  N_24
REMARK    7  A    between atoms: N_24  and  S_25
REMARK    8  A    between atoms: S_25  and  C_28
REMARK                            x       y       z     vdW  Elec       q    Type
REMARK                         _______ _______ _______ _____ _____    ______ ____
ROOT
ATOM      1  C   UNL     1       3.984   1.201  19.273  0.00  0.00    +0.000 C 
ATOM      2  C   UNL     1       3.073   2.387  18.856  0.00  0.00    +0.000 C 
ATOM      3  C   UNL     1       1.639   1.761  19.000  0.00  0.00    +0.000 C 
ATOM      4  C   UNL     1       3.118   3.646  19.777  0.00  0.00    +0.000 C 
ATOM      5  C   UNL     1       4.617   3.998  19.980  0.00  0.00    +0.000 C 
ATOM      6  C   UNL     1       5.169   4.554  18.693  0.00  0.00    +0.000 A 
ATOM      7  C   UNL     1       6.111   5.598  18.700  0.00  0.00    +0.000 A 
ATOM      8  C   UNL     1       6.355   6.350  17.558  0.00  0.00    +0.000 A 
ATOM      9  C   UNL     1       5.694   6.037  16.379  0.00  0.00    +0.000 A 
ATOM     10  C   UNL     1       4.847   4.926  16.328  0.00  0.00    +0.000 A 
ATOM     11  C   UNL     1       4.572   4.146  17.476  0.00  0.00    +0.000 A 
ATOM     12  C   UNL     1       3.487   2.996  17.426  0.00  0.00    +0.000 C 
ATOM     13  C   UNL     1       4.052   1.933  16.463  0.00  0.00    +0.000 C 
ATOM     14  C   UNL     1       2.190   3.622  16.878  0.00  0.00    +0.000 C 
ATOM     15  C   UNL     1       1.530   4.539  17.917  0.00  0.00    +0.000 C 
ATOM     16  N   UNL     1       2.333   4.805  19.134  0.00  0.00    +0.000 N 
ATOM     17  C   UNL     1       2.379   6.079  19.718  0.00  0.00    +0.000 C 
ATOM     18  O   UNL     1       2.896   6.268  20.821  0.00  0.00    +0.000 OA
ENDROOT
BRANCH  17  19
ATOM     19  C   UNL     1       1.846   7.263  18.887  0.00  0.00    +0.000 C 
ATOM     20  C   UNL     1       2.915   7.744  17.909  0.00  0.00    +0.000 C 
ATOM     21  C   UNL     1       2.638   9.211  17.633  0.00  0.00    +0.000 C 
ATOM     22  C   UNL     1       1.653   9.690  18.693  0.00  0.00    +0.000 C 
ATOM     23  C   UNL     1       1.538   8.527  19.692  0.00  0.00    +0.000 C 
BRANCH  22  24
ATOM     24  N   UNL     1       0.322   9.999  18.113  0.00  0.00    +0.000 NA
ATOM     25  H   UNL     1      -0.292   9.191  17.983  0.00  0.00    +0.000 HD
BRANCH  24  26
ATOM     26  S   UNL     1      -0.591  11.271  18.781  0.00  0.00    +0.000 S 
ATOM     27  O   UNL     1      -0.912  10.856  20.128  0.00  0.00    +0.000 OA
ATOM     28  O   UNL     1       0.092  12.511  18.501  0.00  0.00    +0.000 OA
BRANCH  26  29
ATOM     29  C   UNL     1      -2.090  11.221  17.860  0.00  0.00    +0.000 A 
ATOM     30  C   UNL     1      -2.174  10.572  16.640  0.00  0.00    +0.000 A 
ATOM     31  C   UNL     1      -3.411  10.473  16.008  0.00  0.00    +0.000 A 
ATOM     32  C   UNL     1      -4.515  11.064  16.629  0.00  0.00    +0.000 A 
ATOM     33  N   UNL     1      -4.445  11.718  17.806  0.00  0.00    +0.000 NA
ATOM     34  C   UNL     1      -3.229  11.791  18.398  0.00  0.00    +0.000 A 
ENDBRANCH  26  29
ENDBRANCH  24  26
ENDBRANCH  22  24
ENDBRANCH  17  19
BRANCH   7  35
ATOM     35  O   UNL     1       6.782   5.999  19.821  0.00  0.00    +0.000 OA
ATOM     36  H   UNL     1       6.264   5.773  20.607  0.00  0.00    +0.000 HD
ENDBRANCH   7  35
TORSDOF 5
ENDMDL
MODEL 2
REMARK VINA RESULT:      -6.7      4.588     11.616
REMARK  Name = 
REMARK  8 active torsions:
REMARK  status: ('A' for Active; 'I' for Inactive)
REMARK    1  A    between atoms: C_1  and  C_2
REMARK    2  A    between atoms: C_2  and  C_3
REMARK    3  A    between atoms: C_7  and  O_8
REMARK    4  A    between atoms: C_13  and  C_14
REMARK    5  A    between atoms: C_18  and  C_20
REMARK    6  A    between atoms: C_23  and  N_24
REMARK    7  A    between atoms: N_24  and  S_25
REMARK    8  A    between atoms: S_25  and  C_28
REMARK                            x       y       z     vdW  Elec       q    Type
REMARK                         _______ _______ _______ _____ _____    ______ ____
ROOT
ATOM      1  C   UNL     1      -6.999  16.517  21.191  0.00  0.00    +0.000 C 
ATOM      2  C   UNL     1      -6.151  15.263  20.847  0.00  0.00    +0.000 C 
ATOM      3  C   UNL     1      -6.575  14.983  19.360  0.00  0.00    +0.000 C 
ATOM      4  C   UNL     1      -4.603  15.457  20.853  0.00  0.00    +0.000 C 
ATOM      5  C   UNL     1      -4.245  16.154  22.194  0.00  0.00    +0.000 C 
ATOM      6  C   UNL     1      -4.424  15.171  23.322  0.00  0.00    +0.000 A 
ATOM      7  C   UNL     1      -3.546  15.162  24.420  0.00  0.00    +0.000 A 
ATOM      8  C   UNL     1      -3.473  14.064  25.269  0.00  0.00    +0.000 A 
ATOM      9  C   UNL     1      -4.311  12.979  25.057  0.00  0.00    +0.000 A 
ATOM     10  C   UNL     1      -5.271  13.027  24.042  0.00  0.00    +0.000 A 
ATOM     11  C   UNL     1      -5.364  14.126  23.157  0.00  0.00    +0.000 A 
ATOM     12  C   UNL     1      -6.350  14.082  21.920  0.00  0.00    +0.000 C 
ATOM     13  C   UNL     1      -7.769  14.053  22.521  0.00  0.00    +0.000 C 
ATOM     14  C   UNL     1      -6.039  12.790  21.142  0.00  0.00    +0.000 C 
ATOM     15  C   UNL     1      -4.705  12.898  20.390  0.00  0.00    +0.000 C 
ATOM     16  N   UNL     1      -3.894  14.098  20.701  0.00  0.00    +0.000 N 
ATOM     17  C   UNL     1      -2.500  14.025  20.842  0.00  0.00    +0.000 C 
ATOM     18  O   UNL     1      -1.803  15.038  20.923  0.00  0.00    +0.000 OA
ENDROOT
BRANCH  17  19
ATOM     19  C   UNL     1      -1.872  12.625  20.991  0.00  0.00    +0.000 C 
ATOM     20  C   UNL     1      -2.007  12.138  22.432  0.00  0.00    +0.000 C 
ATOM     21  C   UNL     1      -0.869  11.165  22.681  0.00  0.00    +0.000 C 
ATOM     22  C   UNL     1       0.130  11.341  21.543  0.00  0.00    +0.000 C 
ATOM     23  C   UNL     1      -0.362  12.569  20.761  0.00  0.00    +0.000 C 
BRANCH  22  24
ATOM     24  N   UNL     1       0.171  10.152  20.655  0.00  0.00    +0.000 NA
ATOM     25  H   UNL     1       0.628  10.302  19.752  0.00  0.00    +0.000 HD
BRANCH  24  26
ATOM     26  S   UNL     1       0.707   8.667  21.293  0.00  0.00    +0.000 S 
ATOM     27  O   UNL     1       1.659   9.006  22.327  0.00  0.00    +0.000 OA
ATOM     28  O   UNL     1      -0.450   7.845  21.555  0.00  0.00    +0.000 OA
BRANCH  26  29
ATOM     29  C   UNL     1       1.623   7.962  19.966  0.00  0.00    +0.000 A 
ATOM     30  C   UNL     1       1.848   8.655  18.788  0.00  0.00    +0.000 A 
ATOM     31  C   UNL     1       2.669   8.090  17.815  0.00  0.00    +0.000 A 
ATOM     32  C   UNL     1       3.210   6.826  18.067  0.00  0.00    +0.000 A 
ATOM     33  N   UNL     1       2.982   6.130  19.198  0.00  0.00    +0.000 NA
ATOM     34  C   UNL     1       2.185   6.710  20.127  0.00  0.00    +0.000 A 
ENDBRANCH  26  29
ENDBRANCH  24  26
ENDBRANCH  22  24
ENDBRANCH  17  19
BRANCH   7  35
ATOM     35  O   UNL     1      -2.661  16.169  24.686  0.00  0.00    +0.000 OA
ATOM     36  H   UNL     1      -2.937  16.638  25.487  0.00  0.00    +0.000 HD
ENDBRANCH   7  35
TORSDOF 5
ENDMDL
MODEL 3
REMARK VINA RESULT:      -6.6      6.381      8.735
REMARK  Name = 
REMARK  8 active torsions:
REMARK  status: ('A' for Active; 'I' for Inactive)
REMARK    1  A    between atoms: C_1  and  C_2
REMARK    2  A    between atoms: C_2  and  C_3
REMARK    3  A    between atoms: C_7  and  O_8
REMARK    4  A    between atoms: C_13  and  C_14
REMARK    5  A    between atoms: C_18  and  C_20
REMARK    6  A    between atoms: C_23  and  N_24
REMARK    7  A    between atoms: N_24  and  S_25
REMARK    8  A    between atoms: S_25  and  C_28
REMARK                            x       y       z     vdW  Elec       q    Type
REMARK                         _______ _______ _______ _____ _____    ______ ____
ROOT
ATOM      1  C   UNL     1       2.937  14.133  20.614  0.00  0.00    +0.000 C 
ATOM      2  C   UNL     1       1.735  13.724  19.722  0.00  0.00    +0.000 C 
ATOM      3  C   UNL     1       2.235  14.138  18.291  0.00  0.00    +0.000 C 
ATOM      4  C   UNL     1       1.405  12.199  19.669  0.00  0.00    +0.000 C 
ATOM      5  C   UNL     1       1.342  11.704  21.139  0.00  0.00    +0.000 C 
ATOM      6  C   UNL     1       0.098  12.252  21.788  0.00  0.00    +0.000 A 
ATOM      7  C   UNL     1      -0.637  11.484  22.708  0.00  0.00    +0.000 A 
ATOM      8  C   UNL     1      -1.946  11.817  23.036  0.00  0.00    +0.000 A 
ATOM      9  C   UNL     1      -2.522  12.950  22.481  0.00  0.00    +0.000 A 
ATOM     10  C   UNL     1      -1.762  13.788  21.660  0.00  0.00    +0.000 A 
ATOM     11  C   UNL     1      -0.430  13.472  21.302  0.00  0.00    +0.000 A 
ATOM     12  C   UNL     1       0.350  14.353  20.244  0.00  0.00    +0.000 C 
ATOM     13  C   UNL     1       0.531  15.733  20.906  0.00  0.00    +0.000 C 
ATOM     14  C   UNL     1      -0.538  14.440  18.988  0.00  0.00    +0.000 C 
ATOM     15  C   UNL     1      -0.564  13.107  18.228  0.00  0.00    +0.000 C 
ATOM     16  N   UNL     1       0.079  11.965  18.921  0.00  0.00    +0.000 N 
ATOM     17  C   UNL     1      -0.485  10.681  18.897  0.00  0.00    +0.000 C 
ATOM     18  O   UNL     1       0.127   9.697  19.316  0.00  0.00    +0.000 OA
ENDROOT
BRANCH  17  19
ATOM     19  C   UNL     1      -1.944  10.553  18.416  0.00  0.00    +0.000 C 
ATOM     20  C   UNL     1      -2.002  10.610  16.891  0.00  0.00    +0.000 C 
ATOM     21  C   UNL     1      -3.374  11.141  16.518  0.00  0.00    +0.000 C 
ATOM     22  C   UNL     1      -3.989  11.728  17.783  0.00  0.00    +0.000 C 
ATOM     23  C   UNL     1      -2.861  11.705  18.828  0.00  0.00    +0.000 C 
BRANCH  22  24
ATOM     24  N   UNL     1      -5.144  10.927  18.261  0.00  0.00    +0.000 NA
ATOM     25  H   UNL     1      -4.904  10.015  18.659  0.00  0.00    +0.000 HD
BRANCH  24  26
ATOM     26  S   UNL     1      -6.300  11.669  19.267  0.00  0.00    +0.000 S 
ATOM     27  O   UNL     1      -7.480  10.839  19.185  0.00  0.00    +0.000 OA
ATOM     28  O   UNL     1      -5.667  11.982  20.526  0.00  0.00    +0.000 OA
BRANCH  26  29
ATOM     29  C   UNL     1      -6.670  13.167  18.422  0.00  0.00    +0.000 A 
ATOM     30  C   UNL     1      -6.459  14.405  19.007  0.00  0.00    +0.000 A 
ATOM     31  C   UNL     1      -6.668  15.557  18.253  0.00  0.00    +0.000 A 
ATOM     32  C   UNL     1      -7.113  15.407  16.936  0.00  0.00    +0.000 A 
ATOM     33  N   UNL     1      -7.344  14.211  16.360  0.00  0.00    +0.000 NA
ATOM     34  C   UNL     1      -7.125  13.110  17.118  0.00  0.00    +0.000 A 
ENDBRANCH  26  29
ENDBRANCH  24  26
ENDBRANCH  22  24
ENDBRANCH  17  19
BRANCH   7  35
ATOM     35  O   UNL     1      -0.165  10.334  23.277  0.00  0.00    +0.000 OA
ATOM     36  H   UNL     1       0.487   9.926  22.688  0.00  0.00    +0.000 HD
ENDBRANCH   7  35
TORSDOF 5
ENDMDL
MODEL 4
REMARK VINA RESULT:      -6.5      6.340      8.645
REMARK  Name = 
REMARK  8 active torsions:
REMARK  status: ('A' for Active; 'I' for Inactive)
REMARK    1  A    between atoms: C_1  and  C_2
REMARK    2  A    between atoms: C_2  and  C_3
REMARK    3  A    between atoms: C_7  and  O_8
REMARK    4  A    between atoms: C_13  and  C_14
REMARK    5  A    between atoms: C_18  and  C_20
REMARK    6  A    between atoms: C_23  and  N_24
REMARK    7  A    between atoms: N_24  and  S_25
REMARK    8  A    between atoms: S_25  and  C_28
REMARK                            x       y       z     vdW  Elec       q    Type
REMARK                         _______ _______ _______ _____ _____    ______ ____
ROOT
ATOM      1  C   UNL     1       3.325  13.805  20.385  0.00  0.00    +0.000 C 
ATOM      2  C   UNL     1       1.911  13.797  19.744  0.00  0.00    +0.000 C 
ATOM      3  C   UNL     1       2.096  14.785  18.536  0.00  0.00    +0.000 C 
ATOM      4  C   UNL     1       1.431  12.435  19.154  0.00  0.00    +0.000 C 
ATOM      5  C   UNL     1       1.671  11.363  20.252  0.00  0.00    +0.000 C 
ATOM      6  C   UNL     1       0.676  11.569  21.364  0.00  0.00    +0.000 A 
ATOM      7  C   UNL     1       0.109  10.474  22.040  0.00  0.00    +0.000 A 
ATOM      8  C   UNL     1      -1.045  10.620  22.799  0.00  0.00    +0.000 A 
ATOM      9  C   UNL     1      -1.623  11.875  22.930  0.00  0.00    +0.000 A 
ATOM     10  C   UNL     1      -1.002  12.991  22.362  0.00  0.00    +0.000 A 
ATOM     11  C   UNL     1       0.169  12.873  21.577  0.00  0.00    +0.000 A 
ATOM     12  C   UNL     1       0.758  14.128  20.816  0.00  0.00    +0.000 C 
ATOM     13  C   UNL     1       1.225  15.101  21.917  0.00  0.00    +0.000 C 
ATOM     14  C   UNL     1      -0.390  14.728  19.981  0.00  0.00    +0.000 C 
ATOM     15  C   UNL     1      -0.725  13.842  18.774  0.00  0.00    +0.000 C 
ATOM     16  N   UNL     1      -0.051  12.523  18.744  0.00  0.00    +0.000 N 
ATOM     17  C   UNL     1      -0.727  11.363  18.339  0.00  0.00    +0.000 C 
ATOM     18  O   UNL     1      -0.132  10.302  18.142  0.00  0.00    +0.000 OA
ENDROOT
BRANCH  17  19
ATOM     19  C   UNL     1      -2.264  11.432  18.239  0.00  0.00    +0.000 C 
ATOM     20  C   UNL     1      -2.878  10.087  18.624  0.00  0.00    +0.000 C 
ATOM     21  C   UNL     1      -4.211   9.986  17.906  0.00  0.00    +0.000 C 
ATOM     22  C   UNL     1      -4.230  11.072  16.837  0.00  0.00    +0.000 C 
ATOM     23  C   UNL     1      -2.808  11.654  16.827  0.00  0.00    +0.000 C 
BRANCH  22  24
ATOM     24  N   UNL     1      -5.216  12.137  17.149  0.00  0.00    +0.000 NA
ATOM     25  H   UNL     1      -5.581  12.641  16.337  0.00  0.00    +0.000 HD
BRANCH  24  26
ATOM     26  S   UNL     1      -6.515  11.777  18.190  0.00  0.00    +0.000 S 
ATOM     27  O   UNL     1      -7.566  12.705  17.839  0.00  0.00    +0.000 OA
ATOM     28  O   UNL     1      -6.716  10.348  18.182  0.00  0.00    +0.000 OA
BRANCH  26  29
ATOM     29  C   UNL     1      -5.913  12.262  19.771  0.00  0.00    +0.000 A 
ATOM     30  C   UNL     1      -4.806  13.083  19.908  0.00  0.00    +0.000 A 
ATOM     31  C   UNL     1      -4.439  13.522  21.178  0.00  0.00    +0.000 A 
ATOM     32  C   UNL     1      -5.199  13.085  22.268  0.00  0.00    +0.000 A 
ATOM     33  N   UNL     1      -6.265  12.268  22.152  0.00  0.00    +0.000 NA
ATOM     34  C   UNL     1      -6.599  11.865  20.903  0.00  0.00    +0.000 A 
ENDBRANCH  26  29
ENDBRANCH  24  26
ENDBRANCH  22  24
ENDBRANCH  17  19
BRANCH   7  35
ATOM     35  O   UNL     1       0.588   9.197  21.942  0.00  0.00    +0.000 OA
ATOM     36  H   UNL     1       0.533   8.901  21.022  0.00  0.00    +0.000 HD
ENDBRANCH   7  35
TORSDOF 5
ENDMDL
MODEL 5
REMARK VINA RESULT:      -6.4      8.483     10.474
REMARK  Name = 
REMARK  8 active torsions:
REMARK  status: ('A' for Active; 'I' for Inactive)
REMARK    1  A    between atoms: C_1  and  C_2
REMARK    2  A    between atoms: C_2  and  C_3
REMARK    3  A    between atoms: C_7  and  O_8
REMARK    4  A    between atoms: C_13  and  C_14
REMARK    5  A    between atoms: C_18  and  C_20
REMARK    6  A    between atoms: C_23  and  N_24
REMARK    7  A    between atoms: N_24  and  S_25
REMARK    8  A    between atoms: S_25  and  C_28
REMARK                            x       y       z     vdW  Elec       q    Type
REMARK                         _______ _______ _______ _____ _____    ______ ____
ROOT
ATOM      1  C   UNL     1      11.625  11.804  19.905  0.00  0.00    +0.000 C 
ATOM      2  C   UNL     1      10.384  12.590  19.401  0.00  0.00    +0.000 C 
ATOM      3  C   UNL     1       9.702  11.542  18.448  0.00  0.00    +0.000 C 
ATOM      4  C   UNL     1       9.330  12.979  20.484  0.00  0.00    +0.000 C 
ATOM      5  C   UNL     1      10.111  13.646  21.649  0.00  0.00    +0.000 C 
ATOM      6  C   UNL     1      10.593  15.003  21.204  0.00  0.00    +0.000 A 
ATOM      7  C   UNL     1      10.615  16.091  22.094  0.00  0.00    +0.000 A 
ATOM      8  C   UNL     1      10.708  17.396  21.628  0.00  0.00    +0.000 A 
ATOM      9  C   UNL     1      10.825  17.629  20.265  0.00  0.00    +0.000 A 
ATOM     10  C   UNL     1      10.926  16.551  19.380  0.00  0.00    +0.000 A 
ATOM     11  C   UNL     1      10.827  15.211  19.823  0.00  0.00    +0.000 A 
ATOM     12  C   UNL     1      10.782  14.020  18.783  0.00  0.00    +0.000 C 
ATOM     13  C   UNL     1      12.163  14.014  18.099  0.00  0.00    +0.000 C 
ATOM     14  C   UNL     1       9.656  14.339  17.781  0.00  0.00    +0.000 C 
ATOM     15  C   UNL     1       8.272  14.161  18.420  0.00  0.00    +0.000 C 
ATOM     16  N   UNL     1       8.271  13.922  19.883  0.00  0.00    +0.000 N 
ATOM     17  C   UNL     1       7.321  14.522  20.723  0.00  0.00    +0.000 C 
ATOM     18  O   UNL     1       7.202  14.193  21.905  0.00  0.00    +0.000 OA
ENDROOT
BRANCH  17  19
ATOM     19  C   UNL     1       6.489  15.683  20.143  0.00  0.00    +0.000 C 
ATOM     20  C   UNL     1       6.468  16.855  21.121  0.00  0.00    +0.000 C 
ATOM     21  C   UNL     1       5.188  17.628  20.861  0.00  0.00    +0.000 C 
ATOM     22  C   UNL     1       4.293  16.741  20.004  0.00  0.00    +0.000 C 
ATOM     23  C   UNL     1       5.002  15.378  19.957  0.00  0.00    +0.000 C 
BRANCH  22  24
ATOM     24  N   UNL     1       4.131  17.280  18.630  0.00  0.00    +0.000 NA
ATOM     25  H   UNL     1       4.999  17.380  18.099  0.00  0.00    +0.000 HD
BRANCH  24  26
ATOM     26  S   UNL     1       2.948  16.597  17.613  0.00  0.00    +0.000 S 
ATOM     27  O   UNL     1       2.550  17.655  16.712  0.00  0.00    +0.000 OA
ATOM     28  O   UNL     1       3.442  15.328  17.137  0.00  0.00    +0.000 OA
BRANCH  26  29
ATOM     29  C   UNL     1       1.593  16.315  18.699  0.00  0.00    +0.000 A 
ATOM     30  C   UNL     1       1.257  15.042  19.129  0.00  0.00    +0.000 A 
ATOM     31  C   UNL     1       0.243  14.889  20.072  0.00  0.00    +0.000 A 
ATOM     32  C   UNL     1      -0.412  16.039  20.522  0.00  0.00    +0.000 A 
ATOM     33  N   UNL     1      -0.112  17.282  20.096  0.00  0.00    +0.000 NA
ATOM     34  C   UNL     1       0.883  17.397  19.185  0.00  0.00    +0.000 A 
ENDBRANCH  26  29
ENDBRANCH  24  26
ENDBRANCH  22  24
ENDBRANCH  17  19
BRANCH   7  35
ATOM     35  O   UNL     1      10.470  15.960  23.447  0.00  0.00    +0.000 OA
ATOM     36  H   UNL     1      10.551  16.829  23.866  0.00  0.00    +0.000 HD
ENDBRANCH   7  35
TORSDOF 5
ENDMDL
MODEL 6
REMARK VINA RESULT:      -6.4      1.965      2.596
REMARK  Name = 
REMARK  8 active torsions:
REMARK  status: ('A' for Active; 'I' for Inactive)
REMARK    1  A    between atoms: C_1  and  C_2
REMARK    2  A    between atoms: C_2  and  C_3
REMARK    3  A    between atoms: C_7  and  O_8
REMARK    4  A    between atoms: C_13  and  C_14
REMARK    5  A    between atoms: C_18  and  C_20
REMARK    6  A    between atoms: C_23  and  N_24
REMARK    7  A    between atoms: N_24  and  S_25
REMARK    8  A    between atoms: S_25  and  C_28
REMARK                            x       y       z     vdW  Elec       q    Type
REMARK                         _______ _______ _______ _____ _____    ______ ____
ROOT
ATOM      1  C   UNL     1       4.012   1.243  19.533  0.00  0.00    +0.000 C 
ATOM      2  C   UNL     1       3.102   2.408  19.060  0.00  0.00    +0.000 C 
ATOM      3  C   UNL     1       1.666   1.806  19.272  0.00  0.00    +0.000 C 
ATOM      4  C   UNL     1       3.176   3.722  19.899  0.00  0.00    +0.000 C 
ATOM      5  C   UNL     1       4.681   4.073  20.049  0.00  0.00    +0.000 C 
ATOM      6  C   UNL     1       5.211   4.541  18.719  0.00  0.00    +0.000 A 
ATOM      7  C   UNL     1       6.161   5.575  18.642  0.00  0.00    +0.000 A 
ATOM      8  C   UNL     1       6.388   6.251  17.450  0.00  0.00    +0.000 A 
ATOM      9  C   UNL     1       5.701   5.871  16.306  0.00  0.00    +0.000 A 
ATOM     10  C   UNL     1       4.844   4.767  16.342  0.00  0.00    +0.000 A 
ATOM     11  C   UNL     1       4.586   4.063  17.542  0.00  0.00    +0.000 A 
ATOM     12  C   UNL     1       3.492   2.922  17.587  0.00  0.00    +0.000 C 
ATOM     13  C   UNL     1       4.029   1.796  16.682  0.00  0.00    +0.000 C 
ATOM     14  C   UNL     1       2.189   3.525  17.026  0.00  0.00    +0.000 C 
ATOM     15  C   UNL     1       1.557   4.511  18.018  0.00  0.00    +0.000 C 
ATOM     16  N   UNL     1       2.387   4.846  19.200  0.00  0.00    +0.000 N 
ATOM     17  C   UNL     1       2.455   6.154  19.701  0.00  0.00    +0.000 C 
ATOM     18  O   UNL     1       2.995   6.407  20.779  0.00  0.00    +0.000 OA
ENDROOT
BRANCH  17  19
ATOM     19  C   UNL     1       1.914   7.288  18.808  0.00  0.00    +0.000 C 
ATOM     20  C   UNL     1       2.996   7.754  17.836  0.00  0.00    +0.000 C 
ATOM     21  C   UNL     1       2.691   9.200  17.490  0.00  0.00    +0.000 C 
ATOM     22  C   UNL     1       1.668   9.699  18.505  0.00  0.00    +0.000 C 
ATOM     23  C   UNL     1       1.556   8.577  19.550  0.00  0.00    +0.000 C 
BRANCH  22  24
ATOM     24  N   UNL     1       0.345   9.949  17.880  0.00  0.00    +0.000 NA
ATOM     25  H   UNL     1      -0.173   9.109  17.611  0.00  0.00    +0.000 HD
BRANCH  24  26
ATOM     26  S   UNL     1      -0.731  11.029  18.639  0.00  0.00    +0.000 S 
ATOM     27  O   UNL     1      -1.458  11.672  17.568  0.00  0.00    +0.000 OA
ATOM     28  O   UNL     1      -1.399  10.324  19.706  0.00  0.00    +0.000 OA
BRANCH  26  29
ATOM     29  C   UNL     1       0.336  12.244  19.333  0.00  0.00    +0.000 A 
ATOM     30  C   UNL     1       0.873  13.265  18.567  0.00  0.00    +0.000 A 
ATOM     31  C   UNL     1       1.623  14.259  19.191  0.00  0.00    +0.000 A 
ATOM     32  C   UNL     1       1.823  14.161  20.571  0.00  0.00    +0.000 A 
ATOM     33  N   UNL     1       1.325  13.162  21.326  0.00  0.00    +0.000 NA
ATOM     34  C   UNL     1       0.595  12.215  20.691  0.00  0.00    +0.000 A 
ENDBRANCH  26  29
ENDBRANCH  24  26
ENDBRANCH  22  24
ENDBRANCH  17  19
BRANCH   7  35
ATOM     35  O   UNL     1       6.859   6.040  19.722  0.00  0.00    +0.000 OA
ATOM     36  H   UNL     1       6.395   6.799  20.103  0.00  0.00    +0.000 HD
ENDBRANCH   7  35
TORSDOF 5
ENDMDL
MODEL 7
REMARK VINA RESULT:      -6.3      6.095      8.846
REMARK  Name = 
REMARK  8 active torsions:
REMARK  status: ('A' for Active; 'I' for Inactive)
REMARK    1  A    between atoms: C_1  and  C_2
REMARK    2  A    between atoms: C_2  and  C_3
REMARK    3  A    between atoms: C_7  and  O_8
REMARK    4  A    between atoms: C_13  and  C_14
REMARK    5  A    between atoms: C_18  and  C_20
REMARK    6  A    between atoms: C_23  and  N_24
REMARK    7  A    between atoms: N_24  and  S_25
REMARK    8  A    between atoms: S_25  and  C_28
REMARK                            x       y       z     vdW  Elec       q    Type
REMARK                         _______ _______ _______ _____ _____    ______ ____
ROOT
ATOM      1  C   UNL     1       2.866  13.655  19.831  0.00  0.00    +0.000 C 
ATOM      2  C   UNL     1       1.349  13.604  19.506  0.00  0.00    +0.000 C 
ATOM      3  C   UNL     1       1.211  14.733  18.421  0.00  0.00    +0.000 C 
ATOM      4  C   UNL     1       0.828  12.282  18.860  0.00  0.00    +0.000 C 
ATOM      5  C   UNL     1       1.360  11.116  19.738  0.00  0.00    +0.000 C 
ATOM      6  C   UNL     1       0.622  11.114  21.051  0.00  0.00    +0.000 A 
ATOM      7  C   UNL     1       0.277   9.908  21.686  0.00  0.00    +0.000 A 
ATOM      8  C   UNL     1      -0.690   9.874  22.683  0.00  0.00    +0.000 A 
ATOM      9  C   UNL     1      -1.294  11.055  23.090  0.00  0.00    +0.000 A 
ATOM     10  C   UNL     1      -0.874  12.275  22.552  0.00  0.00    +0.000 A 
ATOM     11  C   UNL     1       0.102  12.341  21.530  0.00  0.00    +0.000 A 
ATOM     12  C   UNL     1       0.441  13.718  20.828  0.00  0.00    +0.000 C 
ATOM     13  C   UNL     1       1.082  14.595  21.921  0.00  0.00    +0.000 C 
ATOM     14  C   UNL     1      -0.893  14.312  20.337  0.00  0.00    +0.000 C 
ATOM     15  C   UNL     1      -1.434  13.544  19.123  0.00  0.00    +0.000 C 
ATOM     16  N   UNL     1      -0.711  12.295  18.786  0.00  0.00    +0.000 N 
ATOM     17  C   UNL     1      -1.394  11.137  18.386  0.00  0.00    +0.000 C 
ATOM     18  O   UNL     1      -0.798  10.156  17.936  0.00  0.00    +0.000 OA
ENDROOT
BRANCH  17  19
ATOM     19  C   UNL     1      -2.917  11.092  18.621  0.00  0.00    +0.000 C 
ATOM     20  C   UNL     1      -3.659  11.377  17.317  0.00  0.00    +0.000 C 
ATOM     21  C   UNL     1      -5.006  11.966  17.692  0.00  0.00    +0.000 C 
ATOM     22  C   UNL     1      -4.931  12.362  19.162  0.00  0.00    +0.000 C 
ATOM     23  C   UNL     1      -3.456  12.176  19.555  0.00  0.00    +0.000 C 
BRANCH  22  24
ATOM     24  N   UNL     1      -5.798  11.507  20.011  0.00  0.00    +0.000 NA
ATOM     25  H   UNL     1      -5.308  10.776  20.532  0.00  0.00    +0.000 HD
BRANCH  24  26
ATOM     26  S   UNL     1      -6.923  12.251  21.049  0.00  0.00    +0.000 S 
ATOM     27  O   UNL     1      -7.747  13.082  20.201  0.00  0.00    +0.000 OA
ATOM     28  O   UNL     1      -7.484  11.236  21.908  0.00  0.00    +0.000 OA
BRANCH  26  29
ATOM     29  C   UNL     1      -5.929  13.335  22.015  0.00  0.00    +0.000 A 
ATOM     30  C   UNL     1      -4.958  12.857  22.879  0.00  0.00    +0.000 A 
ATOM     31  C   UNL     1      -4.129  13.762  23.537  0.00  0.00    +0.000 A 
ATOM     32  C   UNL     1      -4.338  15.126  23.312  0.00  0.00    +0.000 A 
ATOM     33  N   UNL     1      -5.292  15.607  22.491  0.00  0.00    +0.000 NA
ATOM     34  C   UNL     1      -6.077  14.701  21.862  0.00  0.00    +0.000 A 
ENDBRANCH  26  29
ENDBRANCH  24  26
ENDBRANCH  22  24
ENDBRANCH  17  19
BRANCH   7  35
ATOM     35  O   UNL     1       0.793   8.694  21.328  0.00  0.00    +0.000 OA
ATOM     36  H   UNL     1       0.547   8.030  21.989  0.00  0.00    +0.000 HD
ENDBRANCH   7  35
TORSDOF 5
ENDMDL
MODEL 8
REMARK VINA RESULT:      -6.3      7.197     10.662
REMARK  Name = 
REMARK  8 active torsions:
REMARK  status: ('A' for Active; 'I' for Inactive)
REMARK    1  A    between atoms: C_1  and  C_2
REMARK    2  A    between atoms: C_2  and  C_3
REMARK    3  A    between atoms: C_7  and  O_8
REMARK    4  A    between atoms: C_13  and  C_14
REMARK    5  A    between atoms: C_18  and  C_20
REMARK    6  A    between atoms: C_23  and  N_24
REMARK    7  A    between atoms: N_24  and  S_25
REMARK    8  A    between atoms: S_25  and  C_28
REMARK                            x       y       z     vdW  Elec       q    Type
REMARK                         _______ _______ _______ _____ _____    ______ ____
ROOT
ATOM      1  C   UNL     1      -2.036  16.923  24.711  0.00  0.00    +0.000 C 
ATOM      2  C   UNL     1      -1.554  16.087  23.495  0.00  0.00    +0.000 C 
ATOM      3  C   UNL     1      -0.122  16.683  23.239  0.00  0.00    +0.000 C 
ATOM      4  C   UNL     1      -1.376  14.556  23.740  0.00  0.00    +0.000 C 
ATOM      5  C   UNL     1      -2.682  14.057  24.414  0.00  0.00    +0.000 C 
ATOM      6  C   UNL     1      -3.794  14.065  23.397  0.00  0.00    +0.000 A 
ATOM      7  C   UNL     1      -4.775  13.059  23.389  0.00  0.00    +0.000 A 
ATOM      8  C   UNL     1      -5.576  12.848  22.274  0.00  0.00    +0.000 A 
ATOM      9  C   UNL     1      -5.437  13.673  21.167  0.00  0.00    +0.000 A 
ATOM     10  C   UNL     1      -4.550  14.752  21.208  0.00  0.00    +0.000 A 
ATOM     11  C   UNL     1      -3.715  14.987  22.326  0.00  0.00    +0.000 A 
ATOM     12  C   UNL     1      -2.608  16.117  22.281  0.00  0.00    +0.000 C 
ATOM     13  C   UNL     1      -3.378  17.449  22.189  0.00  0.00    +0.000 C 
ATOM     14  C   UNL     1      -1.760  15.866  21.020  0.00  0.00    +0.000 C 
ATOM     15  C   UNL     1      -0.853  14.639  21.191  0.00  0.00    +0.000 C 
ATOM     16  N   UNL     1      -1.097  13.832  22.410  0.00  0.00    +0.000 N 
ATOM     17  C   UNL     1      -1.064  12.430  22.379  0.00  0.00    +0.000 C 
ATOM     18  O   UNL     1      -1.089  11.758  23.412  0.00  0.00    +0.000 OA
ENDROOT
BRANCH  17  19
ATOM     19  C   UNL     1      -1.093  11.747  20.998  0.00  0.00    +0.000 C 
ATOM     20  C   UNL     1       0.182  12.072  20.222  0.00  0.00    +0.000 C 
ATOM     21  C   UNL     1      -0.160  11.978  18.746  0.00  0.00    +0.000 C 
ATOM     22  C   UNL     1      -1.679  11.956  18.636  0.00  0.00    +0.000 C 
ATOM     23  C   UNL     1      -2.191  12.245  20.057  0.00  0.00    +0.000 C 
BRANCH  22  24
ATOM     24  N   UNL     1      -2.181  10.639  18.171  0.00  0.00    +0.000 NA
ATOM     25  H   UNL     1      -2.620  10.063  18.893  0.00  0.00    +0.000 HD
BRANCH  24  26
ATOM     26  S   UNL     1      -3.144  10.575  16.768  0.00  0.00    +0.000 S 
ATOM     27  O   UNL     1      -2.649  11.624  15.906  0.00  0.00    +0.000 OA
ATOM     28  O   UNL     1      -3.222   9.200  16.337  0.00  0.00    +0.000 OA
BRANCH  26  29
ATOM     29  C   UNL     1      -4.727  11.088  17.339  0.00  0.00    +0.000 A 
ATOM     30  C   UNL     1      -5.382  10.426  18.364  0.00  0.00    +0.000 A 
ATOM     31  C   UNL     1      -6.583  10.940  18.846  0.00  0.00    +0.000 A 
ATOM     32  C   UNL     1      -7.088  12.098  18.248  0.00  0.00    +0.000 A 
ATOM     33  N   UNL     1      -6.474  12.742  17.235  0.00  0.00    +0.000 NA
ATOM     34  C   UNL     1      -5.305  12.220  16.794  0.00  0.00    +0.000 A 
ENDBRANCH  26  29
ENDBRANCH  24  26
ENDBRANCH  22  24
ENDBRANCH  17  19
BRANCH   7  35
ATOM     35  O   UNL     1      -4.960  12.178  24.418  0.00  0.00    +0.000 OA
ATOM     36  H   UNL     1      -5.685  11.574  24.200  0.00  0.00    +0.000 HD
ENDBRANCH   7  35
TORSDOF 5
ENDMDL
MODEL 9
REMARK VINA RESULT:      -6.3      3.415      9.765
REMARK  Name = 
REMARK  8 active torsions:
REMARK  status: ('A' for Active; 'I' for Inactive)
REMARK    1  A    between atoms: C_1  and  C_2
REMARK    2  A    between atoms: C_2  and  C_3
REMARK    3  A    between atoms: C_7  and  O_8
REMARK    4  A    between atoms: C_13  and  C_14
REMARK    5  A    between atoms: C_18  and  C_20
REMARK    6  A    between atoms: C_23  and  N_24
REMARK    7  A    between atoms: N_24  and  S_25
REMARK    8  A    between atoms: S_25  and  C_28
REMARK                            x       y       z     vdW  Elec       q    Type
REMARK                         _______ _______ _______ _____ _____    ______ ____
ROOT
ATOM      1  C   UNL     1      -0.039  16.151  21.351  0.00  0.00    +0.000 C 
ATOM      2  C   UNL     1       0.617  14.766  21.105  0.00  0.00    +0.000 C 
ATOM      3  C   UNL     1       2.074  14.996  21.649  0.00  0.00    +0.000 C 
ATOM      4  C   UNL     1       0.014  13.568  21.902  0.00  0.00    +0.000 C 
ATOM      5  C   UNL     1      -1.524  13.621  21.694  0.00  0.00    +0.000 C 
ATOM      6  C   UNL     1      -1.841  13.222  20.276  0.00  0.00    +0.000 A 
ATOM      7  C   UNL     1      -2.985  12.461  19.977  0.00  0.00    +0.000 A 
ATOM      8  C   UNL     1      -3.103  11.793  18.764  0.00  0.00    +0.000 A 
ATOM      9  C   UNL     1      -2.099  11.915  17.815  0.00  0.00    +0.000 A 
ATOM     10  C   UNL     1      -1.015  12.766  18.052  0.00  0.00    +0.000 A 
ATOM     11  C   UNL     1      -0.862  13.452  19.280  0.00  0.00    +0.000 A 
ATOM     12  C   UNL     1       0.452  14.279  19.581  0.00  0.00    +0.000 C 
ATOM     13  C   UNL     1       0.448  15.447  18.576  0.00  0.00    +0.000 C 
ATOM     14  C   UNL     1       1.644  13.332  19.343  0.00  0.00    +0.000 C 
ATOM     15  C   UNL     1       1.754  12.280  20.455  0.00  0.00    +0.000 C 
ATOM     16  N   UNL     1       0.619  12.240  21.408  0.00  0.00    +0.000 N 
ATOM     17  C   UNL     1       0.100  11.026  21.879  0.00  0.00    +0.000 C 
ATOM     18  O   UNL     1      -0.718  10.984  22.800  0.00  0.00    +0.000 OA
ENDROOT
BRANCH  17  19
ATOM     19  C   UNL     1       0.514   9.739  21.138  0.00  0.00    +0.000 C 
ATOM     20  C   UNL     1      -0.628   8.724  21.165  0.00  0.00    +0.000 C 
ATOM     21  C   UNL     1      -0.000   7.346  21.057  0.00  0.00    +0.000 C 
ATOM     22  C   UNL     1       1.491   7.509  21.324  0.00  0.00    +0.000 C 
ATOM     23  C   UNL     1       1.663   8.965  21.786  0.00  0.00    +0.000 C 
BRANCH  22  24
ATOM     24  N   UNL     1       2.302   7.261  20.105  0.00  0.00    +0.000 NA
ATOM     25  H   UNL     1       3.188   7.770  20.063  0.00  0.00    +0.000 HD
BRANCH  24  26
ATOM     26  S   UNL     1       2.577   5.654  19.613  0.00  0.00    +0.000 S 
ATOM     27  O   UNL     1       2.699   4.887  20.832  0.00  0.00    +0.000 OA
ATOM     28  O   UNL     1       1.612   5.324  18.591  0.00  0.00    +0.000 OA
BRANCH  26  29
ATOM     29  C   UNL     1       4.179   5.720  18.889  0.00  0.00    +0.000 A 
ATOM     30  C   UNL     1       4.461   6.552  17.818  0.00  0.00    +0.000 A 
ATOM     31  C   UNL     1       5.772   6.643  17.356  0.00  0.00    +0.000 A 
ATOM     32  C   UNL     1       6.745   5.860  17.984  0.00  0.00    +0.000 A 
ATOM     33  N   UNL     1       6.482   5.030  19.013  0.00  0.00    +0.000 NA
ATOM     34  C   UNL     1       5.200   4.970  19.443  0.00  0.00    +0.000 A 
ENDBRANCH  26  29
ENDBRANCH  24  26
ENDBRANCH  22  24
ENDBRANCH  17  19
BRANCH   7  35
ATOM     35  O   UNL     1      -4.006  12.255  20.862  0.00  0.00    +0.000 OA
ATOM     36  H   UNL     1      -4.289  11.330  20.820  0.00  0.00    +0.000 HD
ENDBRANCH   7  35
TORSDOF 5
ENDMDL
