MODEL 1
REMARK VINA RESULT:      -8.4      0.000      0.000
REMARK  Name = 
REMARK  5 active torsions:
REMARK  status: ('A' for Active; 'I' for Inactive)
REMARK    1  A    between atoms: C_1  and  C_2
REMARK    2  A    between atoms: C_2  and  C_3
REMARK    3  A    between atoms: C_3  and  N_4
REMARK    4  A    between atoms: N_13  and  N_14
REMARK    5  A    between atoms: C_15  and  C_17
REMARK                            x       y       z     vdW  Elec       q    Type
REMARK                         _______ _______ _______ _____ _____    ______ ____
ROOT
ATOM      1  C   UNL     1       1.824   4.391  20.796  0.00  0.00    +0.000 C 
ATOM      2  C   UNL     1       3.024   4.782  19.965  0.00  0.00    +0.000 C 
ATOM      3  N   UNL     1       3.264   5.993  19.553  0.00  0.00    +0.000 NA
ENDROOT
BRANCH   3   4
ATOM      4  N   UNL     1       2.384   6.987  19.862  0.00  0.00    +0.000 N 
ATOM      5  C   UNL     1       2.186   8.034  18.971  0.00  0.00    +0.000 C 
ATOM      6  O   UNL     1       2.748   8.158  17.888  0.00  0.00    +0.000 OA
ATOM      7  H   UNL     1       1.778   6.886  20.665  0.00  0.00    +0.000 HD
BRANCH   5   8
ATOM      8  C   UNL     1       1.167   9.041  19.388  0.00  0.00    +0.000 A 
ATOM      9  C   UNL     1       0.565   9.913  18.466  0.00  0.00    +0.000 A 
ATOM     10  C   UNL     1      -0.371  10.854  18.901  0.00  0.00    +0.000 A 
ATOM     11  C   UNL     1      -0.719  10.921  20.250  0.00  0.00    +0.000 A 
ATOM     12  C   UNL     1      -0.138  10.040  21.160  0.00  0.00    +0.000 A 
ATOM     13 BR   UNL     1      -0.625  10.129  22.985  0.00  0.00    +0.000 Br
ATOM     14  C   UNL     1       0.798   9.097  20.737  0.00  0.00    +0.000 A 
ENDBRANCH   5   8
ENDBRANCH   3   4
BRANCH   2  15
ATOM     15  C   UNL     1       3.993   3.700  19.546  0.00  0.00    +0.000 C 
BRANCH  15  16
ATOM     16  N   UNL     1       5.170   4.231  18.899  0.00  0.00    +0.000 N 
ATOM     17  N   UNL     1       6.228   4.603  19.648  0.00  0.00    +0.000 NA
ATOM     18  N   UNL     1       7.213   4.922  18.819  0.00  0.00    +0.000 NA
ATOM     19  C   UNL     1       6.763   4.753  17.537  0.00  0.00    +0.000 A 
ATOM     20  C   UNL     1       7.413   4.939  16.309  0.00  0.00    +0.000 A 
ATOM     21  C   UNL     1       6.697   4.697  15.131  0.00  0.00    +0.000 A 
ATOM     22  C   UNL     1       5.364   4.276  15.178  0.00  0.00    +0.000 A 
ATOM     23  C   UNL     1       4.702   4.074  16.397  0.00  0.00    +0.000 A 
ATOM     24  C   UNL     1       5.440   4.324  17.558  0.00  0.00    +0.000 A 
ENDBRANCH  15  16
ENDBRANCH   2  15
TORSDOF 4
ENDMDL
MODEL 2
REMARK VINA RESULT:      -8.3      1.100      1.634
REMARK  Name = 
REMARK  5 active torsions:
REMARK  status: ('A' for Active; 'I' for Inactive)
REMARK    1  A    between atoms: C_1  and  C_2
REMARK    2  A    between atoms: C_2  and  C_3
REMARK    3  A    between atoms: C_3  and  N_4
REMARK    4  A    between atoms: N_13  and  N_14
REMARK    5  A    between atoms: C_15  and  C_17
REMARK                            x       y       z     vdW  Elec       q    Type
REMARK                         _______ _______ _______ _____ _____    ______ ____
ROOT
ATOM      1  C   UNL     1       2.236   4.164  21.434  0.00  0.00    +0.000 C 
ATOM      2  C   UNL     1       2.834   4.671  20.141  0.00  0.00    +0.000 C 
ATOM      3  N   UNL     1       2.741   5.901  19.726  0.00  0.00    +0.000 NA
ENDROOT
BRANCH   3   4
ATOM      4  N   UNL     1       2.053   6.806  20.478  0.00  0.00    +0.000 N 
ATOM      5  C   UNL     1       1.727   8.044  19.939  0.00  0.00    +0.000 C 
ATOM      6  O   UNL     1       2.010   8.420  18.806  0.00  0.00    +0.000 OA
ATOM      7  H   UNL     1       1.660   6.523  21.366  0.00  0.00    +0.000 HD
BRANCH   5   8
ATOM      8  C   UNL     1       0.934   8.939  20.831  0.00  0.00    +0.000 A 
ATOM      9  C   UNL     1       0.910   8.767  22.224  0.00  0.00    +0.000 A 
ATOM     10  C   UNL     1       0.139   9.616  23.022  0.00  0.00    +0.000 A 
ATOM     11  C   UNL     1      -0.598  10.645  22.437  0.00  0.00    +0.000 A 
ATOM     12  C   UNL     1      -0.555  10.830  21.056  0.00  0.00    +0.000 A 
ATOM     13 BR   UNL     1      -1.547  12.236  20.272  0.00  0.00    +0.000 Br
ATOM     14  C   UNL     1       0.211   9.987  20.250  0.00  0.00    +0.000 A 
ENDBRANCH   5   8
ENDBRANCH   3   4
BRANCH   2  15
ATOM     15  C   UNL     1       3.552   3.688  19.246  0.00  0.00    +0.000 C 
BRANCH  15  16
ATOM     16  N   UNL     1       4.830   4.183  18.791  0.00  0.00    +0.000 N 
ATOM     17  N   UNL     1       5.787   4.475  19.695  0.00  0.00    +0.000 NA
ATOM     18  N   UNL     1       6.892   4.776  19.025  0.00  0.00    +0.000 NA
ATOM     19  C   UNL     1       6.619   4.676  17.686  0.00  0.00    +0.000 A 
ATOM     20  C   UNL     1       7.443   4.874  16.570  0.00  0.00    +0.000 A 
ATOM     21  C   UNL     1       6.889   4.710  15.294  0.00  0.00    +0.000 A 
ATOM     22  C   UNL     1       5.546   4.354  15.138  0.00  0.00    +0.000 A 
ATOM     23  C   UNL     1       4.711   4.141  16.244  0.00  0.00    +0.000 A 
ATOM     24  C   UNL     1       5.289   4.312  17.506  0.00  0.00    +0.000 A 
ENDBRANCH  15  16
ENDBRANCH   2  15
TORSDOF 4
ENDMDL
MODEL 3
REMARK VINA RESULT:      -8.1      4.767      6.434
REMARK  Name = 
REMARK  5 active torsions:
REMARK  status: ('A' for Active; 'I' for Inactive)
REMARK    1  A    between atoms: C_1  and  C_2
REMARK    2  A    between atoms: C_2  and  C_3
REMARK    3  A    between atoms: C_3  and  N_4
REMARK    4  A    between atoms: N_13  and  N_14
REMARK    5  A    between atoms: C_15  and  C_17
REMARK                            x       y       z     vdW  Elec       q    Type
REMARK                         _______ _______ _______ _____ _____    ______ ____
ROOT
ATOM      1  C   UNL     1       4.456   7.285  17.359  0.00  0.00    +0.000 C 
ATOM      2  C   UNL     1       5.543   6.328  16.925  0.00  0.00    +0.000 C 
ATOM      3  N   UNL     1       6.790   6.665  16.764  0.00  0.00    +0.000 NA
ENDROOT
BRANCH   3   4
ATOM      4  N   UNL     1       7.163   7.959  16.979  0.00  0.00    +0.000 N 
ATOM      5  C   UNL     1       8.012   8.265  18.034  0.00  0.00    +0.000 C 
ATOM      6  O   UNL     1       8.479   7.453  18.826  0.00  0.00    +0.000 OA
ATOM      7  H   UNL     1       6.938   8.664  16.290  0.00  0.00    +0.000 HD
BRANCH   5   8
ATOM      8  C   UNL     1       8.393   9.703  18.149  0.00  0.00    +0.000 A 
ATOM      9  C   UNL     1       7.825  10.689  17.327  0.00  0.00    +0.000 A 
ATOM     10  C   UNL     1       8.223  12.022  17.455  0.00  0.00    +0.000 A 
ATOM     11  C   UNL     1       9.176  12.377  18.409  0.00  0.00    +0.000 A 
ATOM     12  C   UNL     1       9.722  11.401  19.241  0.00  0.00    +0.000 A 
ATOM     13 BR   UNL     1      11.004  11.894  20.541  0.00  0.00    +0.000 Br
ATOM     14  C   UNL     1       9.332  10.067  19.121  0.00  0.00    +0.000 A 
ENDBRANCH   5   8
ENDBRANCH   3   4
BRANCH   2  15
ATOM     15  C   UNL     1       5.163   4.899  16.617  0.00  0.00    +0.000 C 
BRANCH  15  16
ATOM     16  N   UNL     1       4.784   4.159  17.798  0.00  0.00    +0.000 N 
ATOM     17  N   UNL     1       5.717   3.876  18.730  0.00  0.00    +0.000 NA
ATOM     18  N   UNL     1       5.095   3.318  19.760  0.00  0.00    +0.000 NA
ATOM     19  C   UNL     1       3.760   3.246  19.466  0.00  0.00    +0.000 A 
ATOM     20  C   UNL     1       2.683   2.760  20.220  0.00  0.00    +0.000 A 
ATOM     21  C   UNL     1       1.402   2.801  19.657  0.00  0.00    +0.000 A 
ATOM     22  C   UNL     1       1.200   3.319  18.375  0.00  0.00    +0.000 A 
ATOM     23  C   UNL     1       2.264   3.820  17.611  0.00  0.00    +0.000 A 
ATOM     24  C   UNL     1       3.533   3.766  18.196  0.00  0.00    +0.000 A 
ENDBRANCH  15  16
ENDBRANCH   2  15
TORSDOF 4
ENDMDL
MODEL 4
REMARK VINA RESULT:      -7.8      1.426      1.683
REMARK  Name = 
REMARK  5 active torsions:
REMARK  status: ('A' for Active; 'I' for Inactive)
REMARK    1  A    between atoms: C_1  and  C_2
REMARK    2  A    between atoms: C_2  and  C_3
REMARK    3  A    between atoms: C_3  and  N_4
REMARK    4  A    between atoms: N_13  and  N_14
REMARK    5  A    between atoms: C_15  and  C_17
REMARK                            x       y       z     vdW  Elec       q    Type
REMARK                         _______ _______ _______ _____ _____    ______ ____
ROOT
ATOM      1  C   UNL     1       2.129   4.965  20.885  0.00  0.00    +0.000 C 
ATOM      2  C   UNL     1       2.982   5.128  19.647  0.00  0.00    +0.000 C 
ATOM      3  N   UNL     1       2.993   6.196  18.903  0.00  0.00    +0.000 NA
ENDROOT
BRANCH   3   4
ATOM      4  N   UNL     1       2.184   7.243  19.231  0.00  0.00    +0.000 N 
ATOM      5  C   UNL     1       2.029   8.299  18.343  0.00  0.00    +0.000 C 
ATOM      6  O   UNL     1       2.573   8.388  17.246  0.00  0.00    +0.000 OA
ATOM      7  H   UNL     1       1.591   7.180  20.048  0.00  0.00    +0.000 HD
BRANCH   5   8
ATOM      8  C   UNL     1       1.085   9.368  18.780  0.00  0.00    +0.000 A 
ATOM      9  C   UNL     1       1.261  10.064  19.987  0.00  0.00    +0.000 A 
ATOM     10  C   UNL     1       0.343  11.046  20.369  0.00  0.00    +0.000 A 
ATOM     11  C   UNL     1      -0.742  11.346  19.545  0.00  0.00    +0.000 A 
ATOM     12  C   UNL     1      -0.902  10.671  18.336  0.00  0.00    +0.000 A 
ATOM     13 BR   UNL     1      -2.368  11.092  17.219  0.00  0.00    +0.000 Br
ATOM     14  C   UNL     1       0.008   9.688  17.946  0.00  0.00    +0.000 A 
ENDBRANCH   5   8
ENDBRANCH   3   4
BRANCH   2  15
ATOM     15  C   UNL     1       3.847   3.968  19.211  0.00  0.00    +0.000 C 
BRANCH  15  16
ATOM     16  N   UNL     1       5.094   4.399  18.622  0.00  0.00    +0.000 N 
ATOM     17  N   UNL     1       6.132   4.713  19.424  0.00  0.00    +0.000 NA
ATOM     18  N   UNL     1       7.183   4.942  18.647  0.00  0.00    +0.000 NA
ATOM     19  C   UNL     1       6.795   4.773  17.345  0.00  0.00    +0.000 A 
ATOM     20  C   UNL     1       7.525   4.882  16.153  0.00  0.00    +0.000 A 
ATOM     21  C   UNL     1       6.861   4.662  14.941  0.00  0.00    +0.000 A 
ATOM     22  C   UNL     1       5.501   4.338  14.919  0.00  0.00    +0.000 A 
ATOM     23  C   UNL     1       4.758   4.214  16.102  0.00  0.00    +0.000 A 
ATOM     24  C   UNL     1       5.445   4.440  17.298  0.00  0.00    +0.000 A 
ENDBRANCH  15  16
ENDBRANCH   2  15
TORSDOF 4
ENDMDL
MODEL 5
REMARK VINA RESULT:      -7.8      1.542      1.765
REMARK  Name = 
REMARK  5 active torsions:
REMARK  status: ('A' for Active; 'I' for Inactive)
REMARK    1  A    between atoms: C_1  and  C_2
REMARK    2  A    between atoms: C_2  and  C_3
REMARK    3  A    between atoms: C_3  and  N_4
REMARK    4  A    between atoms: N_13  and  N_14
REMARK    5  A    between atoms: C_15  and  C_17
REMARK                            x       y       z     vdW  Elec       q    Type
REMARK                         _______ _______ _______ _____ _____    ______ ____
ROOT
ATOM      1  C   UNL     1       1.708   5.183  20.669  0.00  0.00    +0.000 C 
ATOM      2  C   UNL     1       2.561   5.385  19.437  0.00  0.00    +0.000 C 
ATOM      3  N   UNL     1       2.730   6.532  18.846  0.00  0.00    +0.000 NA
ENDROOT
BRANCH   3   4
ATOM      4  N   UNL     1       2.096   7.634  19.338  0.00  0.00    +0.000 N 
ATOM      5  C   UNL     1       1.889   8.735  18.517  0.00  0.00    +0.000 C 
ATOM      6  O   UNL     1       2.236   8.818  17.343  0.00  0.00    +0.000 OA
ATOM      7  H   UNL     1       1.654   7.592  20.247  0.00  0.00    +0.000 HD
BRANCH   5   8
ATOM      8  C   UNL     1       1.145   9.866  19.142  0.00  0.00    +0.000 A 
ATOM      9  C   UNL     1       0.171   9.657  20.131  0.00  0.00    +0.000 A 
ATOM     10  C   UNL     1      -0.516  10.744  20.678  0.00  0.00    +0.000 A 
ATOM     11  C   UNL     1      -0.226  12.039  20.253  0.00  0.00    +0.000 A 
ATOM     12  C   UNL     1       0.759  12.248  19.288  0.00  0.00    +0.000 A 
ATOM     13 BR   UNL     1       1.155  14.009  18.726  0.00  0.00    +0.000 Br
ATOM     14  C   UNL     1       1.449  11.170  18.734  0.00  0.00    +0.000 A 
ENDBRANCH   5   8
ENDBRANCH   3   4
BRANCH   2  15
ATOM     15  C   UNL     1       3.232   4.180  18.821  0.00  0.00    +0.000 C 
BRANCH  15  16
ATOM     16  N   UNL     1       4.613   4.430  18.477  0.00  0.00    +0.000 N 
ATOM     17  N   UNL     1       5.538   4.500  19.456  0.00  0.00    +0.000 NA
ATOM     18  N   UNL     1       6.727   4.600  18.876  0.00  0.00    +0.000 NA
ATOM     19  C   UNL     1       6.542   4.597  17.520  0.00  0.00    +0.000 A 
ATOM     20  C   UNL     1       7.470   4.665  16.471  0.00  0.00    +0.000 A 
ATOM     21  C   UNL     1       6.992   4.654  15.155  0.00  0.00    +0.000 A 
ATOM     22  C   UNL     1       5.621   4.572  14.893  0.00  0.00    +0.000 A 
ATOM     23  C   UNL     1       4.680   4.492  15.929  0.00  0.00    +0.000 A 
ATOM     24  C   UNL     1       5.183   4.507  17.233  0.00  0.00    +0.000 A 
ENDBRANCH  15  16
ENDBRANCH   2  15
TORSDOF 4
ENDMDL
MODEL 6
REMARK VINA RESULT:      -7.8      1.313      1.671
REMARK  Name = 
REMARK  5 active torsions:
REMARK  status: ('A' for Active; 'I' for Inactive)
REMARK    1  A    between atoms: C_1  and  C_2
REMARK    2  A    between atoms: C_2  and  C_3
REMARK    3  A    between atoms: C_3  and  N_4
REMARK    4  A    between atoms: N_13  and  N_14
REMARK    5  A    between atoms: C_15  and  C_17
REMARK                            x       y       z     vdW  Elec       q    Type
REMARK                         _______ _______ _______ _____ _____    ______ ____
ROOT
ATOM      1  C   UNL     1       1.468   4.288  18.651  0.00  0.00    +0.000 C 
ATOM      2  C   UNL     1       2.872   4.366  19.207  0.00  0.00    +0.000 C 
ATOM      3  N   UNL     1       3.285   5.294  20.021  0.00  0.00    +0.000 NA
ENDROOT
BRANCH   3   4
ATOM      4  N   UNL     1       2.421   6.278  20.401  0.00  0.00    +0.000 N 
ATOM      5  C   UNL     1       2.323   7.438  19.645  0.00  0.00    +0.000 C 
ATOM      6  O   UNL     1       2.964   7.677  18.626  0.00  0.00    +0.000 OA
ATOM      7  H   UNL     1       1.756   6.101  21.142  0.00  0.00    +0.000 HD
BRANCH   5   8
ATOM      8  C   UNL     1       1.314   8.428  20.123  0.00  0.00    +0.000 A 
ATOM      9  C   UNL     1       0.783   8.378  21.421  0.00  0.00    +0.000 A 
ATOM     10  C   UNL     1      -0.174   9.314  21.824  0.00  0.00    +0.000 A 
ATOM     11  C   UNL     1      -0.593  10.307  20.939  0.00  0.00    +0.000 A 
ATOM     12  C   UNL     1      -0.048  10.370  19.658  0.00  0.00    +0.000 A 
ATOM     13 BR   UNL     1      -0.614  11.728  18.470  0.00  0.00    +0.000 Br
ATOM     14  C   UNL     1       0.906   9.440  19.246  0.00  0.00    +0.000 A 
ENDBRANCH   5   8
ENDBRANCH   3   4
BRANCH   2  15
ATOM     15  C   UNL     1       3.881   3.332  18.764  0.00  0.00    +0.000 C 
BRANCH  15  16
ATOM     16  N   UNL     1       5.095   3.924  18.254  0.00  0.00    +0.000 N 
ATOM     17  N   UNL     1       6.112   4.184  19.101  0.00  0.00    +0.000 NA
ATOM     18  N   UNL     1       7.143   4.593  18.374  0.00  0.00    +0.000 NA
ATOM     19  C   UNL     1       6.764   4.594  17.058  0.00  0.00    +0.000 A 
ATOM     20  C   UNL     1       7.483   4.924  15.901  0.00  0.00    +0.000 A 
ATOM     21  C   UNL     1       6.831   4.843  14.664  0.00  0.00    +0.000 A 
ATOM     22  C   UNL     1       5.496   4.438  14.585  0.00  0.00    +0.000 A 
ATOM     23  C   UNL     1       4.766   4.092  15.731  0.00  0.00    +0.000 A 
ATOM     24  C   UNL     1       5.439   4.183  16.953  0.00  0.00    +0.000 A 
ENDBRANCH  15  16
ENDBRANCH   2  15
TORSDOF 4
ENDMDL
MODEL 7
REMARK VINA RESULT:      -7.7      1.090      1.748
REMARK  Name = 
REMARK  5 active torsions:
REMARK  status: ('A' for Active; 'I' for Inactive)
REMARK    1  A    between atoms: C_1  and  C_2
REMARK    2  A    between atoms: C_2  and  C_3
REMARK    3  A    between atoms: C_3  and  N_4
REMARK    4  A    between atoms: N_13  and  N_14
REMARK    5  A    between atoms: C_15  and  C_17
REMARK                            x       y       z     vdW  Elec       q    Type
REMARK                         _______ _______ _______ _____ _____    ______ ____
ROOT
ATOM      1  C   UNL     1       1.216   4.449  20.422  0.00  0.00    +0.000 C 
ATOM      2  C   UNL     1       2.623   4.816  20.011  0.00  0.00    +0.000 C 
ATOM      3  N   UNL     1       3.054   6.039  19.890  0.00  0.00    +0.000 NA
ENDROOT
BRANCH   3   4
ATOM      4  N   UNL     1       2.196   7.072  20.128  0.00  0.00    +0.000 N 
ATOM      5  C   UNL     1       2.040   8.071  19.176  0.00  0.00    +0.000 C 
ATOM      6  O   UNL     1       2.621   8.118  18.097  0.00  0.00    +0.000 OA
ATOM      7  H   UNL     1       1.576   7.033  20.925  0.00  0.00    +0.000 HD
BRANCH   5   8
ATOM      8  C   UNL     1       1.044   9.127  19.517  0.00  0.00    +0.000 A 
ATOM      9  C   UNL     1       0.496   9.974  18.541  0.00  0.00    +0.000 A 
ATOM     10  C   UNL     1      -0.421  10.963  18.906  0.00  0.00    +0.000 A 
ATOM     11  C   UNL     1      -0.805  11.101  20.240  0.00  0.00    +0.000 A 
ATOM     12  C   UNL     1      -0.279  10.244  21.205  0.00  0.00    +0.000 A 
ATOM     13 BR   UNL     1      -0.814  10.429  23.009  0.00  0.00    +0.000 Br
ATOM     14  C   UNL     1       0.639   9.254  20.851  0.00  0.00    +0.000 A 
ENDBRANCH   5   8
ENDBRANCH   3   4
BRANCH   2  15
ATOM     15  C   UNL     1       3.589   3.703  19.677  0.00  0.00    +0.000 C 
BRANCH  15  16
ATOM     16  N   UNL     1       4.337   3.963  18.469  0.00  0.00    +0.000 N 
ATOM     17  N   UNL     1       3.851   3.538  17.284  0.00  0.00    +0.000 NA
ATOM     18  N   UNL     1       4.644   4.012  16.333  0.00  0.00    +0.000 NA
ATOM     19  C   UNL     1       5.641   4.737  16.931  0.00  0.00    +0.000 A 
ATOM     20  C   UNL     1       6.712   5.449  16.373  0.00  0.00    +0.000 A 
ATOM     21  C   UNL     1       7.600   6.102  17.237  0.00  0.00    +0.000 A 
ATOM     22  C   UNL     1       7.421   6.048  18.622  0.00  0.00    +0.000 A 
ATOM     23  C   UNL     1       6.348   5.351  19.195  0.00  0.00    +0.000 A 
ATOM     24  C   UNL     1       5.477   4.707  18.312  0.00  0.00    +0.000 A 
ENDBRANCH  15  16
ENDBRANCH   2  15
TORSDOF 4
ENDMDL
MODEL 8
REMARK VINA RESULT:      -7.7      5.495      7.228
REMARK  Name = 
REMARK  5 active torsions:
REMARK  status: ('A' for Active; 'I' for Inactive)
REMARK    1  A    between atoms: C_1  and  C_2
REMARK    2  A    between atoms: C_2  and  C_3
REMARK    3  A    between atoms: C_3  and  N_4
REMARK    4  A    between atoms: N_13  and  N_14
REMARK    5  A    between atoms: C_15  and  C_17
REMARK                            x       y       z     vdW  Elec       q    Type
REMARK                         _______ _______ _______ _____ _____    ______ ____
ROOT
ATOM      1  C   UNL     1       7.803   5.956  18.973  0.00  0.00    +0.000 C 
ATOM      2  C   UNL     1       7.278   6.537  17.680  0.00  0.00    +0.000 C 
ATOM      3  N   UNL     1       7.584   7.720  17.233  0.00  0.00    +0.000 NA
ENDROOT
BRANCH   3   4
ATOM      4  N   UNL     1       8.418   8.512  17.966  0.00  0.00    +0.000 N 
ATOM      5  C   UNL     1       8.307   9.894  17.880  0.00  0.00    +0.000 C 
ATOM      6  O   UNL     1       7.500  10.498  17.181  0.00  0.00    +0.000 OA
ATOM      7  H   UNL     1       9.011   8.096  18.671  0.00  0.00    +0.000 HD
BRANCH   5   8
ATOM      8  C   UNL     1       9.236  10.663  18.759  0.00  0.00    +0.000 A 
ATOM      9  C   UNL     1       9.189  10.561  20.158  0.00  0.00    +0.000 A 
ATOM     10  C   UNL     1      10.065  11.313  20.945  0.00  0.00    +0.000 A 
ATOM     11  C   UNL     1      10.997  12.157  20.340  0.00  0.00    +0.000 A 
ATOM     12  C   UNL     1      11.058  12.240  18.951  0.00  0.00    +0.000 A 
ATOM     13 BR   UNL     1      12.332  13.377  18.139  0.00  0.00    +0.000 Br
ATOM     14  C   UNL     1      10.187  11.494  18.156  0.00  0.00    +0.000 A 
ENDBRANCH   5   8
ENDBRANCH   3   4
BRANCH   2  15
ATOM     15  C   UNL     1       6.302   5.718  16.868  0.00  0.00    +0.000 C 
BRANCH  15  16
ATOM     16  N   UNL     1       4.963   5.751  17.410  0.00  0.00    +0.000 N 
ATOM     17  N   UNL     1       4.403   6.939  17.717  0.00  0.00    +0.000 NA
ATOM     18  N   UNL     1       3.143   6.709  18.063  0.00  0.00    +0.000 NA
ATOM     19  C   UNL     1       2.916   5.361  17.977  0.00  0.00    +0.000 A 
ATOM     20  C   UNL     1       1.756   4.613  18.219  0.00  0.00    +0.000 A 
ATOM     21  C   UNL     1       1.812   3.223  18.060  0.00  0.00    +0.000 A 
ATOM     22  C   UNL     1       2.998   2.596  17.665  0.00  0.00    +0.000 A 
ATOM     23  C   UNL     1       4.164   3.331  17.407  0.00  0.00    +0.000 A 
ATOM     24  C   UNL     1       4.081   4.716  17.575  0.00  0.00    +0.000 A 
ENDBRANCH  15  16
ENDBRANCH   2  15
TORSDOF 4
ENDMDL
MODEL 9
REMARK VINA RESULT:      -7.6      5.239      6.924
REMARK  Name = 
REMARK  5 active torsions:
REMARK  status: ('A' for Active; 'I' for Inactive)
REMARK    1  A    between atoms: C_1  and  C_2
REMARK    2  A    between atoms: C_2  and  C_3
REMARK    3  A    between atoms: C_3  and  N_4
REMARK    4  A    between atoms: N_13  and  N_14
REMARK    5  A    between atoms: C_15  and  C_17
REMARK                            x       y       z     vdW  Elec       q    Type
REMARK                         _______ _______ _______ _____ _____    ______ ____
ROOT
ATOM      1  C   UNL     1       7.746   6.209  18.953  0.00  0.00    +0.000 C 
ATOM      2  C   UNL     1       7.316   6.863  17.659  0.00  0.00    +0.000 C 
ATOM      3  N   UNL     1       7.687   8.052  17.283  0.00  0.00    +0.000 NA
ENDROOT
BRANCH   3   4
ATOM      4  N   UNL     1       8.503   8.782  18.095  0.00  0.00    +0.000 N 
ATOM      5  C   UNL     1       8.494  10.168  18.014  0.00  0.00    +0.000 C 
ATOM      6  O   UNL     1       7.797  10.829  17.252  0.00  0.00    +0.000 OA
ATOM      7  H   UNL     1       9.001   8.323  18.846  0.00  0.00    +0.000 HD
BRANCH   5   8
ATOM      8  C   UNL     1       9.390  10.869  18.980  0.00  0.00    +0.000 A 
ATOM      9  C   UNL     1      10.748  11.093  18.704  0.00  0.00    +0.000 A 
ATOM     10  C   UNL     1      11.557  11.738  19.644  0.00  0.00    +0.000 A 
ATOM     11  C   UNL     1      11.012  12.172  20.852  0.00  0.00    +0.000 A 
ATOM     12  C   UNL     1       9.659  11.971  21.115  0.00  0.00    +0.000 A 
ATOM     13 BR   UNL     1       8.926  12.574  22.750  0.00  0.00    +0.000 Br
ATOM     14  C   UNL     1       8.843  11.327  20.184  0.00  0.00    +0.000 A 
ENDBRANCH   5   8
ENDBRANCH   3   4
BRANCH   2  15
ATOM     15  C   UNL     1       6.362   6.114  16.758  0.00  0.00    +0.000 C 
BRANCH  15  16
ATOM     16  N   UNL     1       5.023   6.055  17.296  0.00  0.00    +0.000 N 
ATOM     17  N   UNL     1       4.388   7.199  17.620  0.00  0.00    +0.000 NA
ATOM     18  N   UNL     1       3.144   6.885  17.957  0.00  0.00    +0.000 NA
ATOM     19  C   UNL     1       3.002   5.527  17.848  0.00  0.00    +0.000 A 
ATOM     20  C   UNL     1       1.890   4.704  18.073  0.00  0.00    +0.000 A 
ATOM     21  C   UNL     1       2.035   3.323  17.890  0.00  0.00    +0.000 A 
ATOM     22  C   UNL     1       3.258   2.779  17.489  0.00  0.00    +0.000 A 
ATOM     23  C   UNL     1       4.377   3.589  17.249  0.00  0.00    +0.000 A 
ATOM     24  C   UNL     1       4.207   4.963  17.439  0.00  0.00    +0.000 A 
ENDBRANCH  15  16
ENDBRANCH   2  15
TORSDOF 4
ENDMDL
