MODEL 1
REMARK VINA RESULT:      -8.1      0.000      0.000
REMARK  Name = 
REMARK  5 active torsions:
REMARK  status: ('A' for Active; 'I' for Inactive)
REMARK    1  A    between atoms: N_1  and  C_2
REMARK    2  A    between atoms: C_2  and  C_3
REMARK    3  A    between atoms: C_6  and  O_7
REMARK    4  A    between atoms: O_7  and  C_8
REMARK    5  A    between atoms: C_16  and  C_17
REMARK                            x       y       z     vdW  Elec       q    Type
REMARK                         _______ _______ _______ _____ _____    ______ ____
ROOT
ATOM      1  C   UNL     1       7.003   5.908  16.550  0.00  0.00    +0.000 A 
ATOM      2  C   UNL     1       7.537   5.468  17.763  0.00  0.00    +0.000 A 
ATOM      3  C   UNL     1       6.737   5.418  18.899  0.00  0.00    +0.000 A 
ATOM      4  C   UNL     1       5.406   5.820  18.822  0.00  0.00    +0.000 A 
ATOM      5  C   UNL     1       4.892   6.384  17.648  0.00  0.00    +0.000 A 
ATOM      6  C   UNL     1       5.703   6.420  16.504  0.00  0.00    +0.000 A 
ATOM      7  C   UNL     1       3.476   6.882  17.594  0.00  0.00    +0.000 C 
ATOM      8  C   UNL     1       2.798   6.782  18.958  0.00  0.00    +0.000 C 
ATOM      9  C   UNL     1       3.230   5.498  19.677  0.00  0.00    +0.000 C 
ATOM     10  O   UNL     1       4.648   5.585  19.939  0.00  0.00    +0.000 OA
ENDROOT
BRANCH   9  11
ATOM     11  C   UNL     1       2.813   4.170  19.034  0.00  0.00    +0.000 A 
ATOM     12  C   UNL     1       3.774   3.203  18.688  0.00  0.00    +0.000 A 
ATOM     13  C   UNL     1       3.399   1.978  18.131  0.00  0.00    +0.000 A 
ATOM     14  C   UNL     1       2.054   1.687  17.927  0.00  0.00    +0.000 A 
ATOM     15  C   UNL     1       1.085   2.623  18.273  0.00  0.00    +0.000 A 
ATOM     16  C   UNL     1       1.461   3.851  18.828  0.00  0.00    +0.000 A 
ENDBRANCH   9  11
BRANCH   1  17
ATOM     17  O   UNL     1       7.725   5.894  15.379  0.00  0.00    +0.000 OA
BRANCH  17  21
ATOM     18  C   UNL     1       6.103   3.697  12.828  0.00  0.00    +0.000 A 
ATOM     19  C   UNL     1       7.068   4.495  12.244  0.00  0.00    +0.000 A 
ATOM     20  N   UNL     1       7.755   5.326  13.103  0.00  0.00    +0.000 NA
ATOM     21  C   UNL     1       7.302   5.178  14.328  0.00  0.00    +0.000 A 
ATOM     22  S   UNL     1       6.091   3.977  14.522  0.00  0.00    +0.000 S 
BRANCH  18  23
ATOM     23  C   UNL     1       5.170   2.731  12.187  0.00  0.00    +0.000 C 
BRANCH  23  24
ATOM     24  N   UNL     1       5.910   1.633  11.580  0.00  0.00    +0.000 NA
ATOM     25  H   UNL     1       5.713   1.612  10.581  0.00  0.00    +0.000 HD
ATOM     26  H   UNL     1       5.561   0.752  11.955  0.00  0.00    +0.000 HD
ENDBRANCH  23  24
ENDBRANCH  18  23
ENDBRANCH  17  21
ENDBRANCH   1  17
TORSDOF 5
ENDMDL
MODEL 2
REMARK VINA RESULT:      -7.5      0.954      1.039
REMARK  Name = 
REMARK  5 active torsions:
REMARK  status: ('A' for Active; 'I' for Inactive)
REMARK    1  A    between atoms: N_1  and  C_2
REMARK    2  A    between atoms: C_2  and  C_3
REMARK    3  A    between atoms: C_6  and  O_7
REMARK    4  A    between atoms: O_7  and  C_8
REMARK    5  A    between atoms: C_16  and  C_17
REMARK                            x       y       z     vdW  Elec       q    Type
REMARK                         _______ _______ _______ _____ _____    ______ ____
ROOT
ATOM      1  C   UNL     1       6.674   5.717  16.249  0.00  0.00    +0.000 A 
ATOM      2  C   UNL     1       7.361   5.268  17.379  0.00  0.00    +0.000 A 
ATOM      3  C   UNL     1       6.729   5.250  18.617  0.00  0.00    +0.000 A 
ATOM      4  C   UNL     1       5.414   5.692  18.725  0.00  0.00    +0.000 A 
ATOM      5  C   UNL     1       4.755   6.264  17.630  0.00  0.00    +0.000 A 
ATOM      6  C   UNL     1       5.396   6.269  16.383  0.00  0.00    +0.000 A 
ATOM      7  C   UNL     1       3.361   6.805  17.773  0.00  0.00    +0.000 C 
ATOM      8  C   UNL     1       2.881   6.734  19.220  0.00  0.00    +0.000 C 
ATOM      9  C   UNL     1       3.372   5.442  19.883  0.00  0.00    +0.000 C 
ATOM     10  O   UNL     1       4.815   5.486  19.941  0.00  0.00    +0.000 OA
ENDROOT
BRANCH   9  11
ATOM     11  C   UNL     1       2.829   4.124  19.320  0.00  0.00    +0.000 A 
ATOM     12  C   UNL     1       3.683   3.028  19.098  0.00  0.00    +0.000 A 
ATOM     13  C   UNL     1       3.189   1.813  18.614  0.00  0.00    +0.000 A 
ATOM     14  C   UNL     1       1.829   1.664  18.361  0.00  0.00    +0.000 A 
ATOM     15  C   UNL     1       0.964   2.731  18.585  0.00  0.00    +0.000 A 
ATOM     16  C   UNL     1       1.459   3.947  19.066  0.00  0.00    +0.000 A 
ENDBRANCH   9  11
BRANCH   1  17
ATOM     17  O   UNL     1       7.221   5.674  14.987  0.00  0.00    +0.000 OA
BRANCH  17  21
ATOM     18  C   UNL     1       6.485   3.292  12.204  0.00  0.00    +0.000 A 
ATOM     19  C   UNL     1       5.425   3.355  13.087  0.00  0.00    +0.000 A 
ATOM     20  N   UNL     1       5.577   4.231  14.141  0.00  0.00    +0.000 NA
ATOM     21  C   UNL     1       6.752   4.815  14.072  0.00  0.00    +0.000 A 
ATOM     22  S   UNL     1       7.696   4.405  12.697  0.00  0.00    +0.000 S 
BRANCH  18  23
ATOM     23  C   UNL     1       6.656   2.432  11.002  0.00  0.00    +0.000 C 
BRANCH  23  24
ATOM     24  N   UNL     1       6.468   1.029  11.347  0.00  0.00    +0.000 NA
ATOM     25  H   UNL     1       7.348   0.534  11.217  0.00  0.00    +0.000 HD
ATOM     26  H   UNL     1       5.809   0.612  10.689  0.00  0.00    +0.000 HD
ENDBRANCH  23  24
ENDBRANCH  18  23
ENDBRANCH  17  21
ENDBRANCH   1  17
TORSDOF 5
ENDMDL
MODEL 3
REMARK VINA RESULT:      -7.4      0.939      1.416
REMARK  Name = 
REMARK  5 active torsions:
REMARK  status: ('A' for Active; 'I' for Inactive)
REMARK    1  A    between atoms: N_1  and  C_2
REMARK    2  A    between atoms: C_2  and  C_3
REMARK    3  A    between atoms: C_6  and  O_7
REMARK    4  A    between atoms: O_7  and  C_8
REMARK    5  A    between atoms: C_16  and  C_17
REMARK                            x       y       z     vdW  Elec       q    Type
REMARK                         _______ _______ _______ _____ _____    ______ ____
ROOT
ATOM      1  C   UNL     1       6.645   5.808  16.417  0.00  0.00    +0.000 A 
ATOM      2  C   UNL     1       7.317   5.354  17.553  0.00  0.00    +0.000 A 
ATOM      3  C   UNL     1       6.659   5.298  18.777  0.00  0.00    +0.000 A 
ATOM      4  C   UNL     1       5.332   5.708  18.864  0.00  0.00    +0.000 A 
ATOM      5  C   UNL     1       4.684   6.285  17.765  0.00  0.00    +0.000 A 
ATOM      6  C   UNL     1       5.352   6.327  16.532  0.00  0.00    +0.000 A 
ATOM      7  C   UNL     1       3.275   6.790  17.885  0.00  0.00    +0.000 C 
ATOM      8  C   UNL     1       2.765   6.682  19.320  0.00  0.00    +0.000 C 
ATOM      9  C   UNL     1       3.272   5.390  19.971  0.00  0.00    +0.000 C 
ATOM     10  O   UNL     1       4.712   5.466  20.062  0.00  0.00    +0.000 OA
ENDROOT
BRANCH   9  11
ATOM     11  C   UNL     1       2.773   4.070  19.372  0.00  0.00    +0.000 A 
ATOM     12  C   UNL     1       1.403   3.861  19.129  0.00  0.00    +0.000 A 
ATOM     13  C   UNL     1       0.943   2.673  18.554  0.00  0.00    +0.000 A 
ATOM     14  C   UNL     1       1.846   1.678  18.193  0.00  0.00    +0.000 A 
ATOM     15  C   UNL     1       3.207   1.868  18.412  0.00  0.00    +0.000 A 
ATOM     16  C   UNL     1       3.666   3.056  18.990  0.00  0.00    +0.000 A 
ENDBRANCH   9  11
BRANCH   1  17
ATOM     17  O   UNL     1       7.221   5.801  15.167  0.00  0.00    +0.000 OA
BRANCH  17  21
ATOM     18  C   UNL     1       6.680   3.419  12.339  0.00  0.00    +0.000 A 
ATOM     19  C   UNL     1       5.655   3.325  13.261  0.00  0.00    +0.000 A 
ATOM     20  N   UNL     1       5.737   4.185  14.335  0.00  0.00    +0.000 NA
ATOM     21  C   UNL     1       6.827   4.914  14.242  0.00  0.00    +0.000 A 
ATOM     22  S   UNL     1       7.760   4.662  12.823  0.00  0.00    +0.000 S 
BRANCH  18  23
ATOM     23  C   UNL     1       6.909   2.620  11.105  0.00  0.00    +0.000 C 
BRANCH  23  24
ATOM     24  N   UNL     1       6.456   1.248  11.294  0.00  0.00    +0.000 NA
ATOM     25  H   UNL     1       5.466   1.191  11.061  0.00  0.00    +0.000 HD
ATOM     26  H   UNL     1       6.528   1.009  12.283  0.00  0.00    +0.000 HD
ENDBRANCH  23  24
ENDBRANCH  18  23
ENDBRANCH  17  21
ENDBRANCH   1  17
TORSDOF 5
ENDMDL
MODEL 4
REMARK VINA RESULT:      -7.1      4.483      6.795
REMARK  Name = 
REMARK  5 active torsions:
REMARK  status: ('A' for Active; 'I' for Inactive)
REMARK    1  A    between atoms: N_1  and  C_2
REMARK    2  A    between atoms: C_2  and  C_3
REMARK    3  A    between atoms: C_6  and  O_7
REMARK    4  A    between atoms: O_7  and  C_8
REMARK    5  A    between atoms: C_16  and  C_17
REMARK                            x       y       z     vdW  Elec       q    Type
REMARK                         _______ _______ _______ _____ _____    ______ ____
ROOT
ATOM      1  C   UNL     1       2.087   6.900  19.469  0.00  0.00    +0.000 A 
ATOM      2  C   UNL     1       1.534   7.119  20.732  0.00  0.00    +0.000 A 
ATOM      3  C   UNL     1       1.076   8.385  21.082  0.00  0.00    +0.000 A 
ATOM      4  C   UNL     1       1.182   9.432  20.171  0.00  0.00    +0.000 A 
ATOM      5  C   UNL     1       1.849   9.259  18.953  0.00  0.00    +0.000 A 
ATOM      6  C   UNL     1       2.299   7.977  18.603  0.00  0.00    +0.000 A 
ATOM      7  C   UNL     1       2.023  10.412  18.005  0.00  0.00    +0.000 C 
ATOM      8  C   UNL     1       1.497  11.712  18.608  0.00  0.00    +0.000 C 
ATOM      9  C   UNL     1       0.220  11.449  19.414  0.00  0.00    +0.000 C 
ATOM     10  O   UNL     1       0.560  10.599  20.531  0.00  0.00    +0.000 OA
ENDROOT
BRANCH   9  11
ATOM     11  C   UNL     1      -1.005  10.961  18.632  0.00  0.00    +0.000 A 
ATOM     12  C   UNL     1      -2.288  11.463  18.914  0.00  0.00    +0.000 A 
ATOM     13  C   UNL     1      -3.405  11.046  18.185  0.00  0.00    +0.000 A 
ATOM     14  C   UNL     1      -3.258  10.133  17.145  0.00  0.00    +0.000 A 
ATOM     15  C   UNL     1      -1.996   9.633  16.839  0.00  0.00    +0.000 A 
ATOM     16  C   UNL     1      -0.879  10.048  17.572  0.00  0.00    +0.000 A 
ENDBRANCH   9  11
BRANCH   1  17
ATOM     17  O   UNL     1       2.475   5.652  19.040  0.00  0.00    +0.000 OA
BRANCH  17  21
ATOM     18  C   UNL     1       5.915   4.913  17.781  0.00  0.00    +0.000 A 
ATOM     19  C   UNL     1       5.937   5.182  19.136  0.00  0.00    +0.000 A 
ATOM     20  N   UNL     1       4.712   5.439  19.713  0.00  0.00    +0.000 NA
ATOM     21  C   UNL     1       3.767   5.386  18.802  0.00  0.00    +0.000 A 
ATOM     22  S   UNL     1       4.290   4.945  17.227  0.00  0.00    +0.000 S 
BRANCH  18  23
ATOM     23  C   UNL     1       7.051   4.639  16.860  0.00  0.00    +0.000 C 
BRANCH  23  24
ATOM     24  N   UNL     1       7.382   5.830  16.089  0.00  0.00    +0.000 NA
ATOM     25  H   UNL     1       7.645   6.577  16.730  0.00  0.00    +0.000 HD
ATOM     26  H   UNL     1       6.545   6.154  15.605  0.00  0.00    +0.000 HD
ENDBRANCH  23  24
ENDBRANCH  18  23
ENDBRANCH  17  21
ENDBRANCH   1  17
TORSDOF 5
ENDMDL
MODEL 5
REMARK VINA RESULT:      -7.0      4.508      6.734
REMARK  Name = 
REMARK  5 active torsions:
REMARK  status: ('A' for Active; 'I' for Inactive)
REMARK    1  A    between atoms: N_1  and  C_2
REMARK    2  A    between atoms: C_2  and  C_3
REMARK    3  A    between atoms: C_6  and  O_7
REMARK    4  A    between atoms: O_7  and  C_8
REMARK    5  A    between atoms: C_16  and  C_17
REMARK                            x       y       z     vdW  Elec       q    Type
REMARK                         _______ _______ _______ _____ _____    ______ ____
ROOT
ATOM      1  C   UNL     1       2.123   7.023  19.076  0.00  0.00    +0.000 A 
ATOM      2  C   UNL     1       1.606   7.116  20.370  0.00  0.00    +0.000 A 
ATOM      3  C   UNL     1       1.154   8.339  20.854  0.00  0.00    +0.000 A 
ATOM      4  C   UNL     1       1.230   9.469  20.045  0.00  0.00    +0.000 A 
ATOM      5  C   UNL     1       1.862   9.420  18.797  0.00  0.00    +0.000 A 
ATOM      6  C   UNL     1       2.306   8.180  18.313  0.00  0.00    +0.000 A 
ATOM      7  C   UNL     1       2.004  10.660  17.961  0.00  0.00    +0.000 C 
ATOM      8  C   UNL     1       1.491  11.892  18.701  0.00  0.00    +0.000 C 
ATOM      9  C   UNL     1       0.238  11.544  19.514  0.00  0.00    +0.000 C 
ATOM     10  O   UNL     1       0.614  10.592  20.534  0.00  0.00    +0.000 OA
ENDROOT
BRANCH   9  11
ATOM     11  C   UNL     1      -1.007  11.125  18.724  0.00  0.00    +0.000 A 
ATOM     12  C   UNL     1      -0.931  10.131  17.732  0.00  0.00    +0.000 A 
ATOM     13  C   UNL     1      -2.067   9.722  17.029  0.00  0.00    +0.000 A 
ATOM     14  C   UNL     1      -3.306  10.285  17.318  0.00  0.00    +0.000 A 
ATOM     15  C   UNL     1      -3.408  11.261  18.304  0.00  0.00    +0.000 A 
ATOM     16  C   UNL     1      -2.270  11.672  19.005  0.00  0.00    +0.000 A 
ENDBRANCH   9  11
BRANCH   1  17
ATOM     17  O   UNL     1       2.503   5.825  18.518  0.00  0.00    +0.000 OA
BRANCH  17  21
ATOM     18  C   UNL     1       6.053   4.940  17.754  0.00  0.00    +0.000 A 
ATOM     19  C   UNL     1       5.864   5.072  19.116  0.00  0.00    +0.000 A 
ATOM     20  N   UNL     1       4.578   5.367  19.514  0.00  0.00    +0.000 NA
ATOM     21  C   UNL     1       3.797   5.481  18.462  0.00  0.00    +0.000 A 
ATOM     22  S   UNL     1       4.549   5.157  16.953  0.00  0.00    +0.000 S 
BRANCH  18  23
ATOM     23  C   UNL     1       7.307   4.668  17.002  0.00  0.00    +0.000 C 
BRANCH  23  24
ATOM     24  N   UNL     1       7.392   5.521  15.824  0.00  0.00    +0.000 NA
ATOM     25  H   UNL     1       6.464   5.880  15.607  0.00  0.00    +0.000 HD
ATOM     26  H   UNL     1       7.670   4.954  15.024  0.00  0.00    +0.000 HD
ENDBRANCH  23  24
ENDBRANCH  18  23
ENDBRANCH  17  21
ENDBRANCH   1  17
TORSDOF 5
ENDMDL
MODEL 6
REMARK VINA RESULT:      -6.9      5.277      7.497
REMARK  Name = 
REMARK  5 active torsions:
REMARK  status: ('A' for Active; 'I' for Inactive)
REMARK    1  A    between atoms: N_1  and  C_2
REMARK    2  A    between atoms: C_2  and  C_3
REMARK    3  A    between atoms: C_6  and  O_7
REMARK    4  A    between atoms: O_7  and  C_8
REMARK    5  A    between atoms: C_16  and  C_17
REMARK                            x       y       z     vdW  Elec       q    Type
REMARK                         _______ _______ _______ _____ _____    ______ ____
ROOT
ATOM      1  C   UNL     1       2.265   8.058  18.688  0.00  0.00    +0.000 A 
ATOM      2  C   UNL     1       1.766   7.776  19.962  0.00  0.00    +0.000 A 
ATOM      3  C   UNL     1       1.055   8.744  20.661  0.00  0.00    +0.000 A 
ATOM      4  C   UNL     1       0.853   9.997  20.090  0.00  0.00    +0.000 A 
ATOM      5  C   UNL     1       1.454  10.338  18.872  0.00  0.00    +0.000 A 
ATOM      6  C   UNL     1       2.161   9.351  18.168  0.00  0.00    +0.000 A 
ATOM      7  C   UNL     1       1.290  11.716  18.296  0.00  0.00    +0.000 C 
ATOM      8  C   UNL     1       0.522  12.629  19.248  0.00  0.00    +0.000 C 
ATOM      9  C   UNL     1      -0.600  11.852  19.946  0.00  0.00    +0.000 C 
ATOM     10  O   UNL     1       0.005  10.832  20.771  0.00  0.00    +0.000 OA
ENDROOT
BRANCH   9  11
ATOM     11  C   UNL     1      -1.731  11.321  19.058  0.00  0.00    +0.000 A 
ATOM     12  C   UNL     1      -2.956  12.006  18.964  0.00  0.00    +0.000 A 
ATOM     13  C   UNL     1      -3.980  11.545  18.133  0.00  0.00    +0.000 A 
ATOM     14  C   UNL     1      -3.793  10.401  17.364  0.00  0.00    +0.000 A 
ATOM     15  C   UNL     1      -2.584   9.714  17.430  0.00  0.00    +0.000 A 
ATOM     16  C   UNL     1      -1.561  10.174  18.265  0.00  0.00    +0.000 A 
ENDBRANCH   9  11
BRANCH   1  17
ATOM     17  O   UNL     1       2.898   7.110  17.918  0.00  0.00    +0.000 OA
BRANCH  17  21
ATOM     18  C   UNL     1       3.228   3.648  19.283  0.00  0.00    +0.000 A 
ATOM     19  C   UNL     1       2.134   3.741  18.445  0.00  0.00    +0.000 A 
ATOM     20  N   UNL     1       1.935   4.972  17.859  0.00  0.00    +0.000 NA
ATOM     21  C   UNL     1       2.858   5.816  18.263  0.00  0.00    +0.000 A 
ATOM     22  S   UNL     1       4.056   5.152  19.299  0.00  0.00    +0.000 S 
BRANCH  18  23
ATOM     23  C   UNL     1       3.696   2.489  20.092  0.00  0.00    +0.000 C 
BRANCH  23  24
ATOM     24  N   UNL     1       5.041   2.097  19.692  0.00  0.00    +0.000 NA
ATOM     25  H   UNL     1       5.713   2.726  20.128  0.00  0.00    +0.000 HD
ATOM     26  H   UNL     1       5.139   2.231  18.686  0.00  0.00    +0.000 HD
ENDBRANCH  23  24
ENDBRANCH  18  23
ENDBRANCH  17  21
ENDBRANCH   1  17
TORSDOF 5
ENDMDL
MODEL 7
REMARK VINA RESULT:      -6.9      5.581      8.474
REMARK  Name = 
REMARK  5 active torsions:
REMARK  status: ('A' for Active; 'I' for Inactive)
REMARK    1  A    between atoms: N_1  and  C_2
REMARK    2  A    between atoms: C_2  and  C_3
REMARK    3  A    between atoms: C_6  and  O_7
REMARK    4  A    between atoms: O_7  and  C_8
REMARK    5  A    between atoms: C_16  and  C_17
REMARK                            x       y       z     vdW  Elec       q    Type
REMARK                         _______ _______ _______ _____ _____    ______ ____
ROOT
ATOM      1  C   UNL     1       1.934   8.089  19.363  0.00  0.00    +0.000 A 
ATOM      2  C   UNL     1       1.710   8.484  18.042  0.00  0.00    +0.000 A 
ATOM      3  C   UNL     1       0.923   9.598  17.772  0.00  0.00    +0.000 A 
ATOM      4  C   UNL     1       0.351  10.308  18.823  0.00  0.00    +0.000 A 
ATOM      5  C   UNL     1       0.460   9.852  20.142  0.00  0.00    +0.000 A 
ATOM      6  C   UNL     1       1.264   8.734  20.407  0.00  0.00    +0.000 A 
ATOM      7  C   UNL     1      -0.220  10.584  21.265  0.00  0.00    +0.000 C 
ATOM      8  C   UNL     1      -1.070  11.739  20.741  0.00  0.00    +0.000 C 
ATOM      9  C   UNL     1      -0.368  12.430  19.566  0.00  0.00    +0.000 C 
ATOM     10  O   UNL     1      -0.269  11.482  18.481  0.00  0.00    +0.000 OA
ENDROOT
BRANCH   9  11
ATOM     11  C   UNL     1       0.954  13.142  19.871  0.00  0.00    +0.000 A 
ATOM     12  C   UNL     1       1.949  13.270  18.885  0.00  0.00    +0.000 A 
ATOM     13  C   UNL     1       3.144  13.945  19.146  0.00  0.00    +0.000 A 
ATOM     14  C   UNL     1       3.361  14.524  20.393  0.00  0.00    +0.000 A 
ATOM     15  C   UNL     1       2.385  14.421  21.380  0.00  0.00    +0.000 A 
ATOM     16  C   UNL     1       1.191  13.742  21.119  0.00  0.00    +0.000 A 
ENDBRANCH   9  11
BRANCH   1  17
ATOM     17  O   UNL     1       2.774   7.050  19.689  0.00  0.00    +0.000 OA
BRANCH  17  21
ATOM     18  C   UNL     1       1.711   3.478  19.410  0.00  0.00    +0.000 A 
ATOM     19  C   UNL     1       1.466   3.964  20.679  0.00  0.00    +0.000 A 
ATOM     20  N   UNL     1       1.792   5.287  20.886  0.00  0.00    +0.000 NA
ATOM     21  C   UNL     1       2.301   5.800  19.788  0.00  0.00    +0.000 A 
ATOM     22  S   UNL     1       2.336   4.745  18.434  0.00  0.00    +0.000 S 
BRANCH  18  23
ATOM     23  C   UNL     1       1.513   2.104  18.876  0.00  0.00    +0.000 C 
BRANCH  23  24
ATOM     24  N   UNL     1       2.135   1.971  17.565  0.00  0.00    +0.000 NA
ATOM     25  H   UNL     1       2.923   2.614  17.505  0.00  0.00    +0.000 HD
ATOM     26  H   UNL     1       1.471   2.270  16.852  0.00  0.00    +0.000 HD
ENDBRANCH  23  24
ENDBRANCH  18  23
ENDBRANCH  17  21
ENDBRANCH   1  17
TORSDOF 5
ENDMDL
MODEL 8
REMARK VINA RESULT:      -6.8      4.771      7.373
REMARK  Name = 
REMARK  5 active torsions:
REMARK  status: ('A' for Active; 'I' for Inactive)
REMARK    1  A    between atoms: N_1  and  C_2
REMARK    2  A    between atoms: C_2  and  C_3
REMARK    3  A    between atoms: C_6  and  O_7
REMARK    4  A    between atoms: O_7  and  C_8
REMARK    5  A    between atoms: C_16  and  C_17
REMARK                            x       y       z     vdW  Elec       q    Type
REMARK                         _______ _______ _______ _____ _____    ______ ____
ROOT
ATOM      1  C   UNL     1       2.442   7.563  19.175  0.00  0.00    +0.000 A 
ATOM      2  C   UNL     1       2.142   7.882  17.850  0.00  0.00    +0.000 A 
ATOM      3  C   UNL     1       1.267   8.924  17.565  0.00  0.00    +0.000 A 
ATOM      4  C   UNL     1       0.685   9.639  18.607  0.00  0.00    +0.000 A 
ATOM      5  C   UNL     1       0.875   9.251  19.939  0.00  0.00    +0.000 A 
ATOM      6  C   UNL     1       1.767   8.205  20.218  0.00  0.00    +0.000 A 
ATOM      7  C   UNL     1       0.187   9.983  21.056  0.00  0.00    +0.000 C 
ATOM      8  C   UNL     1      -0.763  11.051  20.519  0.00  0.00    +0.000 C 
ATOM      9  C   UNL     1      -0.156  11.736  19.289  0.00  0.00    +0.000 C 
ATOM     10  O   UNL     1      -0.030  10.750  18.242  0.00  0.00    +0.000 OA
ENDROOT
BRANCH   9  11
ATOM     11  C   UNL     1       1.122  12.552  19.511  0.00  0.00    +0.000 A 
ATOM     12  C   UNL     1       1.978  12.858  18.437  0.00  0.00    +0.000 A 
ATOM     13  C   UNL     1       3.129  13.628  18.626  0.00  0.00    +0.000 A 
ATOM     14  C   UNL     1       3.437  14.124  19.888  0.00  0.00    +0.000 A 
ATOM     15  C   UNL     1       2.598  13.846  20.963  0.00  0.00    +0.000 A 
ATOM     16  C   UNL     1       1.448  13.073  20.774  0.00  0.00    +0.000 A 
ENDBRANCH   9  11
BRANCH   1  17
ATOM     17  O   UNL     1       3.366   6.600  19.511  0.00  0.00    +0.000 OA
BRANCH  17  21
ATOM     18  C   UNL     1       5.409   4.758  16.982  0.00  0.00    +0.000 A 
ATOM     19  C   UNL     1       4.184   4.146  17.161  0.00  0.00    +0.000 A 
ATOM     20  N   UNL     1       3.333   4.762  18.053  0.00  0.00    +0.000 NA
ATOM     21  C   UNL     1       3.914   5.825  18.566  0.00  0.00    +0.000 A 
ATOM     22  S   UNL     1       5.473   6.181  17.941  0.00  0.00    +0.000 S 
BRANCH  18  23
ATOM     23  C   UNL     1       6.555   4.334  16.133  0.00  0.00    +0.000 C 
BRANCH  23  24
ATOM     24  N   UNL     1       7.768   4.221  16.933  0.00  0.00    +0.000 NA
ATOM     25  H   UNL     1       8.279   5.101  16.886  0.00  0.00    +0.000 HD
ATOM     26  H   UNL     1       8.376   3.518  16.514  0.00  0.00    +0.000 HD
ENDBRANCH  23  24
ENDBRANCH  18  23
ENDBRANCH  17  21
ENDBRANCH   1  17
TORSDOF 5
ENDMDL
MODEL 9
REMARK VINA RESULT:      -6.8      4.784      7.017
REMARK  Name = 
REMARK  5 active torsions:
REMARK  status: ('A' for Active; 'I' for Inactive)
REMARK    1  A    between atoms: N_1  and  C_2
REMARK    2  A    between atoms: C_2  and  C_3
REMARK    3  A    between atoms: C_6  and  O_7
REMARK    4  A    between atoms: O_7  and  C_8
REMARK    5  A    between atoms: C_16  and  C_17
REMARK                            x       y       z     vdW  Elec       q    Type
REMARK                         _______ _______ _______ _____ _____    ______ ____
ROOT
ATOM      1  C   UNL     1       2.238   7.421  18.835  0.00  0.00    +0.000 A 
ATOM      2  C   UNL     1       1.725   7.331  20.131  0.00  0.00    +0.000 A 
ATOM      3  C   UNL     1       1.155   8.447  20.734  0.00  0.00    +0.000 A 
ATOM      4  C   UNL     1       1.110   9.654  20.044  0.00  0.00    +0.000 A 
ATOM      5  C   UNL     1       1.733   9.795  18.799  0.00  0.00    +0.000 A 
ATOM      6  C   UNL     1       2.296   8.662  18.193  0.00  0.00    +0.000 A 
ATOM      7  C   UNL     1       1.741  11.121  18.092  0.00  0.00    +0.000 C 
ATOM      8  C   UNL     1       1.112  12.214  18.951  0.00  0.00    +0.000 C 
ATOM      9  C   UNL     1      -0.091  11.661  19.723  0.00  0.00    +0.000 C 
ATOM     10  O   UNL     1       0.387  10.654  20.642  0.00  0.00    +0.000 OA
ENDROOT
BRANCH   9  11
ATOM     11  C   UNL     1      -1.295  11.199  18.893  0.00  0.00    +0.000 A 
ATOM     12  C   UNL     1      -2.554  11.804  19.050  0.00  0.00    +0.000 A 
ATOM     13  C   UNL     1      -3.648  11.410  18.275  0.00  0.00    +0.000 A 
ATOM     14  C   UNL     1      -3.499  10.417  17.312  0.00  0.00    +0.000 A 
ATOM     15  C   UNL     1      -2.259   9.813  17.130  0.00  0.00    +0.000 A 
ATOM     16  C   UNL     1      -1.165  10.206  17.908  0.00  0.00    +0.000 A 
ENDBRANCH   9  11
BRANCH   1  17
ATOM     17  O   UNL     1       2.732   6.330  18.160  0.00  0.00    +0.000 OA
BRANCH  17  21
ATOM     18  C   UNL     1       6.396   5.601  18.069  0.00  0.00    +0.000 A 
ATOM     19  C   UNL     1       6.003   6.276  16.930  0.00  0.00    +0.000 A 
ATOM     20  N   UNL     1       4.671   6.625  16.872  0.00  0.00    +0.000 NA
ATOM     21  C   UNL     1       4.050   6.200  17.950  0.00  0.00    +0.000 A 
ATOM     22  S   UNL     1       5.048   5.436  19.119  0.00  0.00    +0.000 S 
BRANCH  18  23
ATOM     23  C   UNL     1       7.734   5.054  18.422  0.00  0.00    +0.000 C 
BRANCH  23  24
ATOM     24  N   UNL     1       8.111   5.458  19.770  0.00  0.00    +0.000 NA
ATOM     25  H   UNL     1       7.345   5.986  20.184  0.00  0.00    +0.000 HD
ATOM     26  H   UNL     1       8.900   6.102  19.714  0.00  0.00    +0.000 HD
ENDBRANCH  23  24
ENDBRANCH  18  23
ENDBRANCH  17  21
ENDBRANCH   1  17
TORSDOF 5
ENDMDL
