MODEL 1
REMARK VINA RESULT:      -7.0      0.000      0.000
REMARK  Name = 
REMARK  6 active torsions:
REMARK  status: ('A' for Active; 'I' for Inactive)
REMARK    1  A    between atoms: C_1  and  O_2
REMARK    2  A    between atoms: O_2  and  C_3
REMARK    3  A    between atoms: C_6  and  N_7
REMARK    4  A    between atoms: C_8  and  C_10
REMARK    5  A    between atoms: C_11  and  C_12
REMARK    6  A    between atoms: C_15  and  C_16
REMARK                            x       y       z     vdW  Elec       q    Type
REMARK                         _______ _______ _______ _____ _____    ______ ____
ROOT
ATOM      1  N   UNL     1       5.093   3.955  18.359  0.00  0.00    +0.000 N 
ATOM      2  C   UNL     1       3.731   4.021  18.591  0.00  0.00    +0.000 C 
ATOM      3  O   UNL     1       2.900   4.403  17.777  0.00  0.00    +0.000 OA
ATOM      4  H   UNL     1       5.669   3.561  19.092  0.00  0.00    +0.000 HD
ENDROOT
BRANCH   2   5
ATOM      5  C   UNL     1       3.307   3.557  19.897  0.00  0.00    +0.000 A 
ATOM      6  C   UNL     1       2.379   4.193  20.775  0.00  0.00    +0.000 A 
ATOM      7  C   UNL     1       1.598   5.439  20.576  0.00  0.00    +0.000 C 
ATOM      8  N   UNL     1       2.233   3.506  21.914  0.00  0.00    +0.000 NA
ATOM      9  O   UNL     1       3.091   2.434  21.819  0.00  0.00    +0.000 OA
ATOM     10  C   UNL     1       3.745   2.467  20.627  0.00  0.00    +0.000 A 
ATOM     11  C   UNL     1       4.764   1.415  20.440  0.00  0.00    +0.000 C 
ENDBRANCH   2   5
BRANCH   1  15
ATOM     12  C   UNL     1       7.164   5.177  14.959  0.00  0.00    +0.000 A 
ATOM     13  C   UNL     1       6.270   4.133  14.812  0.00  0.00    +0.000 A 
ATOM     14  C   UNL     1       5.560   3.701  15.932  0.00  0.00    +0.000 A 
ATOM     15  C   UNL     1       5.762   4.314  17.166  0.00  0.00    +0.000 A 
ATOM     16  C   UNL     1       6.698   5.348  17.203  0.00  0.00    +0.000 A 
ATOM     17  N   UNL     1       7.398   5.798  16.134  0.00  0.00    +0.000 NA
BRANCH  12  19
ATOM     18  C   UNL     1       7.470   4.813  12.673  0.00  0.00    +0.000 C 
ATOM     19  O   UNL     1       7.834   5.573  13.820  0.00  0.00    +0.000 OA
ENDBRANCH  12  19
ENDBRANCH   1  15
TORSDOF 3
ENDMDL
MODEL 2
REMARK VINA RESULT:      -6.9      0.548      1.931
REMARK  Name = 
REMARK  6 active torsions:
REMARK  status: ('A' for Active; 'I' for Inactive)
REMARK    1  A    between atoms: C_1  and  O_2
REMARK    2  A    between atoms: O_2  and  C_3
REMARK    3  A    between atoms: C_6  and  N_7
REMARK    4  A    between atoms: C_8  and  C_10
REMARK    5  A    between atoms: C_11  and  C_12
REMARK    6  A    between atoms: C_15  and  C_16
REMARK                            x       y       z     vdW  Elec       q    Type
REMARK                         _______ _______ _______ _____ _____    ______ ____
ROOT
ATOM      1  N   UNL     1       5.042   4.158  18.302  0.00  0.00    +0.000 N 
ATOM      2  C   UNL     1       3.699   4.383  18.547  0.00  0.00    +0.000 C 
ATOM      3  O   UNL     1       2.913   4.870  17.745  0.00  0.00    +0.000 OA
ATOM      4  H   UNL     1       5.572   3.690  19.025  0.00  0.00    +0.000 HD
ENDROOT
BRANCH   2   5
ATOM      5  C   UNL     1       3.233   3.955  19.851  0.00  0.00    +0.000 A 
ATOM      6  C   UNL     1       3.523   2.720  20.504  0.00  0.00    +0.000 A 
ATOM      7  C   UNL     1       4.382   1.596  20.053  0.00  0.00    +0.000 C 
ATOM      8  N   UNL     1       2.911   2.638  21.691  0.00  0.00    +0.000 NA
ATOM      9  O   UNL     1       2.178   3.797  21.817  0.00  0.00    +0.000 OA
ATOM     10  C   UNL     1       2.354   4.579  20.718  0.00  0.00    +0.000 A 
ATOM     11  C   UNL     1       1.548   5.815  20.691  0.00  0.00    +0.000 C 
ENDBRANCH   2   5
BRANCH   1  15
ATOM     12  C   UNL     1       7.190   5.192  14.887  0.00  0.00    +0.000 A 
ATOM     13  C   UNL     1       6.319   4.124  14.785  0.00  0.00    +0.000 A 
ATOM     14  C   UNL     1       5.584   3.753  15.911  0.00  0.00    +0.000 A 
ATOM     15  C   UNL     1       5.740   4.450  17.107  0.00  0.00    +0.000 A 
ATOM     16  C   UNL     1       6.656   5.502  17.102  0.00  0.00    +0.000 A 
ATOM     17  N   UNL     1       7.380   5.893  16.025  0.00  0.00    +0.000 NA
BRANCH  12  19
ATOM     18  C   UNL     1       7.440   4.809  12.598  0.00  0.00    +0.000 C 
ATOM     19  O   UNL     1       7.887   5.525  13.744  0.00  0.00    +0.000 OA
ENDBRANCH  12  19
ENDBRANCH   1  15
TORSDOF 3
ENDMDL
MODEL 3
REMARK VINA RESULT:      -6.9      1.648      2.316
REMARK  Name = 
REMARK  6 active torsions:
REMARK  status: ('A' for Active; 'I' for Inactive)
REMARK    1  A    between atoms: C_1  and  O_2
REMARK    2  A    between atoms: O_2  and  C_3
REMARK    3  A    between atoms: C_6  and  N_7
REMARK    4  A    between atoms: C_8  and  C_10
REMARK    5  A    between atoms: C_11  and  C_12
REMARK    6  A    between atoms: C_15  and  C_16
REMARK                            x       y       z     vdW  Elec       q    Type
REMARK                         _______ _______ _______ _____ _____    ______ ____
ROOT
ATOM      1  N   UNL     1       3.982   4.759  17.384  0.00  0.00    +0.000 N 
ATOM      2  C   UNL     1       4.036   4.247  18.668  0.00  0.00    +0.000 C 
ATOM      3  O   UNL     1       5.048   3.819  19.209  0.00  0.00    +0.000 OA
ATOM      4  H   UNL     1       3.097   5.139  17.075  0.00  0.00    +0.000 HD
ENDROOT
BRANCH   2   5
ATOM      5  C   UNL     1       2.783   4.277  19.395  0.00  0.00    +0.000 A 
ATOM      6  C   UNL     1       1.891   3.185  19.614  0.00  0.00    +0.000 A 
ATOM      7  C   UNL     1       2.022   1.766  19.201  0.00  0.00    +0.000 C 
ATOM      8  N   UNL     1       0.811   3.567  20.306  0.00  0.00    +0.000 NA
ATOM      9  O   UNL     1       0.957   4.920  20.517  0.00  0.00    +0.000 OA
ATOM     10  C   UNL     1       2.123   5.351  19.963  0.00  0.00    +0.000 A 
ATOM     11  C   UNL     1       2.355   6.807  20.043  0.00  0.00    +0.000 C 
ENDBRANCH   2   5
BRANCH   1  15
ATOM     12  C   UNL     1       7.229   5.280  14.829  0.00  0.00    +0.000 A 
ATOM     13  C   UNL     1       6.350   4.256  14.531  0.00  0.00    +0.000 A 
ATOM     14  C   UNL     1       5.251   4.056  15.367  0.00  0.00    +0.000 A 
ATOM     15  C   UNL     1       5.061   4.875  16.477  0.00  0.00    +0.000 A 
ATOM     16  C   UNL     1       6.017   5.868  16.692  0.00  0.00    +0.000 A 
ATOM     17  N   UNL     1       7.090   6.094  15.896  0.00  0.00    +0.000 NA
BRANCH  12  19
ATOM     18  C   UNL     1       7.921   5.314  12.599  0.00  0.00    +0.000 C 
ATOM     19  O   UNL     1       8.293   5.442  13.966  0.00  0.00    +0.000 OA
ENDBRANCH  12  19
ENDBRANCH   1  15
TORSDOF 3
ENDMDL
MODEL 4
REMARK VINA RESULT:      -6.9      3.694      6.019
REMARK  Name = 
REMARK  6 active torsions:
REMARK  status: ('A' for Active; 'I' for Inactive)
REMARK    1  A    between atoms: C_1  and  O_2
REMARK    2  A    between atoms: O_2  and  C_3
REMARK    3  A    between atoms: C_6  and  N_7
REMARK    4  A    between atoms: C_8  and  C_10
REMARK    5  A    between atoms: C_11  and  C_12
REMARK    6  A    between atoms: C_15  and  C_16
REMARK                            x       y       z     vdW  Elec       q    Type
REMARK                         _______ _______ _______ _____ _____    ______ ____
ROOT
ATOM      1  N   UNL     1       2.727   6.354  19.796  0.00  0.00    +0.000 N 
ATOM      2  C   UNL     1       2.468   5.132  19.201  0.00  0.00    +0.000 C 
ATOM      3  O   UNL     1       1.707   4.960  18.257  0.00  0.00    +0.000 OA
ATOM      4  H   UNL     1       3.424   6.373  20.528  0.00  0.00    +0.000 HD
ENDROOT
BRANCH   2   5
ATOM      5  C   UNL     1       3.207   4.013  19.750  0.00  0.00    +0.000 A 
ATOM      6  C   UNL     1       4.498   3.556  19.347  0.00  0.00    +0.000 A 
ATOM      7  C   UNL     1       5.413   4.110  18.319  0.00  0.00    +0.000 C 
ATOM      8  N   UNL     1       4.877   2.480  20.047  0.00  0.00    +0.000 NA
ATOM      9  O   UNL     1       3.827   2.190  20.889  0.00  0.00    +0.000 OA
ATOM     10  C   UNL     1       2.823   3.090  20.706  0.00  0.00    +0.000 A 
ATOM     11  C   UNL     1       1.599   2.834  21.489  0.00  0.00    +0.000 C 
ENDBRANCH   2   5
BRANCH   1  15
ATOM     12  C   UNL     1       0.982  10.035  18.932  0.00  0.00    +0.000 A 
ATOM     13  C   UNL     1       1.720   9.436  17.928  0.00  0.00    +0.000 A 
ATOM     14  C   UNL     1       2.316   8.201  18.186  0.00  0.00    +0.000 A 
ATOM     15  C   UNL     1       2.167   7.601  19.434  0.00  0.00    +0.000 A 
ATOM     16  C   UNL     1       1.414   8.301  20.377  0.00  0.00    +0.000 A 
ATOM     17  N   UNL     1       0.815   9.497  20.157  0.00  0.00    +0.000 NA
BRANCH  12  19
ATOM     18  C   UNL     1      -1.010  11.173  18.495  0.00  0.00    +0.000 C 
ATOM     19  O   UNL     1       0.405  11.250  18.624  0.00  0.00    +0.000 OA
ENDBRANCH  12  19
ENDBRANCH   1  15
TORSDOF 3
ENDMDL
MODEL 5
REMARK VINA RESULT:      -6.8      3.726      5.970
REMARK  Name = 
REMARK  6 active torsions:
REMARK  status: ('A' for Active; 'I' for Inactive)
REMARK    1  A    between atoms: C_1  and  O_2
REMARK    2  A    between atoms: O_2  and  C_3
REMARK    3  A    between atoms: C_6  and  N_7
REMARK    4  A    between atoms: C_8  and  C_10
REMARK    5  A    between atoms: C_11  and  C_12
REMARK    6  A    between atoms: C_15  and  C_16
REMARK                            x       y       z     vdW  Elec       q    Type
REMARK                         _______ _______ _______ _____ _____    ______ ____
ROOT
ATOM      1  N   UNL     1       2.854   6.367  19.651  0.00  0.00    +0.000 N 
ATOM      2  C   UNL     1       2.555   5.137  19.093  0.00  0.00    +0.000 C 
ATOM      3  O   UNL     1       1.690   4.944  18.247  0.00  0.00    +0.000 OA
ATOM      4  H   UNL     1       3.634   6.406  20.294  0.00  0.00    +0.000 HD
ENDROOT
BRANCH   2   5
ATOM      5  C   UNL     1       3.382   4.038  19.549  0.00  0.00    +0.000 A 
ATOM      6  C   UNL     1       3.030   3.038  20.504  0.00  0.00    +0.000 A 
ATOM      7  C   UNL     1       1.752   2.841  21.232  0.00  0.00    +0.000 C 
ATOM      8  N   UNL     1       4.039   2.184  20.712  0.00  0.00    +0.000 NA
ATOM      9  O   UNL     1       5.080   2.633  19.932  0.00  0.00    +0.000 OA
ATOM     10  C   UNL     1       4.700   3.746  19.248  0.00  0.00    +0.000 A 
ATOM     11  C   UNL     1       5.760   4.379  18.439  0.00  0.00    +0.000 C 
ENDBRANCH   2   5
BRANCH   1  15
ATOM     12  C   UNL     1       0.913   9.993  18.997  0.00  0.00    +0.000 A 
ATOM     13  C   UNL     1       1.629   9.461  17.941  0.00  0.00    +0.000 A 
ATOM     14  C   UNL     1       2.289   8.247  18.128  0.00  0.00    +0.000 A 
ATOM     15  C   UNL     1       2.225   7.600  19.359  0.00  0.00    +0.000 A 
ATOM     16  C   UNL     1       1.486   8.233  20.359  0.00  0.00    +0.000 A 
ATOM     17  N   UNL     1       0.827   9.407  20.209  0.00  0.00    +0.000 NA
BRANCH  12  19
ATOM     18  C   UNL     1      -1.140  11.045  18.632  0.00  0.00    +0.000 C 
ATOM     19  O   UNL     1       0.270  11.190  18.758  0.00  0.00    +0.000 OA
ENDBRANCH  12  19
ENDBRANCH   1  15
TORSDOF 3
ENDMDL
MODEL 6
REMARK VINA RESULT:      -6.6      1.423      1.429
REMARK  Name = 
REMARK  6 active torsions:
REMARK  status: ('A' for Active; 'I' for Inactive)
REMARK    1  A    between atoms: C_1  and  O_2
REMARK    2  A    between atoms: O_2  and  C_3
REMARK    3  A    between atoms: C_6  and  N_7
REMARK    4  A    between atoms: C_8  and  C_10
REMARK    5  A    between atoms: C_11  and  C_12
REMARK    6  A    between atoms: C_15  and  C_16
REMARK                            x       y       z     vdW  Elec       q    Type
REMARK                         _______ _______ _______ _____ _____    ______ ____
ROOT
ATOM      1  N   UNL     1       4.348   4.105  17.541  0.00  0.00    +0.000 N 
ATOM      2  C   UNL     1       3.302   4.895  17.982  0.00  0.00    +0.000 C 
ATOM      3  O   UNL     1       3.062   6.026  17.580  0.00  0.00    +0.000 OA
ATOM      4  H   UNL     1       4.403   3.163  17.906  0.00  0.00    +0.000 HD
ENDROOT
BRANCH   2   5
ATOM      5  C   UNL     1       2.436   4.276  18.965  0.00  0.00    +0.000 A 
ATOM      6  C   UNL     1       1.858   4.897  20.113  0.00  0.00    +0.000 A 
ATOM      7  C   UNL     1       1.956   6.305  20.570  0.00  0.00    +0.000 C 
ATOM      8  N   UNL     1       1.128   4.029  20.823  0.00  0.00    +0.000 NA
ATOM      9  O   UNL     1       1.248   2.819  20.178  0.00  0.00    +0.000 OA
ATOM     10  C   UNL     1       2.038   2.956  19.079  0.00  0.00    +0.000 A 
ATOM     11  C   UNL     1       2.320   1.705  18.347  0.00  0.00    +0.000 C 
ENDBRANCH   2   5
BRANCH   1  15
ATOM     12  C   UNL     1       7.292   5.262  14.831  0.00  0.00    +0.000 A 
ATOM     13  C   UNL     1       6.302   4.417  14.365  0.00  0.00    +0.000 A 
ATOM     14  C   UNL     1       5.301   4.012  15.248  0.00  0.00    +0.000 A 
ATOM     15  C   UNL     1       5.315   4.453  16.569  0.00  0.00    +0.000 A 
ATOM     16  C   UNL     1       6.368   5.291  16.936  0.00  0.00    +0.000 A 
ATOM     17  N   UNL     1       7.351   5.709  16.103  0.00  0.00    +0.000 NA
BRANCH  12  19
ATOM     18  C   UNL     1       7.896   5.321  12.577  0.00  0.00    +0.000 C 
ATOM     19  O   UNL     1       8.253   5.640  13.917  0.00  0.00    +0.000 OA
ENDBRANCH  12  19
ENDBRANCH   1  15
TORSDOF 3
ENDMDL
MODEL 7
REMARK VINA RESULT:      -6.6      3.569      6.022
REMARK  Name = 
REMARK  6 active torsions:
REMARK  status: ('A' for Active; 'I' for Inactive)
REMARK    1  A    between atoms: C_1  and  O_2
REMARK    2  A    between atoms: O_2  and  C_3
REMARK    3  A    between atoms: C_6  and  N_7
REMARK    4  A    between atoms: C_8  and  C_10
REMARK    5  A    between atoms: C_11  and  C_12
REMARK    6  A    between atoms: C_15  and  C_16
REMARK                            x       y       z     vdW  Elec       q    Type
REMARK                         _______ _______ _______ _____ _____    ______ ____
ROOT
ATOM      1  N   UNL     1       2.749   6.257  19.971  0.00  0.00    +0.000 N 
ATOM      2  C   UNL     1       2.427   5.034  19.409  0.00  0.00    +0.000 C 
ATOM      3  O   UNL     1       1.560   4.860  18.561  0.00  0.00    +0.000 OA
ATOM      4  H   UNL     1       3.528   6.278  20.616  0.00  0.00    +0.000 HD
ENDROOT
BRANCH   2   5
ATOM      5  C   UNL     1       3.230   3.917  19.865  0.00  0.00    +0.000 A 
ATOM      6  C   UNL     1       4.521   3.539  19.389  0.00  0.00    +0.000 A 
ATOM      7  C   UNL     1       5.373   4.187  18.362  0.00  0.00    +0.000 C 
ATOM      8  N   UNL     1       4.969   2.442  20.012  0.00  0.00    +0.000 NA
ATOM      9  O   UNL     1       3.965   2.061  20.873  0.00  0.00    +0.000 OA
ATOM     10  C   UNL     1       2.920   2.927  20.779  0.00  0.00    +0.000 A 
ATOM     11  C   UNL     1       1.738   2.576  21.590  0.00  0.00    +0.000 C 
ENDBRANCH   2   5
BRANCH   1  15
ATOM     12  C   UNL     1       1.070   9.918  18.914  0.00  0.00    +0.000 A 
ATOM     13  C   UNL     1       0.825   9.458  20.194  0.00  0.00    +0.000 A 
ATOM     14  C   UNL     1       1.374   8.235  20.579  0.00  0.00    +0.000 A 
ATOM     15  C   UNL     1       2.146   7.502  19.681  0.00  0.00    +0.000 A 
ATOM     16  C   UNL     1       2.317   8.054  18.411  0.00  0.00    +0.000 A 
ATOM     17  N   UNL     1       1.805   9.241  18.007  0.00  0.00    +0.000 NA
BRANCH  12  19
ATOM     18  C   UNL     1      -0.910  11.119  18.617  0.00  0.00    +0.000 C 
ATOM     19  O   UNL     1       0.512  11.136  18.585  0.00  0.00    +0.000 OA
ENDBRANCH  12  19
ENDBRANCH   1  15
TORSDOF 3
ENDMDL
MODEL 8
REMARK VINA RESULT:      -6.6      1.572      1.615
REMARK  Name = 
REMARK  6 active torsions:
REMARK  status: ('A' for Active; 'I' for Inactive)
REMARK    1  A    between atoms: C_1  and  O_2
REMARK    2  A    between atoms: O_2  and  C_3
REMARK    3  A    between atoms: C_6  and  N_7
REMARK    4  A    between atoms: C_8  and  C_10
REMARK    5  A    between atoms: C_11  and  C_12
REMARK    6  A    between atoms: C_15  and  C_16
REMARK                            x       y       z     vdW  Elec       q    Type
REMARK                         _______ _______ _______ _____ _____    ______ ____
ROOT
ATOM      1  N   UNL     1       4.003   4.734  17.334  0.00  0.00    +0.000 N 
ATOM      2  C   UNL     1       4.051   4.180  18.601  0.00  0.00    +0.000 C 
ATOM      3  O   UNL     1       5.057   3.723  19.127  0.00  0.00    +0.000 OA
ATOM      4  H   UNL     1       3.123   5.135  17.038  0.00  0.00    +0.000 HD
ENDROOT
BRANCH   2   5
ATOM      5  C   UNL     1       2.798   4.204  19.329  0.00  0.00    +0.000 A 
ATOM      6  C   UNL     1       2.167   5.343  19.914  0.00  0.00    +0.000 A 
ATOM      7  C   UNL     1       2.591   6.765  19.899  0.00  0.00    +0.000 C 
ATOM      8  N   UNL     1       1.030   5.007  20.535  0.00  0.00    +0.000 NA
ATOM      9  O   UNL     1       0.919   3.640  20.404  0.00  0.00    +0.000 OA
ATOM     10  C   UNL     1       1.977   3.155  19.700  0.00  0.00    +0.000 A 
ATOM     11  C   UNL     1       2.022   1.685  19.568  0.00  0.00    +0.000 C 
ENDBRANCH   2   5
BRANCH   1  15
ATOM     12  C   UNL     1       7.257   5.294  14.795  0.00  0.00    +0.000 A 
ATOM     13  C   UNL     1       6.364   4.291  14.465  0.00  0.00    +0.000 A 
ATOM     14  C   UNL     1       5.263   4.080  15.294  0.00  0.00    +0.000 A 
ATOM     15  C   UNL     1       5.084   4.865  16.431  0.00  0.00    +0.000 A 
ATOM     16  C   UNL     1       6.053   5.837  16.677  0.00  0.00    +0.000 A 
ATOM     17  N   UNL     1       7.129   6.075  15.888  0.00  0.00    +0.000 NA
BRANCH  12  19
ATOM     18  C   UNL     1       7.948   5.395  12.567  0.00  0.00    +0.000 C 
ATOM     19  O   UNL     1       8.323   5.469  13.938  0.00  0.00    +0.000 OA
ENDBRANCH  12  19
ENDBRANCH   1  15
TORSDOF 3
ENDMDL
MODEL 9
REMARK VINA RESULT:      -6.5      3.631      6.040
REMARK  Name = 
REMARK  6 active torsions:
REMARK  status: ('A' for Active; 'I' for Inactive)
REMARK    1  A    between atoms: C_1  and  O_2
REMARK    2  A    between atoms: O_2  and  C_3
REMARK    3  A    between atoms: C_6  and  N_7
REMARK    4  A    between atoms: C_8  and  C_10
REMARK    5  A    between atoms: C_11  and  C_12
REMARK    6  A    between atoms: C_15  and  C_16
REMARK                            x       y       z     vdW  Elec       q    Type
REMARK                         _______ _______ _______ _____ _____    ______ ____
ROOT
ATOM      1  N   UNL     1       2.874   6.270  19.835  0.00  0.00    +0.000 N 
ATOM      2  C   UNL     1       2.490   5.026  19.369  0.00  0.00    +0.000 C 
ATOM      3  O   UNL     1       1.500   4.810  18.681  0.00  0.00    +0.000 OA
ATOM      4  H   UNL     1       3.747   6.325  20.342  0.00  0.00    +0.000 HD
ENDROOT
BRANCH   2   5
ATOM      5  C   UNL     1       3.380   3.937  19.719  0.00  0.00    +0.000 A 
ATOM      6  C   UNL     1       3.138   2.904  20.674  0.00  0.00    +0.000 A 
ATOM      7  C   UNL     1       1.936   2.655  21.507  0.00  0.00    +0.000 C 
ATOM      8  N   UNL     1       4.182   2.071  20.768  0.00  0.00    +0.000 NA
ATOM      9  O   UNL     1       5.138   2.567  19.910  0.00  0.00    +0.000 OA
ATOM     10  C   UNL     1       4.672   3.687  19.294  0.00  0.00    +0.000 A 
ATOM     11  C   UNL     1       5.640   4.368  18.412  0.00  0.00    +0.000 C 
ENDBRANCH   2   5
BRANCH   1  15
ATOM     12  C   UNL     1       0.997   9.886  18.972  0.00  0.00    +0.000 A 
ATOM     13  C   UNL     1       0.809   9.364  20.238  0.00  0.00    +0.000 A 
ATOM     14  C   UNL     1       1.426   8.155  20.559  0.00  0.00    +0.000 A 
ATOM     15  C   UNL     1       2.205   7.496  19.611  0.00  0.00    +0.000 A 
ATOM     16  C   UNL     1       2.315   8.105  18.361  0.00  0.00    +0.000 A 
ATOM     17  N   UNL     1       1.736   9.282  18.019  0.00  0.00    +0.000 NA
BRANCH  12  19
ATOM     18  C   UNL     1      -0.567  11.455  19.711  0.00  0.00    +0.000 C 
ATOM     19  O   UNL     1       0.374  11.088  18.708  0.00  0.00    +0.000 OA
ENDBRANCH  12  19
ENDBRANCH   1  15
TORSDOF 3
ENDMDL
