MODEL 1
REMARK VINA RESULT:      -7.6      0.000      0.000
REMARK  Name = 
REMARK  8 active torsions:
REMARK  status: ('A' for Active; 'I' for Inactive)
REMARK    1  A    between atoms: C_1  and  C_2
REMARK    2  A    between atoms: C_2  and  O_3
REMARK    3  A    between atoms: O_3  and  P_4
REMARK    4  A    between atoms: P_4  and  C_6
REMARK    5  A    between atoms: P_4  and  C_15
REMARK    6  A    between atoms: C_7  and  C_9
REMARK    7  A    between atoms: C_15  and  O_16
REMARK    8  A    between atoms: C_15  and  C_17
REMARK                            x       y       z     vdW  Elec       q    Type
REMARK                         _______ _______ _______ _____ _____    ______ ____
ROOT
ATOM      1  P   UNL     1       4.397   3.600  19.235  0.00  0.00    +0.000 P 
ATOM      2  O   UNL     1       3.691   2.584  18.318  0.00  0.00    +0.000 OA
ENDROOT
BRANCH   1   3
ATOM      3  C   UNL     1       3.783   5.294  19.388  0.00  0.00    +0.000 C 
ATOM      4  C   UNL     1       2.702   5.782  18.745  0.00  0.00    +0.000 C 
ATOM      5 CL   UNL     1       1.734   4.815  17.708  0.00  0.00    +0.000 Cl
BRANCH   4   6
ATOM      6  C   UNL     1       2.317   7.189  18.909  0.00  0.00    +0.000 A 
ATOM      7  C   UNL     1       1.777   7.643  20.120  0.00  0.00    +0.000 A 
ATOM      8  C   UNL     1       1.277   8.944  20.228  0.00  0.00    +0.000 A 
ATOM      9  C   UNL     1       1.320   9.804  19.131  0.00  0.00    +0.000 A 
ATOM     10  C   UNL     1       1.898   9.376  17.936  0.00  0.00    +0.000 A 
ATOM     11  C   UNL     1       2.402   8.078  17.830  0.00  0.00    +0.000 A 
ENDBRANCH   4   6
ENDBRANCH   1   3
BRANCH   1  12
ATOM     12  O   UNL     1       3.360   3.159  20.548  0.00  0.00    +0.000 OA
BRANCH  12  14
ATOM     13  C   UNL     1       0.970   3.075  20.688  0.00  0.00    +0.000 C 
ATOM     14  C   UNL     1       2.218   2.420  20.132  0.00  0.00    +0.000 C 
ENDBRANCH  12  14
ENDBRANCH   1  12
BRANCH   1  15
ATOM     15  C   UNL     1       5.494   4.067  17.847  0.00  0.00    +0.000 C 
BRANCH  15  16
ATOM     16  C   UNL     1       6.292   5.375  17.863  0.00  0.00    +0.000 A 
ATOM     17  C   UNL     1       7.392   5.524  18.725  0.00  0.00    +0.000 A 
ATOM     18  C   UNL     1       8.133   6.708  18.755  0.00  0.00    +0.000 A 
ATOM     19  C   UNL     1       7.790   7.754  17.909  0.00  0.00    +0.000 A 
ATOM     20  F   UNL     1       8.518   8.879  17.920  0.00  0.00    +0.000 F 
ATOM     21  C   UNL     1       6.707   7.643  17.050  0.00  0.00    +0.000 A 
ATOM     22  C   UNL     1       5.956   6.465  17.035  0.00  0.00    +0.000 A 
ENDBRANCH  15  16
BRANCH  15  23
ATOM     23  O   UNL     1       4.645   4.063  16.675  0.00  0.00    +0.000 OA
ATOM     24  H   UNL     1       3.889   3.494  16.932  0.00  0.00    +0.000 HD
ENDBRANCH  15  23
ENDBRANCH   1  15
TORSDOF 7
ENDMDL
MODEL 2
REMARK VINA RESULT:      -7.5      3.524      5.374
REMARK  Name = 
REMARK  8 active torsions:
REMARK  status: ('A' for Active; 'I' for Inactive)
REMARK    1  A    between atoms: C_1  and  C_2
REMARK    2  A    between atoms: C_2  and  O_3
REMARK    3  A    between atoms: O_3  and  P_4
REMARK    4  A    between atoms: P_4  and  C_6
REMARK    5  A    between atoms: P_4  and  C_15
REMARK    6  A    between atoms: C_7  and  C_9
REMARK    7  A    between atoms: C_15  and  O_16
REMARK    8  A    between atoms: C_15  and  C_17
REMARK                            x       y       z     vdW  Elec       q    Type
REMARK                         _______ _______ _______ _____ _____    ______ ____
ROOT
ATOM      1  P   UNL     1       6.585   5.028  17.284  0.00  0.00    +0.000 P 
ATOM      2  O   UNL     1       7.641   4.222  16.504  0.00  0.00    +0.000 OA
ENDROOT
BRANCH   1   3
ATOM      3  C   UNL     1       5.114   4.222  17.959  0.00  0.00    +0.000 C 
ATOM      4  C   UNL     1       4.021   4.869  18.414  0.00  0.00    +0.000 C 
ATOM      5 CL   UNL     1       3.880   6.580  18.370  0.00  0.00    +0.000 Cl
BRANCH   4   6
ATOM      6  C   UNL     1       2.899   4.115  18.983  0.00  0.00    +0.000 A 
ATOM      7  C   UNL     1       2.235   3.143  18.222  0.00  0.00    +0.000 A 
ATOM      8  C   UNL     1       1.078   2.529  18.711  0.00  0.00    +0.000 A 
ATOM      9  C   UNL     1       0.580   2.876  19.967  0.00  0.00    +0.000 A 
ATOM     10  C   UNL     1       1.259   3.806  20.751  0.00  0.00    +0.000 A 
ATOM     11  C   UNL     1       2.419   4.415  20.264  0.00  0.00    +0.000 A 
ENDBRANCH   4   6
ENDBRANCH   1   3
BRANCH   1  12
ATOM     12  O   UNL     1       7.397   4.681  18.771  0.00  0.00    +0.000 OA
BRANCH  12  14
ATOM     13  C   UNL     1       7.986   6.986  18.493  0.00  0.00    +0.000 C 
ATOM     14  C   UNL     1       7.793   5.851  19.477  0.00  0.00    +0.000 C 
ENDBRANCH  12  14
ENDBRANCH   1  12
BRANCH   1  15
ATOM     15  C   UNL     1       5.726   5.396  15.710  0.00  0.00    +0.000 C 
BRANCH  15  16
ATOM     16  C   UNL     1       6.213   4.817  14.378  0.00  0.00    +0.000 A 
ATOM     17  C   UNL     1       5.518   3.758  13.769  0.00  0.00    +0.000 A 
ATOM     18  C   UNL     1       5.947   3.216  12.554  0.00  0.00    +0.000 A 
ATOM     19  C   UNL     1       7.069   3.739  11.926  0.00  0.00    +0.000 A 
ATOM     20  F   UNL     1       7.463   3.235  10.749  0.00  0.00    +0.000 F 
ATOM     21  C   UNL     1       7.781   4.781  12.503  0.00  0.00    +0.000 A 
ATOM     22  C   UNL     1       7.362   5.309  13.727  0.00  0.00    +0.000 A 
ENDBRANCH  15  16
BRANCH  15  23
ATOM     23  O   UNL     1       5.723   6.840  15.609  0.00  0.00    +0.000 OA
ATOM     24  H   UNL     1       5.017   7.030  14.955  0.00  0.00    +0.000 HD
ENDBRANCH  15  23
ENDBRANCH   1  15
TORSDOF 7
ENDMDL
MODEL 3
REMARK VINA RESULT:      -7.4      3.775      6.980
REMARK  Name = 
REMARK  8 active torsions:
REMARK  status: ('A' for Active; 'I' for Inactive)
REMARK    1  A    between atoms: C_1  and  C_2
REMARK    2  A    between atoms: C_2  and  O_3
REMARK    3  A    between atoms: O_3  and  P_4
REMARK    4  A    between atoms: P_4  and  C_6
REMARK    5  A    between atoms: P_4  and  C_15
REMARK    6  A    between atoms: C_7  and  C_9
REMARK    7  A    between atoms: C_15  and  O_16
REMARK    8  A    between atoms: C_15  and  C_17
REMARK                            x       y       z     vdW  Elec       q    Type
REMARK                         _______ _______ _______ _____ _____    ______ ____
ROOT
ATOM      1  P   UNL     1       5.833   4.375  18.436  0.00  0.00    +0.000 P 
ATOM      2  O   UNL     1       5.226   5.722  18.870  0.00  0.00    +0.000 OA
ENDROOT
BRANCH   1   3
ATOM      3  C   UNL     1       6.288   4.075  16.712  0.00  0.00    +0.000 C 
ATOM      4  C   UNL     1       5.995   4.898  15.684  0.00  0.00    +0.000 C 
ATOM      5 CL   UNL     1       5.166   6.385  15.903  0.00  0.00    +0.000 Cl
BRANCH   4   6
ATOM      6  C   UNL     1       6.375   4.534  14.314  0.00  0.00    +0.000 A 
ATOM      7  C   UNL     1       7.441   5.181  13.675  0.00  0.00    +0.000 A 
ATOM      8  C   UNL     1       7.711   4.937  12.324  0.00  0.00    +0.000 A 
ATOM      9  C   UNL     1       6.922   4.040  11.605  0.00  0.00    +0.000 A 
ATOM     10  C   UNL     1       5.889   3.356  12.244  0.00  0.00    +0.000 A 
ATOM     11  C   UNL     1       5.624   3.595  13.595  0.00  0.00    +0.000 A 
ENDBRANCH   4   6
ENDBRANCH   1   3
BRANCH   1  12
ATOM     12  O   UNL     1       7.428   4.993  18.697  0.00  0.00    +0.000 OA
BRANCH  12  14
ATOM     13  C   UNL     1       7.995   7.245  18.110  0.00  0.00    +0.000 C 
ATOM     14  C   UNL     1       7.436   6.331  19.181  0.00  0.00    +0.000 C 
ENDBRANCH  12  14
ENDBRANCH   1  12
BRANCH   1  15
ATOM     15  C   UNL     1       4.146   3.721  18.160  0.00  0.00    +0.000 C 
BRANCH  15  16
ATOM     16  C   UNL     1       3.214   3.392  19.331  0.00  0.00    +0.000 A 
ATOM     17  C   UNL     1       1.885   3.848  19.328  0.00  0.00    +0.000 A 
ATOM     18  C   UNL     1       1.020   3.559  20.386  0.00  0.00    +0.000 A 
ATOM     19  C   UNL     1       1.471   2.794  21.454  0.00  0.00    +0.000 A 
ATOM     20  F   UNL     1       0.632   2.496  22.455  0.00  0.00    +0.000 F 
ATOM     21  C   UNL     1       2.779   2.333  21.491  0.00  0.00    +0.000 A 
ATOM     22  C   UNL     1       3.648   2.639  20.441  0.00  0.00    +0.000 A 
ENDBRANCH  15  16
BRANCH  15  23
ATOM     23  O   UNL     1       4.329   2.523  17.369  0.00  0.00    +0.000 OA
ATOM     24  H   UNL     1       4.775   1.900  17.981  0.00  0.00    +0.000 HD
ENDBRANCH  15  23
ENDBRANCH   1  15
TORSDOF 7
ENDMDL
MODEL 4
REMARK VINA RESULT:      -7.4      1.328      1.820
REMARK  Name = 
REMARK  8 active torsions:
REMARK  status: ('A' for Active; 'I' for Inactive)
REMARK    1  A    between atoms: C_1  and  C_2
REMARK    2  A    between atoms: C_2  and  O_3
REMARK    3  A    between atoms: O_3  and  P_4
REMARK    4  A    between atoms: P_4  and  C_6
REMARK    5  A    between atoms: P_4  and  C_15
REMARK    6  A    between atoms: C_7  and  C_9
REMARK    7  A    between atoms: C_15  and  O_16
REMARK    8  A    between atoms: C_15  and  C_17
REMARK                            x       y       z     vdW  Elec       q    Type
REMARK                         _______ _______ _______ _____ _____    ______ ____
ROOT
ATOM      1  P   UNL     1       3.154   3.856  18.546  0.00  0.00    +0.000 P 
ATOM      2  O   UNL     1       3.835   3.138  17.366  0.00  0.00    +0.000 OA
ENDROOT
BRANCH   1   3
ATOM      3  C   UNL     1       2.788   5.626  18.468  0.00  0.00    +0.000 C 
ATOM      4  C   UNL     1       2.290   6.354  19.489  0.00  0.00    +0.000 C 
ATOM      5 CL   UNL     1       1.974   5.677  21.034  0.00  0.00    +0.000 Cl
BRANCH   4   6
ATOM      6  C   UNL     1       1.989   7.778  19.302  0.00  0.00    +0.000 A 
ATOM      7  C   UNL     1       1.316   8.501  20.297  0.00  0.00    +0.000 A 
ATOM      8  C   UNL     1       0.902   9.815  20.059  0.00  0.00    +0.000 A 
ATOM      9  C   UNL     1       1.163  10.419  18.830  0.00  0.00    +0.000 A 
ATOM     10  C   UNL     1       1.873   9.725  17.851  0.00  0.00    +0.000 A 
ATOM     11  C   UNL     1       2.292   8.414  18.091  0.00  0.00    +0.000 A 
ENDBRANCH   4   6
ENDBRANCH   1   3
BRANCH   1  12
ATOM     12  O   UNL     1       1.599   3.555  17.851  0.00  0.00    +0.000 OA
BRANCH  12  14
ATOM     13  C   UNL     1       1.077   2.630  19.997  0.00  0.00    +0.000 C 
ATOM     14  C   UNL     1       0.892   2.505  18.499  0.00  0.00    +0.000 C 
ENDBRANCH  12  14
ENDBRANCH   1  12
BRANCH   1  15
ATOM     15  C   UNL     1       4.799   4.175  19.281  0.00  0.00    +0.000 C 
BRANCH  15  16
ATOM     16  C   UNL     1       5.744   5.233  18.700  0.00  0.00    +0.000 A 
ATOM     17  C   UNL     1       5.370   5.969  17.563  0.00  0.00    +0.000 A 
ATOM     18  C   UNL     1       6.217   6.938  17.018  0.00  0.00    +0.000 A 
ATOM     19  C   UNL     1       7.444   7.192  17.615  0.00  0.00    +0.000 A 
ATOM     20  F   UNL     1       8.244   8.139  17.106  0.00  0.00    +0.000 F 
ATOM     21  C   UNL     1       7.847   6.479  18.735  0.00  0.00    +0.000 A 
ATOM     22  C   UNL     1       7.007   5.498  19.267  0.00  0.00    +0.000 A 
ENDBRANCH  15  16
BRANCH  15  23
ATOM     23  O   UNL     1       5.477   2.896  19.263  0.00  0.00    +0.000 OA
ATOM     24  H   UNL     1       5.562   2.686  18.309  0.00  0.00    +0.000 HD
ENDBRANCH  15  23
ENDBRANCH   1  15
TORSDOF 7
ENDMDL
MODEL 5
REMARK VINA RESULT:      -7.4      0.191      1.023
REMARK  Name = 
REMARK  8 active torsions:
REMARK  status: ('A' for Active; 'I' for Inactive)
REMARK    1  A    between atoms: C_1  and  C_2
REMARK    2  A    between atoms: C_2  and  O_3
REMARK    3  A    between atoms: O_3  and  P_4
REMARK    4  A    between atoms: P_4  and  C_6
REMARK    5  A    between atoms: P_4  and  C_15
REMARK    6  A    between atoms: C_7  and  C_9
REMARK    7  A    between atoms: C_15  and  O_16
REMARK    8  A    between atoms: C_15  and  C_17
REMARK                            x       y       z     vdW  Elec       q    Type
REMARK                         _______ _______ _______ _____ _____    ______ ____
ROOT
ATOM      1  P   UNL     1       4.439   3.756  19.231  0.00  0.00    +0.000 P 
ATOM      2  O   UNL     1       3.753   2.711  18.332  0.00  0.00    +0.000 OA
ENDROOT
BRANCH   1   3
ATOM      3  C   UNL     1       3.785   5.436  19.366  0.00  0.00    +0.000 C 
ATOM      4  C   UNL     1       2.683   5.886  18.732  0.00  0.00    +0.000 C 
ATOM      5 CL   UNL     1       1.723   4.879  17.727  0.00  0.00    +0.000 Cl
BRANCH   4   6
ATOM      6  C   UNL     1       2.266   7.286  18.880  0.00  0.00    +0.000 A 
ATOM      7  C   UNL     1       1.776   7.758  20.105  0.00  0.00    +0.000 A 
ATOM      8  C   UNL     1       1.245   9.048  20.205  0.00  0.00    +0.000 A 
ATOM      9  C   UNL     1       1.205   9.877  19.084  0.00  0.00    +0.000 A 
ATOM     10  C   UNL     1       1.732   9.433  17.873  0.00  0.00    +0.000 A 
ATOM     11  C   UNL     1       2.269   8.146  17.774  0.00  0.00    +0.000 A 
ENDBRANCH   4   6
ENDBRANCH   1   3
BRANCH   1  12
ATOM     12  O   UNL     1       3.420   3.307  20.555  0.00  0.00    +0.000 OA
BRANCH  12  14
ATOM     13  C   UNL     1       1.164   2.773  21.157  0.00  0.00    +0.000 C 
ATOM     14  C   UNL     1       2.277   2.562  20.152  0.00  0.00    +0.000 C 
ENDBRANCH  12  14
ENDBRANCH   1  12
BRANCH   1  15
ATOM     15  C   UNL     1       5.517   4.231  17.831  0.00  0.00    +0.000 C 
BRANCH  15  16
ATOM     16  C   UNL     1       6.352   5.515  17.864  0.00  0.00    +0.000 A 
ATOM     17  C   UNL     1       6.013   6.602  17.041  0.00  0.00    +0.000 A 
ATOM     18  C   UNL     1       6.761   7.782  17.056  0.00  0.00    +0.000 A 
ATOM     19  C   UNL     1       7.851   7.894  17.910  0.00  0.00    +0.000 A 
ATOM     20  F   UNL     1       8.552   9.035  17.941  0.00  0.00    +0.000 F 
ATOM     21  C   UNL     1       8.216   6.837  18.731  0.00  0.00    +0.000 A 
ATOM     22  C   UNL     1       7.478   5.652  18.701  0.00  0.00    +0.000 A 
ENDBRANCH  15  16
BRANCH  15  23
ATOM     23  O   UNL     1       4.642   4.282  16.679  0.00  0.00    +0.000 OA
ATOM     24  H   UNL     1       5.037   4.978  16.112  0.00  0.00    +0.000 HD
ENDBRANCH  15  23
ENDBRANCH   1  15
TORSDOF 7
ENDMDL
MODEL 6
REMARK VINA RESULT:      -7.3      3.902      6.913
REMARK  Name = 
REMARK  8 active torsions:
REMARK  status: ('A' for Active; 'I' for Inactive)
REMARK    1  A    between atoms: C_1  and  C_2
REMARK    2  A    between atoms: C_2  and  O_3
REMARK    3  A    between atoms: O_3  and  P_4
REMARK    4  A    between atoms: P_4  and  C_6
REMARK    5  A    between atoms: P_4  and  C_15
REMARK    6  A    between atoms: C_7  and  C_9
REMARK    7  A    between atoms: C_15  and  O_16
REMARK    8  A    between atoms: C_15  and  C_17
REMARK                            x       y       z     vdW  Elec       q    Type
REMARK                         _______ _______ _______ _____ _____    ______ ____
ROOT
ATOM      1  P   UNL     1       5.654   4.182  18.273  0.00  0.00    +0.000 P 
ATOM      2  O   UNL     1       5.039   5.501  18.778  0.00  0.00    +0.000 OA
ENDROOT
BRANCH   1   3
ATOM      3  C   UNL     1       6.026   3.943  16.520  0.00  0.00    +0.000 C 
ATOM      4  C   UNL     1       5.817   4.864  15.556  0.00  0.00    +0.000 C 
ATOM      5 CL   UNL     1       5.192   6.426  15.896  0.00  0.00    +0.000 Cl
BRANCH   4   6
ATOM      6  C   UNL     1       6.117   4.547  14.155  0.00  0.00    +0.000 A 
ATOM      7  C   UNL     1       5.331   3.626  13.449  0.00  0.00    +0.000 A 
ATOM      8  C   UNL     1       5.702   3.217  12.164  0.00  0.00    +0.000 A 
ATOM      9  C   UNL     1       6.856   3.730  11.573  0.00  0.00    +0.000 A 
ATOM     10  C   UNL     1       7.618   4.682  12.248  0.00  0.00    +0.000 A 
ATOM     11  C   UNL     1       7.244   5.095  13.529  0.00  0.00    +0.000 A 
ENDBRANCH   4   6
ENDBRANCH   1   3
BRANCH   1  12
ATOM     12  O   UNL     1       7.245   4.831  18.472  0.00  0.00    +0.000 OA
BRANCH  12  14
ATOM     13  C   UNL     1       8.159   7.037  18.659  0.00  0.00    +0.000 C 
ATOM     14  C   UNL     1       7.277   5.987  19.301  0.00  0.00    +0.000 C 
ENDBRANCH  12  14
ENDBRANCH   1  12
BRANCH   1  15
ATOM     15  C   UNL     1       3.971   3.495  18.063  0.00  0.00    +0.000 C 
BRANCH  15  16
ATOM     16  C   UNL     1       3.058   3.234  19.266  0.00  0.00    +0.000 A 
ATOM     17  C   UNL     1       3.572   2.642  20.431  0.00  0.00    +0.000 A 
ATOM     18  C   UNL     1       2.756   2.395  21.538  0.00  0.00    +0.000 A 
ATOM     19  C   UNL     1       1.416   2.755  21.497  0.00  0.00    +0.000 A 
ATOM     20  F   UNL     1       0.640   2.541  22.569  0.00  0.00    +0.000 F 
ATOM     21  C   UNL     1       0.874   3.336  20.360  0.00  0.00    +0.000 A 
ATOM     22  C   UNL     1       1.687   3.564  19.248  0.00  0.00    +0.000 A 
ENDBRANCH  15  16
BRANCH  15  23
ATOM     23  O   UNL     1       4.156   2.249  17.349  0.00  0.00    +0.000 OA
ATOM     24  H   UNL     1       3.811   1.569  17.966  0.00  0.00    +0.000 HD
ENDBRANCH  15  23
ENDBRANCH   1  15
TORSDOF 7
ENDMDL
MODEL 7
REMARK VINA RESULT:      -7.3      3.940      6.933
REMARK  Name = 
REMARK  8 active torsions:
REMARK  status: ('A' for Active; 'I' for Inactive)
REMARK    1  A    between atoms: C_1  and  C_2
REMARK    2  A    between atoms: C_2  and  O_3
REMARK    3  A    between atoms: O_3  and  P_4
REMARK    4  A    between atoms: P_4  and  C_6
REMARK    5  A    between atoms: P_4  and  C_15
REMARK    6  A    between atoms: C_7  and  C_9
REMARK    7  A    between atoms: C_15  and  O_16
REMARK    8  A    between atoms: C_15  and  C_17
REMARK                            x       y       z     vdW  Elec       q    Type
REMARK                         _______ _______ _______ _____ _____    ______ ____
ROOT
ATOM      1  P   UNL     1       5.143   4.904  18.193  0.00  0.00    +0.000 P 
ATOM      2  O   UNL     1       4.125   6.052  18.330  0.00  0.00    +0.000 OA
ENDROOT
BRANCH   1   3
ATOM      3  C   UNL     1       5.778   4.415  16.572  0.00  0.00    +0.000 C 
ATOM      4  C   UNL     1       5.695   5.166  15.454  0.00  0.00    +0.000 C 
ATOM      5 CL   UNL     1       4.991   6.732  15.448  0.00  0.00    +0.000 Cl
BRANCH   4   6
ATOM      6  C   UNL     1       6.207   4.651  14.179  0.00  0.00    +0.000 A 
ATOM      7  C   UNL     1       7.365   5.195  13.605  0.00  0.00    +0.000 A 
ATOM      8  C   UNL     1       7.769   4.805  12.324  0.00  0.00    +0.000 A 
ATOM      9  C   UNL     1       7.025   3.865  11.611  0.00  0.00    +0.000 A 
ATOM     10  C   UNL     1       5.899   3.284  12.193  0.00  0.00    +0.000 A 
ATOM     11  C   UNL     1       5.498   3.670  13.475  0.00  0.00    +0.000 A 
ENDBRANCH   4   6
ENDBRANCH   1   3
BRANCH   1  12
ATOM     12  O   UNL     1       6.451   6.030  18.311  0.00  0.00    +0.000 OA
BRANCH  12  14
ATOM     13  C   UNL     1       8.149   5.579  19.939  0.00  0.00    +0.000 C 
ATOM     14  C   UNL     1       7.713   5.401  18.499  0.00  0.00    +0.000 C 
ENDBRANCH  12  14
ENDBRANCH   1  12
BRANCH   1  15
ATOM     15  C   UNL     1       3.759   3.713  18.069  0.00  0.00    +0.000 C 
BRANCH  15  16
ATOM     16  C   UNL     1       2.899   3.356  19.285  0.00  0.00    +0.000 A 
ATOM     17  C   UNL     1       3.488   2.793  20.429  0.00  0.00    +0.000 A 
ATOM     18  C   UNL     1       2.721   2.460  21.549  0.00  0.00    +0.000 A 
ATOM     19  C   UNL     1       1.354   2.703  21.542  0.00  0.00    +0.000 A 
ATOM     20  F   UNL     1       0.625   2.408  22.626  0.00  0.00    +0.000 F 
ATOM     21  C   UNL     1       0.739   3.254  20.427  0.00  0.00    +0.000 A 
ATOM     22  C   UNL     1       1.505   3.568  19.302  0.00  0.00    +0.000 A 
ENDBRANCH  15  16
BRANCH  15  23
ATOM     23  O   UNL     1       4.351   2.497  17.553  0.00  0.00    +0.000 OA
ATOM     24  H   UNL     1       4.414   1.913  18.338  0.00  0.00    +0.000 HD
ENDBRANCH  15  23
ENDBRANCH   1  15
TORSDOF 7
ENDMDL
MODEL 8
REMARK VINA RESULT:      -7.2      3.394      5.208
REMARK  Name = 
REMARK  8 active torsions:
REMARK  status: ('A' for Active; 'I' for Inactive)
REMARK    1  A    between atoms: C_1  and  C_2
REMARK    2  A    between atoms: C_2  and  O_3
REMARK    3  A    between atoms: O_3  and  P_4
REMARK    4  A    between atoms: P_4  and  C_6
REMARK    5  A    between atoms: P_4  and  C_15
REMARK    6  A    between atoms: C_7  and  C_9
REMARK    7  A    between atoms: C_15  and  O_16
REMARK    8  A    between atoms: C_15  and  C_17
REMARK                            x       y       z     vdW  Elec       q    Type
REMARK                         _______ _______ _______ _____ _____    ______ ____
ROOT
ATOM      1  P   UNL     1       6.567   5.107  17.250  0.00  0.00    +0.000 P 
ATOM      2  O   UNL     1       7.969   4.534  17.532  0.00  0.00    +0.000 OA
ENDROOT
BRANCH   1   3
ATOM      3  C   UNL     1       5.112   4.468  18.113  0.00  0.00    +0.000 C 
ATOM      4  C   UNL     1       3.950   5.137  18.261  0.00  0.00    +0.000 C 
ATOM      5 CL   UNL     1       3.696   6.699  17.598  0.00  0.00    +0.000 Cl
BRANCH   4   6
ATOM      6  C   UNL     1       2.845   4.538  19.019  0.00  0.00    +0.000 A 
ATOM      7  C   UNL     1       2.737   4.743  20.401  0.00  0.00    +0.000 A 
ATOM      8  C   UNL     1       1.771   4.056  21.145  0.00  0.00    +0.000 A 
ATOM      9  C   UNL     1       0.903   3.167  20.512  0.00  0.00    +0.000 A 
ATOM     10  C   UNL     1       0.973   2.992  19.131  0.00  0.00    +0.000 A 
ATOM     11  C   UNL     1       1.934   3.682  18.388  0.00  0.00    +0.000 A 
ENDBRANCH   4   6
ENDBRANCH   1   3
BRANCH   1  12
ATOM     12  O   UNL     1       6.762   6.253  18.532  0.00  0.00    +0.000 OA
BRANCH  12  14
ATOM     13  C   UNL     1       7.898   8.205  17.735  0.00  0.00    +0.000 C 
ATOM     14  C   UNL     1       8.024   6.908  18.507  0.00  0.00    +0.000 C 
ENDBRANCH  12  14
ENDBRANCH   1  12
BRANCH   1  15
ATOM     15  C   UNL     1       6.362   3.896  15.894  0.00  0.00    +0.000 C 
BRANCH  15  16
ATOM     16  C   UNL     1       6.702   4.252  14.444  0.00  0.00    +0.000 A 
ATOM     17  C   UNL     1       6.102   3.555  13.382  0.00  0.00    +0.000 A 
ATOM     18  C   UNL     1       6.400   3.865  12.053  0.00  0.00    +0.000 A 
ATOM     19  C   UNL     1       7.292   4.891  11.769  0.00  0.00    +0.000 A 
ATOM     20  F   UNL     1       7.556   5.204  10.494  0.00  0.00    +0.000 F 
ATOM     21  C   UNL     1       7.906   5.596  12.794  0.00  0.00    +0.000 A 
ATOM     22  C   UNL     1       7.621   5.272  14.122  0.00  0.00    +0.000 A 
ENDBRANCH  15  16
BRANCH  15  23
ATOM     23  O   UNL     1       4.972   3.494  15.953  0.00  0.00    +0.000 OA
ATOM     24  H   UNL     1       4.574   3.899  15.154  0.00  0.00    +0.000 HD
ENDBRANCH  15  23
ENDBRANCH   1  15
TORSDOF 7
ENDMDL
MODEL 9
REMARK VINA RESULT:      -7.2      1.335      1.840
REMARK  Name = 
REMARK  8 active torsions:
REMARK  status: ('A' for Active; 'I' for Inactive)
REMARK    1  A    between atoms: C_1  and  C_2
REMARK    2  A    between atoms: C_2  and  O_3
REMARK    3  A    between atoms: O_3  and  P_4
REMARK    4  A    between atoms: P_4  and  C_6
REMARK    5  A    between atoms: P_4  and  C_15
REMARK    6  A    between atoms: C_7  and  C_9
REMARK    7  A    between atoms: C_15  and  O_16
REMARK    8  A    between atoms: C_15  and  C_17
REMARK                            x       y       z     vdW  Elec       q    Type
REMARK                         _______ _______ _______ _____ _____    ______ ____
ROOT
ATOM      1  P   UNL     1       3.107   3.829  18.550  0.00  0.00    +0.000 P 
ATOM      2  O   UNL     1       3.853   3.121  17.404  0.00  0.00    +0.000 OA
ENDROOT
BRANCH   1   3
ATOM      3  C   UNL     1       2.656   5.575  18.424  0.00  0.00    +0.000 C 
ATOM      4  C   UNL     1       2.202   6.329  19.448  0.00  0.00    +0.000 C 
ATOM      5 CL   UNL     1       2.032   5.711  21.040  0.00  0.00    +0.000 Cl
BRANCH   4   6
ATOM      6  C   UNL     1       1.824   7.728  19.223  0.00  0.00    +0.000 A 
ATOM      7  C   UNL     1       2.131   8.364  18.013  0.00  0.00    +0.000 A 
ATOM      8  C   UNL     1       1.901   9.735  17.854  0.00  0.00    +0.000 A 
ATOM      9  C   UNL     1       1.356  10.478  18.901  0.00  0.00    +0.000 A 
ATOM     10  C   UNL     1       1.004   9.845  20.092  0.00  0.00    +0.000 A 
ATOM     11  C   UNL     1       1.228   8.475  20.248  0.00  0.00    +0.000 A 
ENDBRANCH   4   6
ENDBRANCH   1   3
BRANCH   1  12
ATOM     12  O   UNL     1       1.587   3.436  17.822  0.00  0.00    +0.000 OA
BRANCH  12  14
ATOM     13  C   UNL     1       0.987   2.688  20.017  0.00  0.00    +0.000 C 
ATOM     14  C   UNL     1       0.874   2.428  18.529  0.00  0.00    +0.000 C 
ENDBRANCH  12  14
ENDBRANCH   1  12
BRANCH   1  15
ATOM     15  C   UNL     1       4.714   4.244  19.320  0.00  0.00    +0.000 C 
BRANCH  15  16
ATOM     16  C   UNL     1       5.652   5.286  18.701  0.00  0.00    +0.000 A 
ATOM     17  C   UNL     1       6.933   5.495  19.239  0.00  0.00    +0.000 A 
ATOM     18  C   UNL     1       7.803   6.440  18.689  0.00  0.00    +0.000 A 
ATOM     19  C   UNL     1       7.405   7.178  17.582  0.00  0.00    +0.000 A 
ATOM     20  F   UNL     1       8.250   8.066  17.041  0.00  0.00    +0.000 F 
ATOM     21  C   UNL     1       6.145   7.001  17.030  0.00  0.00    +0.000 A 
ATOM     22  C   UNL     1       5.270   6.069  17.592  0.00  0.00    +0.000 A 
ENDBRANCH  15  16
BRANCH  15  23
ATOM     23  O   UNL     1       5.425   2.987  19.415  0.00  0.00    +0.000 OA
ATOM     24  H   UNL     1       6.343   3.250  19.636  0.00  0.00    +0.000 HD
ENDBRANCH  15  23
ENDBRANCH   1  15
TORSDOF 7
ENDMDL
