MODEL 1
REMARK VINA RESULT:      -8.0      0.000      0.000
REMARK  Name = 
REMARK  8 active torsions:
REMARK  status: ('A' for Active; 'I' for Inactive)
REMARK    1  A    between atoms: C_1  and  C_2
REMARK    2  A    between atoms: C_2  and  C_3
REMARK    3  A    between atoms: C_2  and  C_4
REMARK    4  A    between atoms: C_2  and  N_23
REMARK    5  A    between atoms: C_4  and  N_5
REMARK    6  A    between atoms: C_6  and  C_8
REMARK    7  A    between atoms: C_11  and  C_12
REMARK    8  A    between atoms: C_16  and  C_17
REMARK                            x       y       z     vdW  Elec       q    Type
REMARK                         _______ _______ _______ _____ _____    ______ ____
ROOT
ATOM      1  C   UNL     1       2.037   8.012  19.012  0.00  0.00    +0.000 A 
ATOM      2  C   UNL     1       2.325   8.653  17.824  0.00  0.00    +0.000 A 
ATOM      3  C   UNL     1       1.543   9.835  17.797  0.00  0.00    +0.000 A 
ATOM      4  C   UNL     1       0.806   9.853  18.966  0.00  0.00    +0.000 A 
ATOM      5  O   UNL     1       1.116   8.748  19.710  0.00  0.00    +0.000 OA
ENDROOT
BRANCH   4   6
ATOM      6  C   UNL     1      -0.206  10.746  19.526  0.00  0.00    +0.000 A 
ATOM      7  C   UNL     1      -1.011  11.533  18.692  0.00  0.00    +0.000 A 
ATOM      8  C   UNL     1      -2.005  12.360  19.222  0.00  0.00    +0.000 A 
ATOM      9  C   UNL     1      -2.204  12.420  20.600  0.00  0.00    +0.000 A 
ATOM     10  C   UNL     1      -1.407  11.656  21.461  0.00  0.00    +0.000 A 
ATOM     11  C   UNL     1      -0.413  10.825  20.914  0.00  0.00    +0.000 A 
BRANCH  10  12
ATOM     12  C   UNL     1      -1.593  11.709  22.957  0.00  0.00    +0.000 C 
ATOM     13  F   UNL     1      -1.037  10.651  23.612  0.00  0.00    +0.000 F 
ATOM     14  F   UNL     1      -1.038  12.823  23.511  0.00  0.00    +0.000 F 
ATOM     15  F   UNL     1      -2.904  11.726  23.320  0.00  0.00    +0.000 F 
ENDBRANCH  10  12
ENDBRANCH   4   6
BRANCH   1  17
ATOM     16  N   UNL     1       3.733   6.365  19.063  0.00  0.00    +0.000 N 
ATOM     17  C   UNL     1       2.522   6.766  19.573  0.00  0.00    +0.000 C 
ATOM     18  O   UNL     1       1.913   6.116  20.419  0.00  0.00    +0.000 OA
ATOM     19  H   UNL     1       4.201   6.974  18.395  0.00  0.00    +0.000 HD
BRANCH  16  20
ATOM     20  C   UNL     1       4.422   5.149  19.455  0.00  0.00    +0.000 C 
BRANCH  20  22
ATOM     21  C   UNL     1       4.129   4.892  16.975  0.00  0.00    +0.000 C 
ATOM     22  C   UNL     1       4.717   4.214  18.227  0.00  0.00    +0.000 C 
ATOM     23  C   UNL     1       6.262   4.238  18.046  0.00  0.00    +0.000 C 
BRANCH  22  24
ATOM     24  N   UNL     1       4.259   2.812  18.481  0.00  0.00    +0.000 NA
ATOM     25  C   UNL     1       2.986   2.387  17.848  0.00  0.00    +0.000 C 
ATOM     26  C   UNL     1       1.712   2.741  18.639  0.00  0.00    +0.000 C 
ATOM     27  O   UNL     1       1.760   2.211  19.968  0.00  0.00    +0.000 OA
ATOM     28  C   UNL     1       2.923   2.676  20.661  0.00  0.00    +0.000 C 
ATOM     29  C   UNL     1       4.214   2.348  19.891  0.00  0.00    +0.000 C 
ENDBRANCH  22  24
ENDBRANCH  20  22
ENDBRANCH  16  20
ENDBRANCH   1  17
TORSDOF 6
ENDMDL
MODEL 2
REMARK VINA RESULT:      -7.9      1.541      2.216
REMARK  Name = 
REMARK  8 active torsions:
REMARK  status: ('A' for Active; 'I' for Inactive)
REMARK    1  A    between atoms: C_1  and  C_2
REMARK    2  A    between atoms: C_2  and  C_3
REMARK    3  A    between atoms: C_2  and  C_4
REMARK    4  A    between atoms: C_2  and  N_23
REMARK    5  A    between atoms: C_4  and  N_5
REMARK    6  A    between atoms: C_6  and  C_8
REMARK    7  A    between atoms: C_11  and  C_12
REMARK    8  A    between atoms: C_16  and  C_17
REMARK                            x       y       z     vdW  Elec       q    Type
REMARK                         _______ _______ _______ _____ _____    ______ ____
ROOT
ATOM      1  C   UNL     1       2.244   8.245  18.437  0.00  0.00    +0.000 A 
ATOM      2  C   UNL     1       1.649   9.113  17.544  0.00  0.00    +0.000 A 
ATOM      3  C   UNL     1       0.759   9.923  18.293  0.00  0.00    +0.000 A 
ATOM      4  C   UNL     1       0.846   9.504  19.606  0.00  0.00    +0.000 A 
ATOM      5  O   UNL     1       1.759   8.490  19.696  0.00  0.00    +0.000 OA
ENDROOT
BRANCH   4   6
ATOM      6  C   UNL     1       0.175   9.880  20.849  0.00  0.00    +0.000 A 
ATOM      7  C   UNL     1       0.383   9.151  22.027  0.00  0.00    +0.000 A 
ATOM      8  C   UNL     1      -0.227   9.530  23.226  0.00  0.00    +0.000 A 
ATOM      9  C   UNL     1      -1.065  10.643  23.263  0.00  0.00    +0.000 A 
ATOM     10  C   UNL     1      -1.303  11.385  22.101  0.00  0.00    +0.000 A 
ATOM     11  C   UNL     1      -0.680  10.995  20.901  0.00  0.00    +0.000 A 
BRANCH  10  12
ATOM     12  C   UNL     1      -2.213  12.588  22.110  0.00  0.00    +0.000 C 
ATOM     13  F   UNL     1      -3.138  12.578  21.109  0.00  0.00    +0.000 F 
ATOM     14  F   UNL     1      -2.920  12.696  23.269  0.00  0.00    +0.000 F 
ATOM     15  F   UNL     1      -1.532  13.759  21.977  0.00  0.00    +0.000 F 
ENDBRANCH  10  12
ENDBRANCH   4   6
BRANCH   1  17
ATOM     16  N   UNL     1       3.041   6.113  19.077  0.00  0.00    +0.000 N 
ATOM     17  C   UNL     1       3.221   7.192  18.246  0.00  0.00    +0.000 C 
ATOM     18  O   UNL     1       4.136   7.250  17.428  0.00  0.00    +0.000 OA
ATOM     19  H   UNL     1       2.237   6.114  19.701  0.00  0.00    +0.000 HD
BRANCH  16  20
ATOM     20  C   UNL     1       3.893   4.938  19.087  0.00  0.00    +0.000 C 
BRANCH  20  22
ATOM     21  C   UNL     1       2.039   4.290  17.524  0.00  0.00    +0.000 C 
ATOM     22  C   UNL     1       3.263   3.744  18.282  0.00  0.00    +0.000 C 
ATOM     23  C   UNL     1       4.314   3.372  17.197  0.00  0.00    +0.000 C 
BRANCH  22  24
ATOM     24  N   UNL     1       3.006   2.562  19.163  0.00  0.00    +0.000 NA
ATOM     25  C   UNL     1       1.628   2.010  19.177  0.00  0.00    +0.000 C 
ATOM     26  C   UNL     1       0.656   2.703  20.149  0.00  0.00    +0.000 C 
ATOM     27  O   UNL     1       1.163   2.696  21.489  0.00  0.00    +0.000 OA
ATOM     28  C   UNL     1       2.453   3.313  21.549  0.00  0.00    +0.000 C 
ATOM     29  C   UNL     1       3.448   2.650  20.578  0.00  0.00    +0.000 C 
ENDBRANCH  22  24
ENDBRANCH  20  22
ENDBRANCH  16  20
ENDBRANCH   1  17
TORSDOF 6
ENDMDL
MODEL 3
REMARK VINA RESULT:      -7.9      4.645      9.586
REMARK  Name = 
REMARK  8 active torsions:
REMARK  status: ('A' for Active; 'I' for Inactive)
REMARK    1  A    between atoms: C_1  and  C_2
REMARK    2  A    between atoms: C_2  and  C_3
REMARK    3  A    between atoms: C_2  and  C_4
REMARK    4  A    between atoms: C_2  and  N_23
REMARK    5  A    between atoms: C_4  and  N_5
REMARK    6  A    between atoms: C_6  and  C_8
REMARK    7  A    between atoms: C_11  and  C_12
REMARK    8  A    between atoms: C_16  and  C_17
REMARK                            x       y       z     vdW  Elec       q    Type
REMARK                         _______ _______ _______ _____ _____    ______ ____
ROOT
ATOM      1  C   UNL     1       1.147   9.492  20.086  0.00  0.00    +0.000 A 
ATOM      2  C   UNL     1       1.059  10.174  18.890  0.00  0.00    +0.000 A 
ATOM      3  C   UNL     1       1.633   9.338  17.899  0.00  0.00    +0.000 A 
ATOM      4  C   UNL     1       2.052   8.189  18.541  0.00  0.00    +0.000 A 
ATOM      5  O   UNL     1       1.746   8.278  19.870  0.00  0.00    +0.000 OA
ENDROOT
BRANCH   4   6
ATOM      6  C   UNL     1       2.748   6.975  18.118  0.00  0.00    +0.000 A 
ATOM      7  C   UNL     1       4.023   7.041  17.541  0.00  0.00    +0.000 A 
ATOM      8  C   UNL     1       4.708   5.880  17.171  0.00  0.00    +0.000 A 
ATOM      9  C   UNL     1       4.120   4.631  17.363  0.00  0.00    +0.000 A 
ATOM     10  C   UNL     1       2.842   4.532  17.926  0.00  0.00    +0.000 A 
ATOM     11  C   UNL     1       2.166   5.708  18.298  0.00  0.00    +0.000 A 
BRANCH  10  12
ATOM     12  C   UNL     1       2.179   3.194  18.137  0.00  0.00    +0.000 C 
ATOM     13  F   UNL     1       0.824   3.272  18.262  0.00  0.00    +0.000 F 
ATOM     14  F   UNL     1       2.408   2.332  17.106  0.00  0.00    +0.000 F 
ATOM     15  F   UNL     1       2.622   2.562  19.257  0.00  0.00    +0.000 F 
ENDBRANCH  10  12
ENDBRANCH   4   6
BRANCH   1  17
ATOM     16  N   UNL     1      -0.451  10.539  21.480  0.00  0.00    +0.000 N 
ATOM     17  C   UNL     1       0.738   9.852  21.429  0.00  0.00    +0.000 C 
ATOM     18  O   UNL     1       1.389   9.583  22.436  0.00  0.00    +0.000 OA
ATOM     19  H   UNL     1      -0.958  10.691  20.610  0.00  0.00    +0.000 HD
BRANCH  16  20
ATOM     20  C   UNL     1      -1.066  11.019  22.704  0.00  0.00    +0.000 C 
BRANCH  20  22
ATOM     21  C   UNL     1      -1.154  13.475  23.215  0.00  0.00    +0.000 C 
ATOM     22  C   UNL     1      -1.886  12.339  22.475  0.00  0.00    +0.000 C 
ATOM     23  C   UNL     1      -1.754  12.656  20.957  0.00  0.00    +0.000 C 
BRANCH  22  24
ATOM     24  N   UNL     1      -3.329  12.159  22.829  0.00  0.00    +0.000 NA
ATOM     25  C   UNL     1      -4.334  12.743  21.907  0.00  0.00    +0.000 C 
ATOM     26  C   UNL     1      -4.659  14.229  22.150  0.00  0.00    +0.000 C 
ATOM     27  O   UNL     1      -5.091  14.455  23.497  0.00  0.00    +0.000 OA
ATOM     28  C   UNL     1      -4.106  14.001  24.431  0.00  0.00    +0.000 C 
ATOM     29  C   UNL     1      -3.749  12.520  24.207  0.00  0.00    +0.000 C 
ENDBRANCH  22  24
ENDBRANCH  20  22
ENDBRANCH  16  20
ENDBRANCH   1  17
TORSDOF 6
ENDMDL
MODEL 4
REMARK VINA RESULT:      -7.8      1.749      2.953
REMARK  Name = 
REMARK  8 active torsions:
REMARK  status: ('A' for Active; 'I' for Inactive)
REMARK    1  A    between atoms: C_1  and  C_2
REMARK    2  A    between atoms: C_2  and  C_3
REMARK    3  A    between atoms: C_2  and  C_4
REMARK    4  A    between atoms: C_2  and  N_23
REMARK    5  A    between atoms: C_4  and  N_5
REMARK    6  A    between atoms: C_6  and  C_8
REMARK    7  A    between atoms: C_11  and  C_12
REMARK    8  A    between atoms: C_16  and  C_17
REMARK                            x       y       z     vdW  Elec       q    Type
REMARK                         _______ _______ _______ _____ _____    ______ ____
ROOT
ATOM      1  C   UNL     1       2.141   7.770  19.215  0.00  0.00    +0.000 A 
ATOM      2  C   UNL     1       1.905   8.571  18.116  0.00  0.00    +0.000 A 
ATOM      3  C   UNL     1       1.064   9.625  18.551  0.00  0.00    +0.000 A 
ATOM      4  C   UNL     1       0.818   9.412  19.893  0.00  0.00    +0.000 A 
ATOM      5  O   UNL     1       1.483   8.289  20.300  0.00  0.00    +0.000 OA
ENDROOT
BRANCH   4   6
ATOM      6  C   UNL     1       0.010  10.087  20.907  0.00  0.00    +0.000 A 
ATOM      7  C   UNL     1      -0.052   9.597  22.219  0.00  0.00    +0.000 A 
ATOM      8  C   UNL     1      -0.794  10.261  23.201  0.00  0.00    +0.000 A 
ATOM      9  C   UNL     1      -1.494  11.423  22.882  0.00  0.00    +0.000 A 
ATOM     10  C   UNL     1      -1.462  11.930  21.578  0.00  0.00    +0.000 A 
ATOM     11  C   UNL     1      -0.709  11.255  20.600  0.00  0.00    +0.000 A 
BRANCH  10  12
ATOM     12  C   UNL     1      -2.218  13.181  21.203  0.00  0.00    +0.000 C 
ATOM     13  F   UNL     1      -1.964  14.237  22.026  0.00  0.00    +0.000 F 
ATOM     14  F   UNL     1      -1.922  13.610  19.944  0.00  0.00    +0.000 F 
ATOM     15  F   UNL     1      -3.566  13.003  21.230  0.00  0.00    +0.000 F 
ENDBRANCH  10  12
ENDBRANCH   4   6
BRANCH   1  17
ATOM     16  N   UNL     1       2.430   5.710  20.340  0.00  0.00    +0.000 N 
ATOM     17  C   UNL     1       2.913   6.553  19.369  0.00  0.00    +0.000 C 
ATOM     18  O   UNL     1       3.914   6.292  18.705  0.00  0.00    +0.000 OA
ATOM     19  H   UNL     1       1.572   5.972  20.822  0.00  0.00    +0.000 HD
BRANCH  16  20
ATOM     20  C   UNL     1       3.032   4.438  20.691  0.00  0.00    +0.000 C 
BRANCH  20  22
ATOM     21  C   UNL     1       1.767   2.633  21.892  0.00  0.00    +0.000 C 
ATOM     22  C   UNL     1       2.035   3.239  20.501  0.00  0.00    +0.000 C 
ATOM     23  C   UNL     1       0.693   3.880  20.043  0.00  0.00    +0.000 C 
BRANCH  22  24
ATOM     24  N   UNL     1       2.519   2.281  19.458  0.00  0.00    +0.000 NA
ATOM     25  C   UNL     1       3.987   2.109  19.321  0.00  0.00    +0.000 C 
ATOM     26  C   UNL     1       4.685   3.144  18.419  0.00  0.00    +0.000 C 
ATOM     27  O   UNL     1       4.105   3.171  17.110  0.00  0.00    +0.000 OA
ATOM     28  C   UNL     1       2.700   3.437  17.180  0.00  0.00    +0.000 C 
ATOM     29  C   UNL     1       1.973   2.426  18.085  0.00  0.00    +0.000 C 
ENDBRANCH  22  24
ENDBRANCH  20  22
ENDBRANCH  16  20
ENDBRANCH   1  17
TORSDOF 6
ENDMDL
MODEL 5
REMARK VINA RESULT:      -7.8      6.017      7.475
REMARK  Name = 
REMARK  8 active torsions:
REMARK  status: ('A' for Active; 'I' for Inactive)
REMARK    1  A    between atoms: C_1  and  C_2
REMARK    2  A    between atoms: C_2  and  C_3
REMARK    3  A    between atoms: C_2  and  C_4
REMARK    4  A    between atoms: C_2  and  N_23
REMARK    5  A    between atoms: C_4  and  N_5
REMARK    6  A    between atoms: C_6  and  C_8
REMARK    7  A    between atoms: C_11  and  C_12
REMARK    8  A    between atoms: C_16  and  C_17
REMARK                            x       y       z     vdW  Elec       q    Type
REMARK                         _______ _______ _______ _____ _____    ______ ____
ROOT
ATOM      1  C   UNL     1       7.905   7.407  18.409  0.00  0.00    +0.000 A 
ATOM      2  C   UNL     1       7.589   8.092  17.253  0.00  0.00    +0.000 A 
ATOM      3  C   UNL     1       8.157   9.384  17.376  0.00  0.00    +0.000 A 
ATOM      4  C   UNL     1       8.784   9.430  18.605  0.00  0.00    +0.000 A 
ATOM      5  O   UNL     1       8.641   8.222  19.229  0.00  0.00    +0.000 OA
ENDROOT
BRANCH   4   6
ATOM      6  C   UNL     1       9.505  10.460  19.351  0.00  0.00    +0.000 A 
ATOM      7  C   UNL     1      10.777  10.884  18.943  0.00  0.00    +0.000 A 
ATOM      8  C   UNL     1      11.454  11.895  19.631  0.00  0.00    +0.000 A 
ATOM      9  C   UNL     1      10.871  12.493  20.748  0.00  0.00    +0.000 A 
ATOM     10  C   UNL     1       9.607  12.082  21.187  0.00  0.00    +0.000 A 
ATOM     11  C   UNL     1       8.936  11.066  20.483  0.00  0.00    +0.000 A 
BRANCH  10  12
ATOM     12  C   UNL     1       8.958  12.704  22.398  0.00  0.00    +0.000 C 
ATOM     13  F   UNL     1       9.526  13.885  22.774  0.00  0.00    +0.000 F 
ATOM     14  F   UNL     1       7.637  12.973  22.199  0.00  0.00    +0.000 F 
ATOM     15  F   UNL     1       9.014  11.898  23.492  0.00  0.00    +0.000 F 
ENDBRANCH  10  12
ENDBRANCH   4   6
BRANCH   1  17
ATOM     16  N   UNL     1       6.296   5.680  18.567  0.00  0.00    +0.000 N 
ATOM     17  C   UNL     1       7.586   6.062  18.846  0.00  0.00    +0.000 C 
ATOM     18  O   UNL     1       8.383   5.325  19.422  0.00  0.00    +0.000 OA
ATOM     19  H   UNL     1       5.704   6.327  18.049  0.00  0.00    +0.000 HD
BRANCH  16  20
ATOM     20  C   UNL     1       5.733   4.389  18.912  0.00  0.00    +0.000 C 
BRANCH  20  22
ATOM     21  C   UNL     1       3.538   5.169  17.976  0.00  0.00    +0.000 C 
ATOM     22  C   UNL     1       4.536   3.995  17.974  0.00  0.00    +0.000 C 
ATOM     23  C   UNL     1       5.132   3.937  16.537  0.00  0.00    +0.000 C 
BRANCH  22  24
ATOM     24  N   UNL     1       3.967   2.659  18.338  0.00  0.00    +0.000 NA
ATOM     25  C   UNL     1       2.622   2.325  17.808  0.00  0.00    +0.000 C 
ATOM     26  C   UNL     1       1.440   2.844  18.649  0.00  0.00    +0.000 C 
ATOM     27  O   UNL     1       1.523   2.385  20.003  0.00  0.00    +0.000 OA
ATOM     28  C   UNL     1       2.765   2.773  20.597  0.00  0.00    +0.000 C 
ATOM     29  C   UNL     1       3.969   2.280  19.774  0.00  0.00    +0.000 C 
ENDBRANCH  22  24
ENDBRANCH  20  22
ENDBRANCH  16  20
ENDBRANCH   1  17
TORSDOF 6
ENDMDL
MODEL 6
REMARK VINA RESULT:      -7.7      2.281      3.678
REMARK  Name = 
REMARK  8 active torsions:
REMARK  status: ('A' for Active; 'I' for Inactive)
REMARK    1  A    between atoms: C_1  and  C_2
REMARK    2  A    between atoms: C_2  and  C_3
REMARK    3  A    between atoms: C_2  and  C_4
REMARK    4  A    between atoms: C_2  and  N_23
REMARK    5  A    between atoms: C_4  and  N_5
REMARK    6  A    between atoms: C_6  and  C_8
REMARK    7  A    between atoms: C_11  and  C_12
REMARK    8  A    between atoms: C_16  and  C_17
REMARK                            x       y       z     vdW  Elec       q    Type
REMARK                         _______ _______ _______ _____ _____    ______ ____
ROOT
ATOM      1  C   UNL     1       2.424   7.441  18.869  0.00  0.00    +0.000 A 
ATOM      2  C   UNL     1       2.216   8.397  17.896  0.00  0.00    +0.000 A 
ATOM      3  C   UNL     1       1.431   9.419  18.486  0.00  0.00    +0.000 A 
ATOM      4  C   UNL     1       1.189   9.033  19.790  0.00  0.00    +0.000 A 
ATOM      5  O   UNL     1       1.803   7.834  20.027  0.00  0.00    +0.000 OA
ENDROOT
BRANCH   4   6
ATOM      6  C   UNL     1       0.425   9.597  20.901  0.00  0.00    +0.000 A 
ATOM      7  C   UNL     1       0.560   9.086  22.199  0.00  0.00    +0.000 A 
ATOM      8  C   UNL     1      -0.140   9.647  23.271  0.00  0.00    +0.000 A 
ATOM      9  C   UNL     1      -0.997  10.726  23.058  0.00  0.00    +0.000 A 
ATOM     10  C   UNL     1      -1.162  11.252  21.771  0.00  0.00    +0.000 A 
ATOM     11  C   UNL     1      -0.449  10.680  20.702  0.00  0.00    +0.000 A 
BRANCH  10  12
ATOM     12  C   UNL     1      -2.090  12.412  21.511  0.00  0.00    +0.000 C 
ATOM     13  F   UNL     1      -2.643  12.399  20.266  0.00  0.00    +0.000 F 
ATOM     14  F   UNL     1      -3.138  12.446  22.382  0.00  0.00    +0.000 F 
ATOM     15  F   UNL     1      -1.467  13.616  21.630  0.00  0.00    +0.000 F 
ENDBRANCH  10  12
ENDBRANCH   4   6
BRANCH   1  17
ATOM     16  N   UNL     1       4.060   6.089  17.827  0.00  0.00    +0.000 N 
ATOM     17  C   UNL     1       3.137   6.180  18.840  0.00  0.00    +0.000 C 
ATOM     18  O   UNL     1       2.939   5.265  19.636  0.00  0.00    +0.000 OA
ATOM     19  H   UNL     1       4.202   6.902  17.230  0.00  0.00    +0.000 HD
BRANCH  16  20
ATOM     20  C   UNL     1       4.892   4.927  17.580  0.00  0.00    +0.000 C 
BRANCH  20  22
ATOM     21  C   UNL     1       5.397   3.859  15.365  0.00  0.00    +0.000 C 
ATOM     22  C   UNL     1       5.730   5.068  16.259  0.00  0.00    +0.000 C 
ATOM     23  C   UNL     1       5.154   6.317  15.530  0.00  0.00    +0.000 C 
BRANCH  22  24
ATOM     24  N   UNL     1       7.184   5.280  16.550  0.00  0.00    +0.000 NA
ATOM     25  C   UNL     1       7.723   4.678  17.795  0.00  0.00    +0.000 C 
ATOM     26  C   UNL     1       7.542   5.531  19.065  0.00  0.00    +0.000 C 
ATOM     27  O   UNL     1       8.114   6.834  18.903  0.00  0.00    +0.000 OA
ATOM     28  C   UNL     1       7.550   7.501  17.770  0.00  0.00    +0.000 C 
ATOM     29  C   UNL     1       7.703   6.669  16.484  0.00  0.00    +0.000 C 
ENDBRANCH  22  24
ENDBRANCH  20  22
ENDBRANCH  16  20
ENDBRANCH   1  17
TORSDOF 6
ENDMDL
MODEL 7
REMARK VINA RESULT:      -7.6      1.502      2.764
REMARK  Name = 
REMARK  8 active torsions:
REMARK  status: ('A' for Active; 'I' for Inactive)
REMARK    1  A    between atoms: C_1  and  C_2
REMARK    2  A    between atoms: C_2  and  C_3
REMARK    3  A    between atoms: C_2  and  C_4
REMARK    4  A    between atoms: C_2  and  N_23
REMARK    5  A    between atoms: C_4  and  N_5
REMARK    6  A    between atoms: C_6  and  C_8
REMARK    7  A    between atoms: C_11  and  C_12
REMARK    8  A    between atoms: C_16  and  C_17
REMARK                            x       y       z     vdW  Elec       q    Type
REMARK                         _______ _______ _______ _____ _____    ______ ____
ROOT
ATOM      1  C   UNL     1       2.061   7.943  19.055  0.00  0.00    +0.000 A 
ATOM      2  C   UNL     1       2.368   8.573  17.866  0.00  0.00    +0.000 A 
ATOM      3  C   UNL     1       1.597   9.762  17.823  0.00  0.00    +0.000 A 
ATOM      4  C   UNL     1       0.849   9.795  18.983  0.00  0.00    +0.000 A 
ATOM      5  O   UNL     1       1.141   8.694  19.739  0.00  0.00    +0.000 OA
ENDROOT
BRANCH   4   6
ATOM      6  C   UNL     1      -0.159  10.703  19.527  0.00  0.00    +0.000 A 
ATOM      7  C   UNL     1      -0.952  11.488  18.679  0.00  0.00    +0.000 A 
ATOM      8  C   UNL     1      -1.943  12.329  19.194  0.00  0.00    +0.000 A 
ATOM      9  C   UNL     1      -2.151  12.405  20.570  0.00  0.00    +0.000 A 
ATOM     10  C   UNL     1      -1.367  11.642  21.444  0.00  0.00    +0.000 A 
ATOM     11  C   UNL     1      -0.376  10.797  20.913  0.00  0.00    +0.000 A 
BRANCH  10  12
ATOM     12  C   UNL     1      -1.564  11.712  22.938  0.00  0.00    +0.000 C 
ATOM     13  F   UNL     1      -1.040  12.836  23.504  0.00  0.00    +0.000 F 
ATOM     14  F   UNL     1      -2.880  11.697  23.291  0.00  0.00    +0.000 F 
ATOM     15  F   UNL     1      -0.990  10.664  23.590  0.00  0.00    +0.000 F 
ENDBRANCH  10  12
ENDBRANCH   4   6
BRANCH   1  17
ATOM     16  N   UNL     1       3.651   6.193  19.019  0.00  0.00    +0.000 N 
ATOM     17  C   UNL     1       2.529   6.697  19.630  0.00  0.00    +0.000 C 
ATOM     18  O   UNL     1       1.977   6.130  20.570  0.00  0.00    +0.000 OA
ATOM     19  H   UNL     1       4.080   6.737  18.273  0.00  0.00    +0.000 HD
BRANCH  16  20
ATOM     20  C   UNL     1       4.305   4.955  19.403  0.00  0.00    +0.000 C 
BRANCH  20  22
ATOM     21  C   UNL     1       3.886   2.563  18.769  0.00  0.00    +0.000 C 
ATOM     22  C   UNL     1       4.357   3.923  18.220  0.00  0.00    +0.000 C 
ATOM     23  C   UNL     1       3.265   4.385  17.213  0.00  0.00    +0.000 C 
BRANCH  22  24
ATOM     24  N   UNL     1       5.696   3.923  17.549  0.00  0.00    +0.000 NA
ATOM     25  C   UNL     1       6.724   4.851  18.083  0.00  0.00    +0.000 C 
ATOM     26  C   UNL     1       6.660   6.286  17.528  0.00  0.00    +0.000 C 
ATOM     27  O   UNL     1       6.734   6.297  16.098  0.00  0.00    +0.000 OA
ATOM     28  C   UNL     1       5.695   5.496  15.528  0.00  0.00    +0.000 C 
ATOM     29  C   UNL     1       5.723   4.055  16.070  0.00  0.00    +0.000 C 
ENDBRANCH  22  24
ENDBRANCH  20  22
ENDBRANCH  16  20
ENDBRANCH   1  17
TORSDOF 6
ENDMDL
MODEL 8
REMARK VINA RESULT:      -7.6      2.304      2.836
REMARK  Name = 
REMARK  8 active torsions:
REMARK  status: ('A' for Active; 'I' for Inactive)
REMARK    1  A    between atoms: C_1  and  C_2
REMARK    2  A    between atoms: C_2  and  C_3
REMARK    3  A    between atoms: C_2  and  C_4
REMARK    4  A    between atoms: C_2  and  N_23
REMARK    5  A    between atoms: C_4  and  N_5
REMARK    6  A    between atoms: C_6  and  C_8
REMARK    7  A    between atoms: C_11  and  C_12
REMARK    8  A    between atoms: C_16  and  C_17
REMARK                            x       y       z     vdW  Elec       q    Type
REMARK                         _______ _______ _______ _____ _____    ______ ____
ROOT
ATOM      1  C   UNL     1       1.979   8.159  19.004  0.00  0.00    +0.000 A 
ATOM      2  C   UNL     1       2.529   8.895  17.974  0.00  0.00    +0.000 A 
ATOM      3  C   UNL     1       1.665   9.997  17.753  0.00  0.00    +0.000 A 
ATOM      4  C   UNL     1       0.624   9.875  18.652  0.00  0.00    +0.000 A 
ATOM      5  O   UNL     1       0.822   8.762  19.422  0.00  0.00    +0.000 OA
ENDROOT
BRANCH   4   6
ATOM      6  C   UNL     1      -0.597  10.634  18.916  0.00  0.00    +0.000 A 
ATOM      7  C   UNL     1      -0.655  11.559  19.966  0.00  0.00    +0.000 A 
ATOM      8  C   UNL     1      -1.809  12.314  20.198  0.00  0.00    +0.000 A 
ATOM      9  C   UNL     1      -2.929  12.146  19.387  0.00  0.00    +0.000 A 
ATOM     10  C   UNL     1      -2.907  11.221  18.337  0.00  0.00    +0.000 A 
ATOM     11  C   UNL     1      -1.738  10.470  18.112  0.00  0.00    +0.000 A 
BRANCH  10  12
ATOM     12  C   UNL     1      -4.108  11.012  17.449  0.00  0.00    +0.000 C 
ATOM     13  F   UNL     1      -4.568  12.160  16.878  0.00  0.00    +0.000 F 
ATOM     14  F   UNL     1      -3.851  10.160  16.418  0.00  0.00    +0.000 F 
ATOM     15  F   UNL     1      -5.166  10.479  18.119  0.00  0.00    +0.000 F 
ENDBRANCH  10  12
ENDBRANCH   4   6
BRANCH   1  17
ATOM     16  N   UNL     1       3.557   6.400  19.105  0.00  0.00    +0.000 N 
ATOM     17  C   UNL     1       2.412   6.933  19.645  0.00  0.00    +0.000 C 
ATOM     18  O   UNL     1       1.815   6.404  20.580  0.00  0.00    +0.000 OA
ATOM     19  H   UNL     1       4.023   6.914  18.360  0.00  0.00    +0.000 HD
BRANCH  16  20
ATOM     20  C   UNL     1       4.184   5.175  19.564  0.00  0.00    +0.000 C 
BRANCH  20  22
ATOM     21  C   UNL     1       3.844   4.766  17.111  0.00  0.00    +0.000 C 
ATOM     22  C   UNL     1       4.508   4.196  18.379  0.00  0.00    +0.000 C 
ATOM     23  C   UNL     1       6.043   4.308  18.151  0.00  0.00    +0.000 C 
BRANCH  22  24
ATOM     24  N   UNL     1       4.150   2.783  18.719  0.00  0.00    +0.000 NA
ATOM     25  C   UNL     1       3.010   2.175  17.987  0.00  0.00    +0.000 C 
ATOM     26  C   UNL     1       1.620   2.467  18.582  0.00  0.00    +0.000 C 
ATOM     27  O   UNL     1       1.546   2.067  19.955  0.00  0.00    +0.000 OA
ATOM     28  C   UNL     1       2.564   2.709  20.729  0.00  0.00    +0.000 C 
ATOM     29  C   UNL     1       3.968   2.446  20.154  0.00  0.00    +0.000 C 
ENDBRANCH  22  24
ENDBRANCH  20  22
ENDBRANCH  16  20
ENDBRANCH   1  17
TORSDOF 6
ENDMDL
MODEL 9
REMARK VINA RESULT:      -7.6      5.035      9.819
REMARK  Name = 
REMARK  8 active torsions:
REMARK  status: ('A' for Active; 'I' for Inactive)
REMARK    1  A    between atoms: C_1  and  C_2
REMARK    2  A    between atoms: C_2  and  C_3
REMARK    3  A    between atoms: C_2  and  C_4
REMARK    4  A    between atoms: C_2  and  N_23
REMARK    5  A    between atoms: C_4  and  N_5
REMARK    6  A    between atoms: C_6  and  C_8
REMARK    7  A    between atoms: C_11  and  C_12
REMARK    8  A    between atoms: C_16  and  C_17
REMARK                            x       y       z     vdW  Elec       q    Type
REMARK                         _______ _______ _______ _____ _____    ______ ____
ROOT
ATOM      1  C   UNL     1       1.199   9.359  20.111  0.00  0.00    +0.000 A 
ATOM      2  C   UNL     1       1.146  10.016  18.898  0.00  0.00    +0.000 A 
ATOM      3  C   UNL     1       1.701   9.138  17.933  0.00  0.00    +0.000 A 
ATOM      4  C   UNL     1       2.076   7.991  18.605  0.00  0.00    +0.000 A 
ATOM      5  O   UNL     1       1.759   8.121  19.929  0.00  0.00    +0.000 OA
ENDROOT
BRANCH   4   6
ATOM      6  C   UNL     1       2.734   6.745  18.218  0.00  0.00    +0.000 A 
ATOM      7  C   UNL     1       2.221   5.506  18.622  0.00  0.00    +0.000 A 
ATOM      8  C   UNL     1       2.828   4.310  18.223  0.00  0.00    +0.000 A 
ATOM      9  C   UNL     1       3.965   4.338  17.419  0.00  0.00    +0.000 A 
ATOM     10  C   UNL     1       4.509   5.561  17.008  0.00  0.00    +0.000 A 
ATOM     11  C   UNL     1       3.887   6.756  17.414  0.00  0.00    +0.000 A 
BRANCH  10  12
ATOM     12  C   UNL     1       5.745   5.620  16.146  0.00  0.00    +0.000 C 
ATOM     13  F   UNL     1       5.495   6.004  14.862  0.00  0.00    +0.000 F 
ATOM     14  F   UNL     1       6.671   6.498  16.623  0.00  0.00    +0.000 F 
ATOM     15  F   UNL     1       6.379   4.419  16.059  0.00  0.00    +0.000 F 
ENDBRANCH  10  12
ENDBRANCH   4   6
BRANCH   1  17
ATOM     16  N   UNL     1      -0.363  10.512  21.461  0.00  0.00    +0.000 N 
ATOM     17  C   UNL     1       0.789   9.763  21.441  0.00  0.00    +0.000 C 
ATOM     18  O   UNL     1       1.410   9.479  22.462  0.00  0.00    +0.000 OA
ATOM     19  H   UNL     1      -0.848  10.674  20.581  0.00  0.00    +0.000 HD
BRANCH  16  20
ATOM     20  C   UNL     1      -0.970  11.045  22.666  0.00  0.00    +0.000 C 
BRANCH  20  22
ATOM     21  C   UNL     1      -1.091  13.518  23.082  0.00  0.00    +0.000 C 
ATOM     22  C   UNL     1      -1.805  12.345  22.383  0.00  0.00    +0.000 C 
ATOM     23  C   UNL     1      -1.668  12.605  20.855  0.00  0.00    +0.000 C 
BRANCH  22  24
ATOM     24  N   UNL     1      -3.248  12.161  22.737  0.00  0.00    +0.000 NA
ATOM     25  C   UNL     1      -4.253  12.776  21.835  0.00  0.00    +0.000 C 
ATOM     26  C   UNL     1      -4.571  14.256  22.123  0.00  0.00    +0.000 C 
ATOM     27  O   UNL     1      -4.996  14.445  23.477  0.00  0.00    +0.000 OA
ATOM     28  C   UNL     1      -4.011  13.959  24.394  0.00  0.00    +0.000 C 
ATOM     29  C   UNL     1      -3.661  12.484  24.126  0.00  0.00    +0.000 C 
ENDBRANCH  22  24
ENDBRANCH  20  22
ENDBRANCH  16  20
ENDBRANCH   1  17
TORSDOF 6
ENDMDL
