MODEL 1
REMARK VINA RESULT:      -9.1      0.000      0.000
REMARK  Name = 
REMARK  6 active torsions:
REMARK  status: ('A' for Active; 'I' for Inactive)
REMARK    1  A    between atoms: C_1  and  C_2
REMARK    2  A    between atoms: C_5  and  C_6
REMARK    3  A    between atoms: C_9  and  C_10
REMARK    4  A    between atoms: C_10  and  C_11
REMARK    5  A    between atoms: C_25  and  C_26
REMARK    6  A    between atoms: C_26  and  O_28
REMARK                            x       y       z     vdW  Elec       q    Type
REMARK                         _______ _______ _______ _____ _____    ______ ____
ROOT
ATOM      1  C   UNL     1      -0.204  10.147  22.343  0.00  0.00    +0.000 C 
ATOM      2  C   UNL     1       0.505   9.408  21.262  0.00  0.00    +0.000 A 
ATOM      3  S   UNL     1       0.827   7.758  21.641  0.00  0.00    +0.000 S 
ATOM      4  C   UNL     1       1.715   7.624  20.162  0.00  0.00    +0.000 A 
ATOM      5  C   UNL     1       2.215   6.426  19.765  0.00  0.00    +0.000 A 
ATOM      6  C   UNL     1       2.690   6.416  18.376  0.00  0.00    +0.000 A 
ATOM      7  C   UNL     1       2.599   7.523  17.599  0.00  0.00    +0.000 A 
ATOM      8  C   UNL     1       2.119   8.828  18.067  0.00  0.00    +0.000 A 
ATOM      9  O   UNL     1       2.150   9.791  17.294  0.00  0.00    +0.000 OA
ATOM     10  N   UNL     1       1.654   8.790  19.370  0.00  0.00    +0.000 N 
ATOM     11  C   UNL     1       0.986   9.798  20.062  0.00  0.00    +0.000 A 
ENDROOT
BRANCH   5  12
ATOM     12  C   UNL     1       1.956   5.159  20.480  0.00  0.00    +0.000 C 
ATOM     13  C   UNL     1       2.028   4.012  21.419  0.00  0.00    +0.000 C 
ATOM     14  C   UNL     1       0.934   4.052  20.407  0.00  0.00    +0.000 C 
ENDBRANCH   5  12
BRANCH  11  15
ATOM     15  C   UNL     1       0.759  11.223  19.633  0.00  0.00    +0.000 C 
ATOM     16  O   UNL     1       1.405  12.153  20.104  0.00  0.00    +0.000 OA
BRANCH  15  17
ATOM     17  O   UNL     1      -0.139  11.494  18.675  0.00  0.00    +0.000 OA
ATOM     18  H   UNL     1       0.177  11.576  17.747  0.00  0.00    +0.000 HD
ENDBRANCH  15  17
ENDBRANCH  11  15
BRANCH   6  19
ATOM     19  C   UNL     1       3.256   5.128  17.868  0.00  0.00    +0.000 C 
BRANCH  19  20
ATOM     20  C   UNL     1       4.772   5.236  17.738  0.00  0.00    +0.000 A 
ATOM     21  C   UNL     1       5.438   5.582  18.936  0.00  0.00    +0.000 A 
ATOM     22  C   UNL     1       6.773   5.241  19.051  0.00  0.00    +0.000 A 
ATOM     23  C   UNL     1       7.505   5.061  17.887  0.00  0.00    +0.000 A 
ATOM     24  C   UNL     1       6.870   4.999  16.635  0.00  0.00    +0.000 A 
ATOM     25  C   UNL     1       7.581   5.028  15.452  0.00  0.00    +0.000 A 
ATOM     26  C   UNL     1       6.903   4.942  14.217  0.00  0.00    +0.000 A 
ATOM     27  C   UNL     1       6.079   3.860  14.050  0.00  0.00    +0.000 A 
ATOM     28  C   UNL     1       5.234   4.077  15.165  0.00  0.00    +0.000 A 
ATOM     29  C   UNL     1       5.523   4.790  16.513  0.00  0.00    +0.000 A 
ENDBRANCH  19  20
ENDBRANCH   6  19
TORSDOF 5
ENDMDL
MODEL 2
REMARK VINA RESULT:      -7.4      0.800      2.196
REMARK  Name = 
REMARK  6 active torsions:
REMARK  status: ('A' for Active; 'I' for Inactive)
REMARK    1  A    between atoms: C_1  and  C_2
REMARK    2  A    between atoms: C_5  and  C_6
REMARK    3  A    between atoms: C_9  and  C_10
REMARK    4  A    between atoms: C_10  and  C_11
REMARK    5  A    between atoms: C_25  and  C_26
REMARK    6  A    between atoms: C_26  and  O_28
REMARK                            x       y       z     vdW  Elec       q    Type
REMARK                         _______ _______ _______ _____ _____    ______ ____
ROOT
ATOM      1  C   UNL     1       0.141   9.816  22.126  0.00  0.00    +0.000 C 
ATOM      2  C   UNL     1       0.772   8.970  21.074  0.00  0.00    +0.000 A 
ATOM      3  S   UNL     1       1.008   7.329  21.548  0.00  0.00    +0.000 S 
ATOM      4  C   UNL     1       1.841   7.052  20.057  0.00  0.00    +0.000 A 
ATOM      5  C   UNL     1       2.257   5.804  19.722  0.00  0.00    +0.000 A 
ATOM      6  C   UNL     1       2.688   5.681  18.325  0.00  0.00    +0.000 A 
ATOM      7  C   UNL     1       2.640   6.741  17.483  0.00  0.00    +0.000 A 
ATOM      8  C   UNL     1       2.252   8.100  17.881  0.00  0.00    +0.000 A 
ATOM      9  O   UNL     1       2.317   9.010  17.049  0.00  0.00    +0.000 OA
ATOM     10  N   UNL     1       1.825   8.169  19.195  0.00  0.00    +0.000 N 
ATOM     11  C   UNL     1       1.239   9.256  19.841  0.00  0.00    +0.000 A 
ENDROOT
BRANCH   5  12
ATOM     12  C   UNL     1       1.946   4.601  20.522  0.00  0.00    +0.000 C 
ATOM     13  C   UNL     1       1.963   3.526  21.545  0.00  0.00    +0.000 C 
ATOM     14  C   UNL     1       0.895   3.518  20.504  0.00  0.00    +0.000 C 
ENDBRANCH   5  12
BRANCH  11  15
ATOM     15  C   UNL     1       1.084  10.663  19.330  0.00  0.00    +0.000 C 
ATOM     16  O   UNL     1       1.754  11.592  19.770  0.00  0.00    +0.000 OA
BRANCH  15  17
ATOM     17  O   UNL     1       0.226  10.917  18.330  0.00  0.00    +0.000 OA
ATOM     18  H   UNL     1      -0.092  10.164  17.784  0.00  0.00    +0.000 HD
ENDBRANCH  15  17
ENDBRANCH  11  15
BRANCH   6  19
ATOM     19  C   UNL     1       3.162   4.332  17.883  0.00  0.00    +0.000 C 
BRANCH  19  20
ATOM     20  C   UNL     1       4.504   4.455  17.170  0.00  0.00    +0.000 A 
ATOM     21  C   UNL     1       4.438   4.289  15.767  0.00  0.00    +0.000 A 
ATOM     22  C   UNL     1       5.452   4.842  15.006  0.00  0.00    +0.000 A 
ATOM     23  C   UNL     1       6.679   5.066  15.613  0.00  0.00    +0.000 A 
ATOM     24  C   UNL     1       6.828   4.953  17.006  0.00  0.00    +0.000 A 
ATOM     25  C   UNL     1       8.069   4.967  17.612  0.00  0.00    +0.000 A 
ATOM     26  C   UNL     1       8.171   4.872  19.016  0.00  0.00    +0.000 A 
ATOM     27  C   UNL     1       7.469   5.799  19.742  0.00  0.00    +0.000 A 
ATOM     28  C   UNL     1       6.179   5.518  19.230  0.00  0.00    +0.000 A 
ATOM     29  C   UNL     1       5.754   4.940  17.853  0.00  0.00    +0.000 A 
ENDBRANCH  19  20
ENDBRANCH   6  19
TORSDOF 5
ENDMDL
MODEL 3
REMARK VINA RESULT:      -7.2      4.349      7.599
REMARK  Name = 
REMARK  6 active torsions:
REMARK  status: ('A' for Active; 'I' for Inactive)
REMARK    1  A    between atoms: C_1  and  C_2
REMARK    2  A    between atoms: C_5  and  C_6
REMARK    3  A    between atoms: C_9  and  C_10
REMARK    4  A    between atoms: C_10  and  C_11
REMARK    5  A    between atoms: C_25  and  C_26
REMARK    6  A    between atoms: C_26  and  O_28
REMARK                            x       y       z     vdW  Elec       q    Type
REMARK                         _______ _______ _______ _____ _____    ______ ____
ROOT
ATOM      1  C   UNL     1      -7.282  13.234  20.681  0.00  0.00    +0.000 C 
ATOM      2  C   UNL     1      -5.907  12.840  20.265  0.00  0.00    +0.000 A 
ATOM      3  S   UNL     1      -4.674  13.360  21.353  0.00  0.00    +0.000 S 
ATOM      4  C   UNL     1      -3.488  12.758  20.247  0.00  0.00    +0.000 A 
ATOM      5  C   UNL     1      -2.171  12.774  20.573  0.00  0.00    +0.000 A 
ATOM      6  C   UNL     1      -1.328  11.984  19.668  0.00  0.00    +0.000 A 
ATOM      7  C   UNL     1      -1.868  11.305  18.627  0.00  0.00    +0.000 A 
ATOM      8  C   UNL     1      -3.285  11.354  18.249  0.00  0.00    +0.000 A 
ATOM      9  O   UNL     1      -3.656  10.756  17.235  0.00  0.00    +0.000 OA
ATOM     10  N   UNL     1      -4.050  12.084  19.142  0.00  0.00    +0.000 N 
ATOM     11  C   UNL     1      -5.439  12.196  19.176  0.00  0.00    +0.000 A 
ENDROOT
BRANCH   5  12
ATOM     12  C   UNL     1      -1.666  13.190  21.898  0.00  0.00    +0.000 C 
ATOM     13  C   UNL     1      -1.373  13.270  23.351  0.00  0.00    +0.000 C 
ATOM     14  C   UNL     1      -0.775  14.283  22.435  0.00  0.00    +0.000 C 
ENDBRANCH   5  12
BRANCH  11  15
ATOM     15  C   UNL     1      -6.433  11.700  18.160  0.00  0.00    +0.000 C 
ATOM     16  O   UNL     1      -6.649  12.303  17.115  0.00  0.00    +0.000 OA
BRANCH  15  17
ATOM     17  O   UNL     1      -7.074  10.540  18.369  0.00  0.00    +0.000 OA
ATOM     18  H   UNL     1      -7.992  10.446  18.028  0.00  0.00    +0.000 HD
ENDBRANCH  15  17
ENDBRANCH  11  15
BRANCH   6  19
ATOM     19  C   UNL     1       0.138  11.957  19.965  0.00  0.00    +0.000 C 
BRANCH  19  20
ATOM     20  C   UNL     1       0.542  10.583  20.489  0.00  0.00    +0.000 A 
ATOM     21  C   UNL     1       0.181  10.341  21.835  0.00  0.00    +0.000 A 
ATOM     22  C   UNL     1       0.058   9.025  22.240  0.00  0.00    +0.000 A 
ATOM     23  C   UNL     1       0.747   8.053  21.530  0.00  0.00    +0.000 A 
ATOM     24  C   UNL     1       1.366   8.355  20.304  0.00  0.00    +0.000 A 
ATOM     25  C   UNL     1       2.226   7.472  19.682  0.00  0.00    +0.000 A 
ATOM     26  C   UNL     1       2.808   7.809  18.442  0.00  0.00    +0.000 A 
ATOM     27  C   UNL     1       1.943   8.150  17.435  0.00  0.00    +0.000 A 
ATOM     28  C   UNL     1       1.294   9.227  18.086  0.00  0.00    +0.000 A 
ATOM     29  C   UNL     1       1.066   9.489  19.599  0.00  0.00    +0.000 A 
ENDBRANCH  19  20
ENDBRANCH   6  19
TORSDOF 5
ENDMDL
MODEL 4
REMARK VINA RESULT:      -7.1      2.842      7.971
REMARK  Name = 
REMARK  6 active torsions:
REMARK  status: ('A' for Active; 'I' for Inactive)
REMARK    1  A    between atoms: C_1  and  C_2
REMARK    2  A    between atoms: C_5  and  C_6
REMARK    3  A    between atoms: C_9  and  C_10
REMARK    4  A    between atoms: C_10  and  C_11
REMARK    5  A    between atoms: C_25  and  C_26
REMARK    6  A    between atoms: C_26  and  O_28
REMARK                            x       y       z     vdW  Elec       q    Type
REMARK                         _______ _______ _______ _____ _____    ______ ____
ROOT
ATOM      1  C   UNL     1       2.833   3.342  20.417  0.00  0.00    +0.000 C 
ATOM      2  C   UNL     1       2.703   4.733  19.899  0.00  0.00    +0.000 A 
ATOM      3  S   UNL     1       1.777   5.771  20.917  0.00  0.00    +0.000 S 
ATOM      4  C   UNL     1       1.907   7.010  19.717  0.00  0.00    +0.000 A 
ATOM      5  C   UNL     1       1.417   8.254  19.956  0.00  0.00    +0.000 A 
ATOM      6  C   UNL     1       1.846   9.256  18.973  0.00  0.00    +0.000 A 
ATOM      7  C   UNL     1       2.670   8.922  17.950  0.00  0.00    +0.000 A 
ATOM      8  C   UNL     1       3.134   7.559  17.669  0.00  0.00    +0.000 A 
ATOM      9  O   UNL     1       3.823   7.355  16.664  0.00  0.00    +0.000 OA
ATOM     10  N   UNL     1       2.734   6.650  18.633  0.00  0.00    +0.000 N 
ATOM     11  C   UNL     1       3.130   5.320  18.762  0.00  0.00    +0.000 A 
ENDROOT
BRANCH   5  12
ATOM     12  C   UNL     1       0.852   8.670  21.256  0.00  0.00    +0.000 C 
ATOM     13  C   UNL     1       0.670   9.241  22.614  0.00  0.00    +0.000 C 
ATOM     14  C   UNL     1      -0.490   8.587  21.942  0.00  0.00    +0.000 C 
ENDBRANCH   5  12
BRANCH  11  15
ATOM     15  C   UNL     1       3.948   4.500  17.801  0.00  0.00    +0.000 C 
ATOM     16  O   UNL     1       5.174   4.487  17.837  0.00  0.00    +0.000 OA
BRANCH  15  17
ATOM     17  O   UNL     1       3.331   3.718  16.902  0.00  0.00    +0.000 OA
ATOM     18  H   UNL     1       3.340   2.745  17.044  0.00  0.00    +0.000 HD
ENDBRANCH  15  17
ENDBRANCH  11  15
BRANCH   6  19
ATOM     19  C   UNL     1       1.343  10.652  19.171  0.00  0.00    +0.000 C 
BRANCH  19  20
ATOM     20  C   UNL     1      -0.114  10.751  18.732  0.00  0.00    +0.000 A 
ATOM     21  C   UNL     1      -0.425  10.014  17.566  0.00  0.00    +0.000 A 
ATOM     22  C   UNL     1      -1.744   9.648  17.370  0.00  0.00    +0.000 A 
ATOM     23  C   UNL     1      -2.731  10.399  17.990  0.00  0.00    +0.000 A 
ATOM     24  C   UNL     1      -2.406  11.357  18.966  0.00  0.00    +0.000 A 
ATOM     25  C   UNL     1      -3.336  12.256  19.446  0.00  0.00    +0.000 A 
ATOM     26  C   UNL     1      -2.971  13.187  20.442  0.00  0.00    +0.000 A 
ATOM     27  C   UNL     1      -2.429  12.669  21.590  0.00  0.00    +0.000 A 
ATOM     28  C   UNL     1      -1.337  11.984  21.003  0.00  0.00    +0.000 A 
ATOM     29  C   UNL     1      -1.184  11.380  19.581  0.00  0.00    +0.000 A 
ENDBRANCH  19  20
ENDBRANCH   6  19
TORSDOF 5
ENDMDL
MODEL 5
REMARK VINA RESULT:      -6.8      1.597      1.956
REMARK  Name = 
REMARK  6 active torsions:
REMARK  status: ('A' for Active; 'I' for Inactive)
REMARK    1  A    between atoms: C_1  and  C_2
REMARK    2  A    between atoms: C_5  and  C_6
REMARK    3  A    between atoms: C_9  and  C_10
REMARK    4  A    between atoms: C_10  and  C_11
REMARK    5  A    between atoms: C_25  and  C_26
REMARK    6  A    between atoms: C_26  and  O_28
REMARK                            x       y       z     vdW  Elec       q    Type
REMARK                         _______ _______ _______ _____ _____    ______ ____
ROOT
ATOM      1  C   UNL     1      -0.415  10.349  22.589  0.00  0.00    +0.000 C 
ATOM      2  C   UNL     1       0.324   9.718  21.460  0.00  0.00    +0.000 A 
ATOM      3  S   UNL     1       0.537   8.016  21.631  0.00  0.00    +0.000 S 
ATOM      4  C   UNL     1       1.510   8.026  20.201  0.00  0.00    +0.000 A 
ATOM      5  C   UNL     1       1.973   6.863  19.675  0.00  0.00    +0.000 A 
ATOM      6  C   UNL     1       2.536   7.008  18.328  0.00  0.00    +0.000 A 
ATOM      7  C   UNL     1       2.553   8.210  17.703  0.00  0.00    +0.000 A 
ATOM      8  C   UNL     1       2.111   9.469  18.314  0.00  0.00    +0.000 A 
ATOM      9  O   UNL     1       2.241  10.521  17.681  0.00  0.00    +0.000 OA
ATOM     10  N   UNL     1       1.560   9.287  19.571  0.00  0.00    +0.000 N 
ATOM     11  C   UNL     1       0.901  10.233  20.354  0.00  0.00    +0.000 A 
ENDROOT
BRANCH   5  12
ATOM     12  C   UNL     1       1.605   5.531  20.197  0.00  0.00    +0.000 C 
ATOM     13  C   UNL     1       0.945   4.221  20.422  0.00  0.00    +0.000 C 
ATOM     14  C   UNL     1       2.123   4.591  21.257  0.00  0.00    +0.000 C 
ENDBRANCH   5  12
BRANCH  11  15
ATOM     15  C   UNL     1       0.776  11.713  20.109  0.00  0.00    +0.000 C 
ATOM     16  O   UNL     1       1.453  12.532  20.721  0.00  0.00    +0.000 OA
BRANCH  15  17
ATOM     17  O   UNL     1      -0.063  12.161  19.163  0.00  0.00    +0.000 OA
ATOM     18  H   UNL     1      -1.026  12.001  19.277  0.00  0.00    +0.000 HD
ENDBRANCH  15  17
ENDBRANCH  11  15
BRANCH   6  19
ATOM     19  C   UNL     1       3.068   5.766  17.683  0.00  0.00    +0.000 C 
BRANCH  19  20
ATOM     20  C   UNL     1       4.398   5.375  18.318  0.00  0.00    +0.000 A 
ATOM     21  C   UNL     1       4.357   4.179  19.072  0.00  0.00    +0.000 A 
ATOM     22  C   UNL     1       5.546   3.501  19.268  0.00  0.00    +0.000 A 
ATOM     23  C   UNL     1       6.730   4.218  19.183  0.00  0.00    +0.000 A 
ATOM     24  C   UNL     1       6.745   5.535  18.692  0.00  0.00    +0.000 A 
ATOM     25  C   UNL     1       7.864   6.338  18.789  0.00  0.00    +0.000 A 
ATOM     26  C   UNL     1       7.841   7.648  18.262  0.00  0.00    +0.000 A 
ATOM     27  C   UNL     1       7.495   7.767  16.941  0.00  0.00    +0.000 A 
ATOM     28  C   UNL     1       6.225   7.143  17.011  0.00  0.00    +0.000 A 
ATOM     29  C   UNL     1       5.696   6.059  17.987  0.00  0.00    +0.000 A 
ENDBRANCH  19  20
ENDBRANCH   6  19
TORSDOF 5
ENDMDL
MODEL 6
REMARK VINA RESULT:      -6.8      3.406      7.576
REMARK  Name = 
REMARK  6 active torsions:
REMARK  status: ('A' for Active; 'I' for Inactive)
REMARK    1  A    between atoms: C_1  and  C_2
REMARK    2  A    between atoms: C_5  and  C_6
REMARK    3  A    between atoms: C_9  and  C_10
REMARK    4  A    between atoms: C_10  and  C_11
REMARK    5  A    between atoms: C_25  and  C_26
REMARK    6  A    between atoms: C_26  and  O_28
REMARK                            x       y       z     vdW  Elec       q    Type
REMARK                         _______ _______ _______ _____ _____    ______ ____
ROOT
ATOM      1  C   UNL     1       1.865   2.486  20.717  0.00  0.00    +0.000 C 
ATOM      2  C   UNL     1       2.160   3.781  20.045  0.00  0.00    +0.000 A 
ATOM      3  S   UNL     1       1.529   5.156  20.874  0.00  0.00    +0.000 S 
ATOM      4  C   UNL     1       2.059   6.150  19.561  0.00  0.00    +0.000 A 
ATOM      5  C   UNL     1       1.937   7.500  19.627  0.00  0.00    +0.000 A 
ATOM      6  C   UNL     1       2.676   8.212  18.577  0.00  0.00    +0.000 A 
ATOM      7  C   UNL     1       3.411   7.537  17.661  0.00  0.00    +0.000 A 
ATOM      8  C   UNL     1       3.476   6.074  17.564  0.00  0.00    +0.000 A 
ATOM      9  O   UNL     1       4.118   5.563  16.641  0.00  0.00    +0.000 OA
ATOM     10  N   UNL     1       2.792   5.441  18.586  0.00  0.00    +0.000 N 
ATOM     11  C   UNL     1       2.785   4.080  18.887  0.00  0.00    +0.000 A 
ENDROOT
BRANCH   5  12
ATOM     12  C   UNL     1       1.461   8.216  20.829  0.00  0.00    +0.000 C 
ATOM     13  C   UNL     1       1.394   8.995  22.091  0.00  0.00    +0.000 C 
ATOM     14  C   UNL     1       0.125   8.559  21.439  0.00  0.00    +0.000 C 
ENDBRANCH   5  12
BRANCH  11  15
ATOM     15  C   UNL     1       3.372   2.951  18.083  0.00  0.00    +0.000 C 
ATOM     16  O   UNL     1       2.668   2.155  17.470  0.00  0.00    +0.000 OA
BRANCH  15  17
ATOM     17  O   UNL     1       4.704   2.826  17.987  0.00  0.00    +0.000 OA
ATOM     18  H   UNL     1       5.231   2.782  18.816  0.00  0.00    +0.000 HD
ENDBRANCH  15  17
ENDBRANCH  11  15
BRANCH   6  19
ATOM     19  C   UNL     1       2.587   9.706  18.586  0.00  0.00    +0.000 C 
BRANCH  19  20
ATOM     20  C   UNL     1       1.149  10.147  18.334  0.00  0.00    +0.000 A 
ATOM     21  C   UNL     1       0.422   9.303  17.463  0.00  0.00    +0.000 A 
ATOM     22  C   UNL     1      -0.958   9.324  17.550  0.00  0.00    +0.000 A 
ATOM     23  C   UNL     1      -1.564  10.458  18.070  0.00  0.00    +0.000 A 
ATOM     24  C   UNL     1      -0.806  11.460  18.699  0.00  0.00    +0.000 A 
ATOM     25  C   UNL     1      -1.349  12.683  19.038  0.00  0.00    +0.000 A 
ATOM     26  C   UNL     1      -0.555  13.652  19.688  0.00  0.00    +0.000 A 
ATOM     27  C   UNL     1       0.056  13.259  20.850  0.00  0.00    +0.000 A 
ATOM     28  C   UNL     1       0.785  12.162  20.330  0.00  0.00    +0.000 A 
ATOM     29  C   UNL     1       0.479  11.244  19.117  0.00  0.00    +0.000 A 
ENDBRANCH  19  20
ENDBRANCH   6  19
TORSDOF 5
ENDMDL
MODEL 7
REMARK VINA RESULT:      -6.8      8.072     12.446
REMARK  Name = 
REMARK  6 active torsions:
REMARK  status: ('A' for Active; 'I' for Inactive)
REMARK    1  A    between atoms: C_1  and  C_2
REMARK    2  A    between atoms: C_5  and  C_6
REMARK    3  A    between atoms: C_9  and  C_10
REMARK    4  A    between atoms: C_10  and  C_11
REMARK    5  A    between atoms: C_25  and  C_26
REMARK    6  A    between atoms: C_26  and  O_28
REMARK                            x       y       z     vdW  Elec       q    Type
REMARK                         _______ _______ _______ _____ _____    ______ ____
ROOT
ATOM      1  C   UNL     1      -4.494  11.169  16.737  0.00  0.00    +0.000 C 
ATOM      2  C   UNL     1      -4.207  11.622  18.127  0.00  0.00    +0.000 A 
ATOM      3  S   UNL     1      -5.619  11.900  19.076  0.00  0.00    +0.000 S 
ATOM      4  C   UNL     1      -4.609  12.496  20.347  0.00  0.00    +0.000 A 
ATOM      5  C   UNL     1      -5.142  12.837  21.548  0.00  0.00    +0.000 A 
ATOM      6  C   UNL     1      -4.141  13.053  22.599  0.00  0.00    +0.000 A 
ATOM      7  C   UNL     1      -2.819  12.896  22.346  0.00  0.00    +0.000 A 
ATOM      8  C   UNL     1      -2.257  12.594  21.025  0.00  0.00    +0.000 A 
ATOM      9  O   UNL     1      -1.030  12.547  20.892  0.00  0.00    +0.000 OA
ATOM     10  N   UNL     1      -3.232  12.369  20.069  0.00  0.00    +0.000 N 
ATOM     11  C   UNL     1      -3.053  11.904  18.768  0.00  0.00    +0.000 A 
ENDROOT
BRANCH   5  12
ATOM     12  C   UNL     1      -6.564  12.631  21.895  0.00  0.00    +0.000 C 
ATOM     13  C   UNL     1      -7.844  12.055  22.376  0.00  0.00    +0.000 C 
ATOM     14  C   UNL     1      -7.836  13.438  21.818  0.00  0.00    +0.000 C 
ENDBRANCH   5  12
BRANCH  11  15
ATOM     15  C   UNL     1      -1.759  11.696  18.028  0.00  0.00    +0.000 C 
ATOM     16  O   UNL     1      -1.214  10.599  17.966  0.00  0.00    +0.000 OA
BRANCH  15  17
ATOM     17  O   UNL     1      -1.197  12.722  17.371  0.00  0.00    +0.000 OA
ATOM     18  H   UNL     1      -1.674  13.102  16.600  0.00  0.00    +0.000 HD
ENDBRANCH  15  17
ENDBRANCH  11  15
BRANCH   6  19
ATOM     19  C   UNL     1      -4.656  13.434  23.952  0.00  0.00    +0.000 C 
BRANCH  19  20
ATOM     20  C   UNL     1      -4.508  14.937  24.165  0.00  0.00    +0.000 A 
ATOM     21  C   UNL     1      -5.639  15.695  23.783  0.00  0.00    +0.000 A 
ATOM     22  C   UNL     1      -5.801  16.942  24.360  0.00  0.00    +0.000 A 
ATOM     23  C   UNL     1      -4.677  17.587  24.853  0.00  0.00    +0.000 A 
ATOM     24  C   UNL     1      -3.450  16.912  24.973  0.00  0.00    +0.000 A 
ATOM     25  C   UNL     1      -2.275  17.577  25.261  0.00  0.00    +0.000 A 
ATOM     26  C   UNL     1      -1.069  16.856  25.394  0.00  0.00    +0.000 A 
ATOM     27  C   UNL     1      -1.069  15.832  26.305  0.00  0.00    +0.000 A 
ATOM     28  C   UNL     1      -2.141  15.082  25.761  0.00  0.00    +0.000 A 
ATOM     29  C   UNL     1      -3.364  15.547  24.927  0.00  0.00    +0.000 A 
ENDBRANCH  19  20
ENDBRANCH   6  19
TORSDOF 5
ENDMDL
MODEL 8
REMARK VINA RESULT:      -6.7      3.626      6.189
REMARK  Name = 
REMARK  6 active torsions:
REMARK  status: ('A' for Active; 'I' for Inactive)
REMARK    1  A    between atoms: C_1  and  C_2
REMARK    2  A    between atoms: C_5  and  C_6
REMARK    3  A    between atoms: C_9  and  C_10
REMARK    4  A    between atoms: C_10  and  C_11
REMARK    5  A    between atoms: C_25  and  C_26
REMARK    6  A    between atoms: C_26  and  O_28
REMARK                            x       y       z     vdW  Elec       q    Type
REMARK                         _______ _______ _______ _____ _____    ______ ____
ROOT
ATOM      1  C   UNL     1      -5.438  13.452  20.075  0.00  0.00    +0.000 C 
ATOM      2  C   UNL     1      -4.289  12.651  19.568  0.00  0.00    +0.000 A 
ATOM      3  S   UNL     1      -2.762  13.149  20.196  0.00  0.00    +0.000 S 
ATOM      4  C   UNL     1      -1.994  12.009  19.145  0.00  0.00    +0.000 A 
ATOM      5  C   UNL     1      -0.653  11.808  19.208  0.00  0.00    +0.000 A 
ATOM      6  C   UNL     1      -0.197  10.627  18.466  0.00  0.00    +0.000 A 
ATOM      7  C   UNL     1      -1.077   9.833  17.808  0.00  0.00    +0.000 A 
ATOM      8  C   UNL     1      -2.514  10.105  17.693  0.00  0.00    +0.000 A 
ATOM      9  O   UNL     1      -3.213   9.354  17.005  0.00  0.00    +0.000 OA
ATOM     10  N   UNL     1      -2.910  11.207  18.430  0.00  0.00    +0.000 N 
ATOM     11  C   UNL     1      -4.211  11.643  18.674  0.00  0.00    +0.000 A 
ENDROOT
BRANCH   5  12
ATOM     12  C   UNL     1       0.217  12.442  20.220  0.00  0.00    +0.000 C 
ATOM     13  C   UNL     1       0.953  12.761  21.469  0.00  0.00    +0.000 C 
ATOM     14  C   UNL     1       1.153  13.625  20.270  0.00  0.00    +0.000 C 
ENDBRANCH   5  12
BRANCH  11  15
ATOM     15  C   UNL     1      -5.488  11.133  18.063  0.00  0.00    +0.000 C 
ATOM     16  O   UNL     1      -6.223  10.349  18.655  0.00  0.00    +0.000 OA
BRANCH  15  17
ATOM     17  O   UNL     1      -5.872  11.576  16.857  0.00  0.00    +0.000 OA
ATOM     18  H   UNL     1      -5.962  12.546  16.721  0.00  0.00    +0.000 HD
ENDBRANCH  15  17
ENDBRANCH  11  15
BRANCH   6  19
ATOM     19  C   UNL     1       1.272  10.343  18.489  0.00  0.00    +0.000 C 
BRANCH  19  20
ATOM     20  C   UNL     1       1.553   9.103  19.330  0.00  0.00    +0.000 A 
ATOM     21  C   UNL     1       0.866   9.067  20.566  0.00  0.00    +0.000 A 
ATOM     22  C   UNL     1       0.667   7.831  21.155  0.00  0.00    +0.000 A 
ATOM     23  C   UNL     1       1.530   6.799  20.819  0.00  0.00    +0.000 A 
ATOM     24  C   UNL     1       2.435   6.930  19.752  0.00  0.00    +0.000 A 
ATOM     25  C   UNL     1       3.439   6.010  19.527  0.00  0.00    +0.000 A 
ATOM     26  C   UNL     1       4.312   6.170  18.430  0.00  0.00    +0.000 A 
ATOM     27  C   UNL     1       3.725   6.285  17.197  0.00  0.00    +0.000 A 
ATOM     28  C   UNL     1       2.914   7.414  17.467  0.00  0.00    +0.000 A 
ATOM     29  C   UNL     1       2.304   7.910  18.806  0.00  0.00    +0.000 A 
ENDBRANCH  19  20
ENDBRANCH   6  19
TORSDOF 5
ENDMDL
MODEL 9
REMARK VINA RESULT:      -6.7      5.807      9.815
REMARK  Name = 
REMARK  6 active torsions:
REMARK  status: ('A' for Active; 'I' for Inactive)
REMARK    1  A    between atoms: C_1  and  C_2
REMARK    2  A    between atoms: C_5  and  C_6
REMARK    3  A    between atoms: C_9  and  C_10
REMARK    4  A    between atoms: C_10  and  C_11
REMARK    5  A    between atoms: C_25  and  C_26
REMARK    6  A    between atoms: C_26  and  O_28
REMARK                            x       y       z     vdW  Elec       q    Type
REMARK                         _______ _______ _______ _____ _____    ______ ____
ROOT
ATOM      1  C   UNL     1       4.789  14.820  17.858  0.00  0.00    +0.000 C 
ATOM      2  C   UNL     1       3.371  14.570  18.238  0.00  0.00    +0.000 A 
ATOM      3  S   UNL     1       2.963  12.899  18.346  0.00  0.00    +0.000 S 
ATOM      4  C   UNL     1       1.316  13.352  18.624  0.00  0.00    +0.000 A 
ATOM      5  C   UNL     1       0.382  12.409  18.908  0.00  0.00    +0.000 A 
ATOM      6  C   UNL     1      -0.889  12.965  19.390  0.00  0.00    +0.000 A 
ATOM      7  C   UNL     1      -1.056  14.301  19.537  0.00  0.00    +0.000 A 
ATOM      8  C   UNL     1      -0.058  15.308  19.159  0.00  0.00    +0.000 A 
ATOM      9  O   UNL     1      -0.344  16.505  19.264  0.00  0.00    +0.000 OA
ATOM     10  N   UNL     1       1.135  14.746  18.738  0.00  0.00    +0.000 N 
ATOM     11  C   UNL     1       2.334  15.403  18.466  0.00  0.00    +0.000 A 
ENDROOT
BRANCH   5  12
ATOM     12  C   UNL     1       0.701  10.981  19.108  0.00  0.00    +0.000 C 
ATOM     13  C   UNL     1       1.010   9.660  19.709  0.00  0.00    +0.000 C 
ATOM     14  C   UNL     1       0.898   9.771  18.227  0.00  0.00    +0.000 C 
ENDBRANCH   5  12
BRANCH  11  15
ATOM     15  C   UNL     1       2.582  16.886  18.395  0.00  0.00    +0.000 C 
ATOM     16  O   UNL     1       2.982  17.524  19.362  0.00  0.00    +0.000 OA
BRANCH  15  17
ATOM     17  O   UNL     1       2.409  17.534  17.233  0.00  0.00    +0.000 OA
ATOM     18  H   UNL     1       3.068  17.394  16.517  0.00  0.00    +0.000 HD
ENDBRANCH  15  17
ENDBRANCH  11  15
BRANCH   6  19
ATOM     19  C   UNL     1      -1.969  11.984  19.723  0.00  0.00    +0.000 C 
BRANCH  19  20
ATOM     20  C   UNL     1      -2.949  11.868  18.560  0.00  0.00    +0.000 A 
ATOM     21  C   UNL     1      -2.364  11.450  17.343  0.00  0.00    +0.000 A 
ATOM     22  C   UNL     1      -3.191  10.864  16.401  0.00  0.00    +0.000 A 
ATOM     23  C   UNL     1      -4.546  11.155  16.447  0.00  0.00    +0.000 A 
ATOM     24  C   UNL     1      -5.103  11.836  17.543  0.00  0.00    +0.000 A 
ATOM     25  C   UNL     1      -6.396  12.319  17.523  0.00  0.00    +0.000 A 
ATOM     26  C   UNL     1      -6.922  12.978  18.655  0.00  0.00    +0.000 A 
ATOM     27  C   UNL     1      -6.873  12.289  19.839  0.00  0.00    +0.000 A 
ATOM     28  C   UNL     1      -5.474  12.073  19.886  0.00  0.00    +0.000 A 
ATOM     29  C   UNL     1      -4.441  11.961  18.733  0.00  0.00    +0.000 A 
ENDBRANCH  19  20
ENDBRANCH   6  19
TORSDOF 5
ENDMDL
