MODEL 1
REMARK VINA RESULT:      -8.5      0.000      0.000
REMARK  Name = 
REMARK  11 active torsions:
REMARK  status: ('A' for Active; 'I' for Inactive)
REMARK    1  A    between atoms: C_1  and  O_2
REMARK    2  A    between atoms: O_2  and  C_3
REMARK    3  A    between atoms: C_6  and  C_7
REMARK    4  A    between atoms: C_7  and  C_8
REMARK    5  A    between atoms: C_7  and  N_9
REMARK    6  A    between atoms: N_9  and  C_10
REMARK    7  A    between atoms: N_9  and  C_11
REMARK    8  A    between atoms: C_11  and  C_12
REMARK    9  A    between atoms: C_13  and  C_14
REMARK   10  A    between atoms: C_14  and  C_15
REMARK   11  A    between atoms: C_14  and  C_16
REMARK                            x       y       z     vdW  Elec       q    Type
REMARK                         _______ _______ _______ _____ _____    ______ ____
ROOT
ATOM      1  C   UNL     1       4.371   4.302  16.827  0.00  0.00    +0.000 C 
ENDROOT
BRANCH   1   2
ATOM      2  C   UNL     1       5.615   4.788  16.120  0.00  0.00    +0.000 A 
ATOM      3  C   UNL     1       6.622   5.668  16.557  0.00  0.00    +0.000 A 
ATOM      4  N   UNL     1       7.484   5.857  15.495  0.00  0.00    +0.000 N 
ATOM      5  C   UNL     1       7.099   5.127  14.414  0.00  0.00    +0.000 A 
ATOM      6  N   UNL     1       7.759   5.110  13.243  0.00  0.00    +0.000 NA
ATOM      7  C   UNL     1       7.185   4.299  12.329  0.00  0.00    +0.000 A 
ATOM      8  C   UNL     1       6.035   3.547  12.525  0.00  0.00    +0.000 A 
ATOM      9  C   UNL     1       5.386   3.612  13.761  0.00  0.00    +0.000 A 
ATOM     10  C   UNL     1       5.945   4.439  14.757  0.00  0.00    +0.000 A 
ATOM     11  H   UNL     1       8.294   6.459  15.491  0.00  0.00    +0.000 HD
BRANCH   3  12
ATOM     12  C   UNL     1       6.913   6.363  17.860  0.00  0.00    +0.000 C 
ATOM     13  C   UNL     1       7.789   5.530  18.791  0.00  0.00    +0.000 C 
ATOM     14  C   UNL     1       7.433   7.780  17.631  0.00  0.00    +0.000 C 
ENDBRANCH   3  12
ENDBRANCH   1   2
BRANCH   1  15
ATOM     15  N   UNL     1       4.283   4.648  18.265  0.00  0.00    +0.000 NA
ATOM     16  C   UNL     1       4.908   3.632  19.117  0.00  0.00    +0.000 C 
BRANCH  15  17
ATOM     17  C   UNL     1       2.866   4.945  18.653  0.00  0.00    +0.000 C 
ATOM     18  C   UNL     1       1.859   4.300  17.677  0.00  0.00    +0.000 C 
BRANCH  17  22
ATOM     19  C   UNL     1       1.651   9.087  19.104  0.00  0.00    +0.000 A 
ATOM     20  C   UNL     1       2.282   8.666  17.933  0.00  0.00    +0.000 A 
ATOM     21  C   UNL     1       2.749   7.353  17.817  0.00  0.00    +0.000 A 
ATOM     22  C   UNL     1       2.586   6.436  18.871  0.00  0.00    +0.000 A 
ATOM     23  C   UNL     1       2.050   6.911  20.076  0.00  0.00    +0.000 A 
ATOM     24  C   UNL     1       1.586   8.220  20.190  0.00  0.00    +0.000 A 
BRANCH  19  26
ATOM     25  C   UNL     1       0.274  10.668  20.178  0.00  0.00    +0.000 C 
ATOM     26  O   UNL     1       1.165  10.366  19.106  0.00  0.00    +0.000 OA
ENDBRANCH  19  26
ENDBRANCH  17  22
ENDBRANCH  15  17
ENDBRANCH   1  15
TORSDOF 6
ENDMDL
MODEL 2
REMARK VINA RESULT:      -8.1      1.311      1.979
REMARK  Name = 
REMARK  11 active torsions:
REMARK  status: ('A' for Active; 'I' for Inactive)
REMARK    1  A    between atoms: C_1  and  O_2
REMARK    2  A    between atoms: O_2  and  C_3
REMARK    3  A    between atoms: C_6  and  C_7
REMARK    4  A    between atoms: C_7  and  C_8
REMARK    5  A    between atoms: C_7  and  N_9
REMARK    6  A    between atoms: N_9  and  C_10
REMARK    7  A    between atoms: N_9  and  C_11
REMARK    8  A    between atoms: C_11  and  C_12
REMARK    9  A    between atoms: C_13  and  C_14
REMARK   10  A    between atoms: C_14  and  C_15
REMARK   11  A    between atoms: C_14  and  C_16
REMARK                            x       y       z     vdW  Elec       q    Type
REMARK                         _______ _______ _______ _____ _____    ______ ____
ROOT
ATOM      1  C   UNL     1       4.219   4.433  16.645  0.00  0.00    +0.000 C 
ENDROOT
BRANCH   1   2
ATOM      2  C   UNL     1       5.514   4.804  15.960  0.00  0.00    +0.000 A 
ATOM      3  C   UNL     1       6.586   5.595  16.413  0.00  0.00    +0.000 A 
ATOM      4  N   UNL     1       7.480   5.702  15.367  0.00  0.00    +0.000 N 
ATOM      5  C   UNL     1       7.053   5.002  14.281  0.00  0.00    +0.000 A 
ATOM      6  N   UNL     1       7.731   4.922  13.123  0.00  0.00    +0.000 NA
ATOM      7  C   UNL     1       7.105   4.160  12.202  0.00  0.00    +0.000 A 
ATOM      8  C   UNL     1       5.890   3.511  12.378  0.00  0.00    +0.000 A 
ATOM      9  C   UNL     1       5.227   3.640  13.602  0.00  0.00    +0.000 A 
ATOM     10  C   UNL     1       5.837   4.420  14.604  0.00  0.00    +0.000 A 
ATOM     11  H   UNL     1       8.339   6.231  15.376  0.00  0.00    +0.000 HD
BRANCH   3  12
ATOM     12  C   UNL     1       6.912   6.269  17.719  0.00  0.00    +0.000 C 
ATOM     13  C   UNL     1       7.667   5.357  18.681  0.00  0.00    +0.000 C 
ATOM     14  C   UNL     1       7.587   7.619  17.495  0.00  0.00    +0.000 C 
ENDBRANCH   3  12
ENDBRANCH   1   2
BRANCH   1  15
ATOM     15  N   UNL     1       4.313   3.317  17.615  0.00  0.00    +0.000 NA
ATOM     16  C   UNL     1       3.218   2.354  17.458  0.00  0.00    +0.000 C 
BRANCH  15  17
ATOM     17  C   UNL     1       4.434   3.840  19.015  0.00  0.00    +0.000 C 
ATOM     18  C   UNL     1       4.541   2.698  20.045  0.00  0.00    +0.000 C 
BRANCH  17  22
ATOM     19  C   UNL     1       1.628   6.833  20.432  0.00  0.00    +0.000 A 
ATOM     20  C   UNL     1       1.504   5.506  20.843  0.00  0.00    +0.000 A 
ATOM     21  C   UNL     1       2.354   4.525  20.324  0.00  0.00    +0.000 A 
ATOM     22  C   UNL     1       3.349   4.856  19.388  0.00  0.00    +0.000 A 
ATOM     23  C   UNL     1       3.385   6.174  18.908  0.00  0.00    +0.000 A 
ATOM     24  C   UNL     1       2.536   7.150  19.426  0.00  0.00    +0.000 A 
BRANCH  19  26
ATOM     25  C   UNL     1       1.468   8.720  21.834  0.00  0.00    +0.000 C 
ATOM     26  O   UNL     1       0.802   7.738  21.040  0.00  0.00    +0.000 OA
ENDBRANCH  19  26
ENDBRANCH  17  22
ENDBRANCH  15  17
ENDBRANCH   1  15
TORSDOF 6
ENDMDL
MODEL 3
REMARK VINA RESULT:      -7.9      0.807      1.286
REMARK  Name = 
REMARK  11 active torsions:
REMARK  status: ('A' for Active; 'I' for Inactive)
REMARK    1  A    between atoms: C_1  and  O_2
REMARK    2  A    between atoms: O_2  and  C_3
REMARK    3  A    between atoms: C_6  and  C_7
REMARK    4  A    between atoms: C_7  and  C_8
REMARK    5  A    between atoms: C_7  and  N_9
REMARK    6  A    between atoms: N_9  and  C_10
REMARK    7  A    between atoms: N_9  and  C_11
REMARK    8  A    between atoms: C_11  and  C_12
REMARK    9  A    between atoms: C_13  and  C_14
REMARK   10  A    between atoms: C_14  and  C_15
REMARK   11  A    between atoms: C_14  and  C_16
REMARK                            x       y       z     vdW  Elec       q    Type
REMARK                         _______ _______ _______ _____ _____    ______ ____
ROOT
ATOM      1  C   UNL     1       4.709   3.830  16.846  0.00  0.00    +0.000 C 
ENDROOT
BRANCH   1   2
ATOM      2  C   UNL     1       5.835   4.529  16.119  0.00  0.00    +0.000 A 
ATOM      3  C   UNL     1       6.722   5.525  16.564  0.00  0.00    +0.000 A 
ATOM      4  N   UNL     1       7.496   5.890  15.481  0.00  0.00    +0.000 N 
ATOM      5  C   UNL     1       7.172   5.165  14.377  0.00  0.00    +0.000 A 
ATOM      6  N   UNL     1       7.772   5.303  13.182  0.00  0.00    +0.000 NA
ATOM      7  C   UNL     1       7.279   4.462  12.248  0.00  0.00    +0.000 A 
ATOM      8  C   UNL     1       6.261   3.539  12.447  0.00  0.00    +0.000 A 
ATOM      9  C   UNL     1       5.668   3.448  13.709  0.00  0.00    +0.000 A 
ATOM     10  C   UNL     1       6.147   4.299  14.726  0.00  0.00    +0.000 A 
ATOM     11  H   UNL     1       8.209   6.605  15.478  0.00  0.00    +0.000 HD
BRANCH   3  12
ATOM     12  C   UNL     1       6.970   6.191  17.891  0.00  0.00    +0.000 C 
ATOM     13  C   UNL     1       7.946   5.413  18.769  0.00  0.00    +0.000 C 
ATOM     14  C   UNL     1       7.339   7.661  17.715  0.00  0.00    +0.000 C 
ENDBRANCH   3  12
ENDBRANCH   1   2
BRANCH   1  15
ATOM     15  N   UNL     1       4.413   4.348  18.203  0.00  0.00    +0.000 NA
ATOM     16  C   UNL     1       5.201   3.672  19.237  0.00  0.00    +0.000 C 
BRANCH  15  17
ATOM     17  C   UNL     1       2.939   4.311  18.473  0.00  0.00    +0.000 C 
ATOM     18  C   UNL     1       2.151   3.751  17.272  0.00  0.00    +0.000 C 
BRANCH  17  22
ATOM     19  C   UNL     1       1.740   8.169  20.061  0.00  0.00    +0.000 A 
ATOM     20  C   UNL     1       1.519   7.007  20.802  0.00  0.00    +0.000 A 
ATOM     21  C   UNL     1       1.827   5.756  20.259  0.00  0.00    +0.000 A 
ATOM     22  C   UNL     1       2.370   5.646  18.966  0.00  0.00    +0.000 A 
ATOM     23  C   UNL     1       2.481   6.816  18.201  0.00  0.00    +0.000 A 
ATOM     24  C   UNL     1       2.172   8.062  18.743  0.00  0.00    +0.000 A 
BRANCH  19  26
ATOM     25  C   UNL     1       1.009   9.224  22.036  0.00  0.00    +0.000 C 
ATOM     26  O   UNL     1       1.475   9.352  20.694  0.00  0.00    +0.000 OA
ENDBRANCH  19  26
ENDBRANCH  17  22
ENDBRANCH  15  17
ENDBRANCH   1  15
TORSDOF 6
ENDMDL
MODEL 4
REMARK VINA RESULT:      -7.3      2.452      5.268
REMARK  Name = 
REMARK  11 active torsions:
REMARK  status: ('A' for Active; 'I' for Inactive)
REMARK    1  A    between atoms: C_1  and  O_2
REMARK    2  A    between atoms: O_2  and  C_3
REMARK    3  A    between atoms: C_6  and  C_7
REMARK    4  A    between atoms: C_7  and  C_8
REMARK    5  A    between atoms: C_7  and  N_9
REMARK    6  A    between atoms: N_9  and  C_10
REMARK    7  A    between atoms: N_9  and  C_11
REMARK    8  A    between atoms: C_11  and  C_12
REMARK    9  A    between atoms: C_13  and  C_14
REMARK   10  A    between atoms: C_14  and  C_15
REMARK   11  A    between atoms: C_14  and  C_16
REMARK                            x       y       z     vdW  Elec       q    Type
REMARK                         _______ _______ _______ _____ _____    ______ ____
ROOT
ATOM      1  C   UNL     1       2.887   7.137  19.310  0.00  0.00    +0.000 C 
ENDROOT
BRANCH   1   2
ATOM      2  C   UNL     1       3.013   5.832  18.558  0.00  0.00    +0.000 A 
ATOM      3  C   UNL     1       3.810   5.497  17.449  0.00  0.00    +0.000 A 
ATOM      4  N   UNL     1       3.479   4.206  17.087  0.00  0.00    +0.000 N 
ATOM      5  C   UNL     1       2.535   3.689  17.919  0.00  0.00    +0.000 A 
ATOM      6  N   UNL     1       2.033   2.447  17.808  0.00  0.00    +0.000 NA
ATOM      7  C   UNL     1       1.117   2.166  18.759  0.00  0.00    +0.000 A 
ATOM      8  C   UNL     1       0.700   3.031  19.761  0.00  0.00    +0.000 A 
ATOM      9  C   UNL     1       1.251   4.314  19.820  0.00  0.00    +0.000 A 
ATOM     10  C   UNL     1       2.218   4.661  18.855  0.00  0.00    +0.000 A 
ATOM     11  H   UNL     1       3.864   3.694  16.308  0.00  0.00    +0.000 HD
BRANCH   3  12
ATOM     12  C   UNL     1       4.875   6.219  16.668  0.00  0.00    +0.000 C 
ATOM     13  C   UNL     1       6.039   6.678  17.542  0.00  0.00    +0.000 C 
ATOM     14  C   UNL     1       5.305   5.419  15.442  0.00  0.00    +0.000 C 
ENDBRANCH   3  12
ENDBRANCH   1   2
BRANCH   1  15
ATOM     15  N   UNL     1       1.972   8.132  18.705  0.00  0.00    +0.000 NA
ATOM     16  C   UNL     1       2.606   8.872  17.611  0.00  0.00    +0.000 C 
BRANCH  15  17
ATOM     17  C   UNL     1       1.393   9.028  19.758  0.00  0.00    +0.000 C 
ATOM     18  C   UNL     1       1.015   8.243  21.031  0.00  0.00    +0.000 C 
BRANCH  17  22
ATOM     19  C   UNL     1      -2.157  11.198  18.522  0.00  0.00    +0.000 A 
ATOM     20  C   UNL     1      -1.570  10.268  17.663  0.00  0.00    +0.000 A 
ATOM     21  C   UNL     1      -0.380   9.629  18.024  0.00  0.00    +0.000 A 
ATOM     22  C   UNL     1       0.240   9.904  19.256  0.00  0.00    +0.000 A 
ATOM     23  C   UNL     1      -0.307  10.920  20.052  0.00  0.00    +0.000 A 
ATOM     24  C   UNL     1      -1.493  11.557  19.690  0.00  0.00    +0.000 A 
BRANCH  19  26
ATOM     25  C   UNL     1      -4.375  10.763  17.858  0.00  0.00    +0.000 C 
ATOM     26  O   UNL     1      -3.354  11.724  18.120  0.00  0.00    +0.000 OA
ENDBRANCH  19  26
ENDBRANCH  17  22
ENDBRANCH  15  17
ENDBRANCH   1  15
TORSDOF 6
ENDMDL
MODEL 5
REMARK VINA RESULT:      -7.3      1.075      1.115
REMARK  Name = 
REMARK  11 active torsions:
REMARK  status: ('A' for Active; 'I' for Inactive)
REMARK    1  A    between atoms: C_1  and  O_2
REMARK    2  A    between atoms: O_2  and  C_3
REMARK    3  A    between atoms: C_6  and  C_7
REMARK    4  A    between atoms: C_7  and  C_8
REMARK    5  A    between atoms: C_7  and  N_9
REMARK    6  A    between atoms: N_9  and  C_10
REMARK    7  A    between atoms: N_9  and  C_11
REMARK    8  A    between atoms: C_11  and  C_12
REMARK    9  A    between atoms: C_13  and  C_14
REMARK   10  A    between atoms: C_14  and  C_15
REMARK   11  A    between atoms: C_14  and  C_16
REMARK                            x       y       z     vdW  Elec       q    Type
REMARK                         _______ _______ _______ _____ _____    ______ ____
ROOT
ATOM      1  C   UNL     1       4.123   3.590  16.992  0.00  0.00    +0.000 C 
ENDROOT
BRANCH   1   2
ATOM      2  C   UNL     1       5.442   4.184  16.554  0.00  0.00    +0.000 A 
ATOM      3  C   UNL     1       6.437   4.836  17.304  0.00  0.00    +0.000 A 
ATOM      4  N   UNL     1       7.396   5.272  16.412  0.00  0.00    +0.000 N 
ATOM      5  C   UNL     1       7.083   4.912  15.139  0.00  0.00    +0.000 A 
ATOM      6  N   UNL     1       7.844   5.197  14.067  0.00  0.00    +0.000 NA
ATOM      7  C   UNL     1       7.324   4.723  12.915  0.00  0.00    +0.000 A 
ATOM      8  C   UNL     1       6.134   4.018  12.794  0.00  0.00    +0.000 A 
ATOM      9  C   UNL     1       5.381   3.761  13.943  0.00  0.00    +0.000 A 
ATOM     10  C   UNL     1       5.879   4.227  15.176  0.00  0.00    +0.000 A 
ATOM     11  H   UNL     1       8.225   5.798  16.646  0.00  0.00    +0.000 HD
BRANCH   3  12
ATOM     12  C   UNL     1       6.636   5.103  18.772  0.00  0.00    +0.000 C 
ATOM     13  C   UNL     1       8.063   5.527  19.107  0.00  0.00    +0.000 C 
ATOM     14  C   UNL     1       5.570   6.050  19.315  0.00  0.00    +0.000 C 
ENDBRANCH   3  12
ENDBRANCH   1   2
BRANCH   1  15
ATOM     15  N   UNL     1       3.841   3.672  18.444  0.00  0.00    +0.000 NA
ATOM     16  C   UNL     1       4.159   2.422  19.140  0.00  0.00    +0.000 C 
BRANCH  15  17
ATOM     17  C   UNL     1       2.436   4.136  18.685  0.00  0.00    +0.000 C 
ATOM     18  C   UNL     1       1.494   3.729  17.533  0.00  0.00    +0.000 C 
BRANCH  17  22
ATOM     19  C   UNL     1       1.684   8.326  19.530  0.00  0.00    +0.000 A 
ATOM     20  C   UNL     1       2.104   7.932  18.260  0.00  0.00    +0.000 A 
ATOM     21  C   UNL     1       2.428   6.595  18.007  0.00  0.00    +0.000 A 
ATOM     22  C   UNL     1       2.329   5.627  19.022  0.00  0.00    +0.000 A 
ATOM     23  C   UNL     1       2.011   6.064  20.316  0.00  0.00    +0.000 A 
ATOM     24  C   UNL     1       1.690   7.397  20.565  0.00  0.00    +0.000 A 
BRANCH  19  26
ATOM     25  C   UNL     1       0.720  10.222  18.518  0.00  0.00    +0.000 C 
ATOM     26  O   UNL     1       1.323   9.638  19.671  0.00  0.00    +0.000 OA
ENDBRANCH  19  26
ENDBRANCH  17  22
ENDBRANCH  15  17
ENDBRANCH   1  15
TORSDOF 6
ENDMDL
MODEL 6
REMARK VINA RESULT:      -7.2      2.776      7.005
REMARK  Name = 
REMARK  11 active torsions:
REMARK  status: ('A' for Active; 'I' for Inactive)
REMARK    1  A    between atoms: C_1  and  O_2
REMARK    2  A    between atoms: O_2  and  C_3
REMARK    3  A    between atoms: C_6  and  C_7
REMARK    4  A    between atoms: C_7  and  C_8
REMARK    5  A    between atoms: C_7  and  N_9
REMARK    6  A    between atoms: N_9  and  C_10
REMARK    7  A    between atoms: N_9  and  C_11
REMARK    8  A    between atoms: C_11  and  C_12
REMARK    9  A    between atoms: C_13  and  C_14
REMARK   10  A    between atoms: C_14  and  C_15
REMARK   11  A    between atoms: C_14  and  C_16
REMARK                            x       y       z     vdW  Elec       q    Type
REMARK                         _______ _______ _______ _____ _____    ______ ____
ROOT
ATOM      1  C   UNL     1       4.779   5.956  17.710  0.00  0.00    +0.000 C 
ENDROOT
BRANCH   1   2
ATOM      2  C   UNL     1       3.509   5.522  18.405  0.00  0.00    +0.000 A 
ATOM      3  C   UNL     1       2.559   6.279  19.116  0.00  0.00    +0.000 A 
ATOM      4  N   UNL     1       1.640   5.390  19.635  0.00  0.00    +0.000 N 
ATOM      5  C   UNL     1       1.932   4.112  19.273  0.00  0.00    +0.000 A 
ATOM      6  N   UNL     1       1.200   3.042  19.629  0.00  0.00    +0.000 NA
ATOM      7  C   UNL     1       1.691   1.885  19.137  0.00  0.00    +0.000 A 
ATOM      8  C   UNL     1       2.826   1.757  18.349  0.00  0.00    +0.000 A 
ATOM      9  C   UNL     1       3.553   2.905  18.020  0.00  0.00    +0.000 A 
ATOM     10  C   UNL     1       3.084   4.144  18.501  0.00  0.00    +0.000 A 
ATOM     11  H   UNL     1       0.850   5.629  20.216  0.00  0.00    +0.000 HD
BRANCH   3  12
ATOM     12  C   UNL     1       2.373   7.750  19.374  0.00  0.00    +0.000 C 
ATOM     13  C   UNL     1       1.922   8.514  18.132  0.00  0.00    +0.000 C 
ATOM     14  C   UNL     1       1.496   7.993  20.598  0.00  0.00    +0.000 C 
ENDBRANCH   3  12
ENDBRANCH   1   2
BRANCH   1  15
ATOM     15  N   UNL     1       5.996   5.196  18.081  0.00  0.00    +0.000 NA
ATOM     16  C   UNL     1       6.398   5.440  19.470  0.00  0.00    +0.000 C 
BRANCH  15  17
ATOM     17  C   UNL     1       7.099   5.451  17.100  0.00  0.00    +0.000 C 
ATOM     18  C   UNL     1       7.418   6.955  16.976  0.00  0.00    +0.000 C 
BRANCH  17  22
ATOM     19  C   UNL     1       6.107   3.885  13.175  0.00  0.00    +0.000 A 
ATOM     20  C   UNL     1       5.548   3.315  14.318  0.00  0.00    +0.000 A 
ATOM     21  C   UNL     1       5.929   3.761  15.587  0.00  0.00    +0.000 A 
ATOM     22  C   UNL     1       6.872   4.793  15.734  0.00  0.00    +0.000 A 
ATOM     23  C   UNL     1       7.501   5.275  14.576  0.00  0.00    +0.000 A 
ATOM     24  C   UNL     1       7.120   4.828  13.313  0.00  0.00    +0.000 A 
BRANCH  19  26
ATOM     25  C   UNL     1       6.052   2.123  11.612  0.00  0.00    +0.000 C 
ATOM     26  O   UNL     1       5.628   3.436  11.975  0.00  0.00    +0.000 OA
ENDBRANCH  19  26
ENDBRANCH  17  22
ENDBRANCH  15  17
ENDBRANCH   1  15
TORSDOF 6
ENDMDL
MODEL 7
REMARK VINA RESULT:      -7.2      2.806      4.524
REMARK  Name = 
REMARK  11 active torsions:
REMARK  status: ('A' for Active; 'I' for Inactive)
REMARK    1  A    between atoms: C_1  and  O_2
REMARK    2  A    between atoms: O_2  and  C_3
REMARK    3  A    between atoms: C_6  and  C_7
REMARK    4  A    between atoms: C_7  and  C_8
REMARK    5  A    between atoms: C_7  and  N_9
REMARK    6  A    between atoms: N_9  and  C_10
REMARK    7  A    between atoms: N_9  and  C_11
REMARK    8  A    between atoms: C_11  and  C_12
REMARK    9  A    between atoms: C_13  and  C_14
REMARK   10  A    between atoms: C_14  and  C_15
REMARK   11  A    between atoms: C_14  and  C_16
REMARK                            x       y       z     vdW  Elec       q    Type
REMARK                         _______ _______ _______ _____ _____    ______ ____
ROOT
ATOM      1  C   UNL     1       2.432   5.703  18.526  0.00  0.00    +0.000 C 
ENDROOT
BRANCH   1   2
ATOM      2  C   UNL     1       3.717   4.913  18.608  0.00  0.00    +0.000 A 
ATOM      3  C   UNL     1       3.962   3.631  19.132  0.00  0.00    +0.000 A 
ATOM      4  N   UNL     1       5.323   3.414  19.051  0.00  0.00    +0.000 N 
ATOM      5  C   UNL     1       5.957   4.473  18.481  0.00  0.00    +0.000 A 
ATOM      6  N   UNL     1       7.283   4.531  18.268  0.00  0.00    +0.000 NA
ATOM      7  C   UNL     1       7.669   5.683  17.679  0.00  0.00    +0.000 A 
ATOM      8  C   UNL     1       6.829   6.727  17.316  0.00  0.00    +0.000 A 
ATOM      9  C   UNL     1       5.460   6.613  17.572  0.00  0.00    +0.000 A 
ATOM     10  C   UNL     1       4.999   5.428  18.181  0.00  0.00    +0.000 A 
ATOM     11  H   UNL     1       5.810   2.591  19.374  0.00  0.00    +0.000 HD
BRANCH   3  12
ATOM     12  C   UNL     1       3.086   2.545  19.697  0.00  0.00    +0.000 C 
ATOM     13  C   UNL     1       2.690   2.801  21.148  0.00  0.00    +0.000 C 
ATOM     14  C   UNL     1       1.903   2.251  18.779  0.00  0.00    +0.000 C 
ENDBRANCH   3  12
ENDBRANCH   1   2
BRANCH   1  15
ATOM     15  N   UNL     1       2.195   6.646  19.643  0.00  0.00    +0.000 NA
ATOM     16  C   UNL     1       1.448   6.026  20.742  0.00  0.00    +0.000 C 
BRANCH  15  17
ATOM     17  C   UNL     1       1.559   7.909  19.145  0.00  0.00    +0.000 C 
ATOM     18  C   UNL     1       2.456   8.634  18.120  0.00  0.00    +0.000 C 
BRANCH  17  22
ATOM     19  C   UNL     1      -0.139  10.272  22.365  0.00  0.00    +0.000 A 
ATOM     20  C   UNL     1      -0.455  10.567  21.039  0.00  0.00    +0.000 A 
ATOM     21  C   UNL     1       0.155   9.862  19.996  0.00  0.00    +0.000 A 
ATOM     22  C   UNL     1       1.087   8.844  20.264  0.00  0.00    +0.000 A 
ATOM     23  C   UNL     1       1.469   8.640  21.598  0.00  0.00    +0.000 A 
ATOM     24  C   UNL     1       0.861   9.344  22.635  0.00  0.00    +0.000 A 
BRANCH  19  26
ATOM     25  C   UNL     1      -1.301  12.246  22.915  0.00  0.00    +0.000 C 
ATOM     26  O   UNL     1      -0.832  10.962  23.322  0.00  0.00    +0.000 OA
ENDBRANCH  19  26
ENDBRANCH  17  22
ENDBRANCH  15  17
ENDBRANCH   1  15
TORSDOF 6
ENDMDL
MODEL 8
REMARK VINA RESULT:      -7.1      2.839      7.215
REMARK  Name = 
REMARK  11 active torsions:
REMARK  status: ('A' for Active; 'I' for Inactive)
REMARK    1  A    between atoms: C_1  and  O_2
REMARK    2  A    between atoms: O_2  and  C_3
REMARK    3  A    between atoms: C_6  and  C_7
REMARK    4  A    between atoms: C_7  and  C_8
REMARK    5  A    between atoms: C_7  and  N_9
REMARK    6  A    between atoms: N_9  and  C_10
REMARK    7  A    between atoms: N_9  and  C_11
REMARK    8  A    between atoms: C_11  and  C_12
REMARK    9  A    between atoms: C_13  and  C_14
REMARK   10  A    between atoms: C_14  and  C_15
REMARK   11  A    between atoms: C_14  and  C_16
REMARK                            x       y       z     vdW  Elec       q    Type
REMARK                         _______ _______ _______ _____ _____    ______ ____
ROOT
ATOM      1  C   UNL     1       4.017   6.264  17.566  0.00  0.00    +0.000 C 
ENDROOT
BRANCH   1   2
ATOM      2  C   UNL     1       3.131   5.972  18.755  0.00  0.00    +0.000 A 
ATOM      3  C   UNL     1       2.387   6.845  19.570  0.00  0.00    +0.000 A 
ATOM      4  N   UNL     1       1.829   6.083  20.576  0.00  0.00    +0.000 N 
ATOM      5  C   UNL     1       2.152   4.769  20.435  0.00  0.00    +0.000 A 
ATOM      6  N   UNL     1       1.737   3.798  21.268  0.00  0.00    +0.000 NA
ATOM      7  C   UNL     1       2.183   2.575  20.909  0.00  0.00    +0.000 A 
ATOM      8  C   UNL     1       2.989   2.297  19.813  0.00  0.00    +0.000 A 
ATOM      9  C   UNL     1       3.396   3.350  18.990  0.00  0.00    +0.000 A 
ATOM     10  C   UNL     1       2.956   4.649  19.312  0.00  0.00    +0.000 A 
ATOM     11  H   UNL     1       1.260   6.430  21.334  0.00  0.00    +0.000 HD
BRANCH   3  12
ATOM     12  C   UNL     1       2.101   8.322  19.534  0.00  0.00    +0.000 C 
ATOM     13  C   UNL     1       1.627   8.799  18.164  0.00  0.00    +0.000 C 
ATOM     14  C   UNL     1       1.186   8.740  20.681  0.00  0.00    +0.000 C 
ENDBRANCH   3  12
ENDBRANCH   1   2
BRANCH   1  15
ATOM     15  N   UNL     1       5.464   6.378  17.866  0.00  0.00    +0.000 NA
ATOM     16  C   UNL     1       6.060   7.574  17.265  0.00  0.00    +0.000 C 
BRANCH  15  17
ATOM     17  C   UNL     1       6.182   5.116  17.495  0.00  0.00    +0.000 C 
ATOM     18  C   UNL     1       7.591   5.055  18.120  0.00  0.00    +0.000 C 
BRANCH  17  22
ATOM     19  C   UNL     1       6.421   3.926  13.327  0.00  0.00    +0.000 A 
ATOM     20  C   UNL     1       7.485   4.600  13.925  0.00  0.00    +0.000 A 
ATOM     21  C   UNL     1       7.379   5.059  15.242  0.00  0.00    +0.000 A 
ATOM     22  C   UNL     1       6.206   4.843  15.987  0.00  0.00    +0.000 A 
ATOM     23  C   UNL     1       5.111   4.261  15.331  0.00  0.00    +0.000 A 
ATOM     24  C   UNL     1       5.219   3.806  14.018  0.00  0.00    +0.000 A 
BRANCH  19  26
ATOM     25  C   UNL     1       5.733   2.429  11.643  0.00  0.00    +0.000 C 
ATOM     26  O   UNL     1       6.635   3.453  12.062  0.00  0.00    +0.000 OA
ENDBRANCH  19  26
ENDBRANCH  17  22
ENDBRANCH  15  17
ENDBRANCH   1  15
TORSDOF 6
ENDMDL
MODEL 9
REMARK VINA RESULT:      -7.1      2.359      4.980
REMARK  Name = 
REMARK  11 active torsions:
REMARK  status: ('A' for Active; 'I' for Inactive)
REMARK    1  A    between atoms: C_1  and  O_2
REMARK    2  A    between atoms: O_2  and  C_3
REMARK    3  A    between atoms: C_6  and  C_7
REMARK    4  A    between atoms: C_7  and  C_8
REMARK    5  A    between atoms: C_7  and  N_9
REMARK    6  A    between atoms: N_9  and  C_10
REMARK    7  A    between atoms: N_9  and  C_11
REMARK    8  A    between atoms: C_11  and  C_12
REMARK    9  A    between atoms: C_13  and  C_14
REMARK   10  A    between atoms: C_14  and  C_15
REMARK   11  A    between atoms: C_14  and  C_16
REMARK                            x       y       z     vdW  Elec       q    Type
REMARK                         _______ _______ _______ _____ _____    ______ ____
ROOT
ATOM      1  C   UNL     1       2.687   7.073  19.451  0.00  0.00    +0.000 C 
ENDROOT
BRANCH   1   2
ATOM      2  C   UNL     1       2.939   5.837  18.618  0.00  0.00    +0.000 A 
ATOM      3  C   UNL     1       2.331   4.569  18.668  0.00  0.00    +0.000 A 
ATOM      4  N   UNL     1       2.993   3.767  17.760  0.00  0.00    +0.000 N 
ATOM      5  C   UNL     1       3.971   4.458  17.114  0.00  0.00    +0.000 A 
ATOM      6  N   UNL     1       4.768   3.929  16.169  0.00  0.00    +0.000 NA
ATOM      7  C   UNL     1       5.652   4.819  15.673  0.00  0.00    +0.000 A 
ATOM      8  C   UNL     1       5.771   6.146  16.063  0.00  0.00    +0.000 A 
ATOM      9  C   UNL     1       4.921   6.637  17.058  0.00  0.00    +0.000 A 
ATOM     10  C   UNL     1       3.972   5.753  17.610  0.00  0.00    +0.000 A 
ATOM     11  H   UNL     1       2.803   2.792  17.585  0.00  0.00    +0.000 HD
BRANCH   3  12
ATOM     12  C   UNL     1       1.182   3.989  19.448  0.00  0.00    +0.000 C 
ATOM     13  C   UNL     1       0.734   2.631  18.916  0.00  0.00    +0.000 C 
ATOM     14  C   UNL     1       1.466   3.999  20.947  0.00  0.00    +0.000 C 
ENDBRANCH   3  12
ENDBRANCH   1   2
BRANCH   1  15
ATOM     15  N   UNL     1       1.806   8.088  18.827  0.00  0.00    +0.000 NA
ATOM     16  C   UNL     1       2.456   8.771  17.705  0.00  0.00    +0.000 C 
BRANCH  15  17
ATOM     17  C   UNL     1       1.276   9.036  19.861  0.00  0.00    +0.000 C 
ATOM     18  C   UNL     1       0.894   8.305  21.164  0.00  0.00    +0.000 C 
BRANCH  17  22
ATOM     19  C   UNL     1      -2.219  11.268  18.580  0.00  0.00    +0.000 A 
ATOM     20  C   UNL     1      -1.612  10.361  17.713  0.00  0.00    +0.000 A 
ATOM     21  C   UNL     1      -0.438   9.702  18.091  0.00  0.00    +0.000 A 
ATOM     22  C   UNL     1       0.145   9.935  19.349  0.00  0.00    +0.000 A 
ATOM     23  C   UNL     1      -0.421  10.931  20.159  0.00  0.00    +0.000 A 
ATOM     24  C   UNL     1      -1.590  11.587  19.779  0.00  0.00    +0.000 A 
BRANCH  19  26
ATOM     25  C   UNL     1      -4.031  11.124  17.082  0.00  0.00    +0.000 C 
ATOM     26  O   UNL     1      -3.400  11.815  18.158  0.00  0.00    +0.000 OA
ENDBRANCH  19  26
ENDBRANCH  17  22
ENDBRANCH  15  17
ENDBRANCH   1  15
TORSDOF 6
ENDMDL
