MODEL 1
REMARK VINA RESULT:      -8.8      0.000      0.000
REMARK  Name = 
REMARK  10 active torsions:
REMARK  status: ('A' for Active; 'I' for Inactive)
REMARK    1  A    between atoms: C_1  and  O_2
REMARK    2  A    between atoms: O_2  and  C_3
REMARK    3  A    between atoms: C_7  and  C_8
REMARK    4  A    between atoms: C_10  and  C_11
REMARK    5  A    between atoms: C_11  and  C_21
REMARK    6  A    between atoms: C_12  and  C_13
REMARK    7  A    between atoms: C_13  and  C_14
REMARK    8  A    between atoms: C_14  and  C_15
REMARK    9  A    between atoms: C_18  and  C_19
REMARK   10  A    between atoms: C_25  and  C_26
REMARK                            x       y       z     vdW  Elec       q    Type
REMARK                         _______ _______ _______ _____ _____    ______ ____
ROOT
ATOM      1  C   UNL     1       3.077   6.385  18.260  0.00  0.00    +0.000 C 
ATOM      2  C   UNL     1       2.623   7.586  18.686  0.00  0.00    +0.000 C 
ENDROOT
BRANCH   1  10
ATOM      3  C   UNL     1       6.230   4.798  14.552  0.00  0.00    +0.000 A 
ATOM      4  N   UNL     1       7.529   5.056  14.366  0.00  0.00    +0.000 NA
ATOM      5  O   UNL     1       7.877   5.910  15.406  0.00  0.00    +0.000 OA
ATOM      6  C   UNL     1       6.785   6.145  16.191  0.00  0.00    +0.000 A 
ATOM      7  C   UNL     1       6.740   6.966  17.322  0.00  0.00    +0.000 A 
ATOM      8  C   UNL     1       7.908   7.751  17.834  0.00  0.00    +0.000 C 
ATOM      9  C   UNL     1       5.486   7.026  17.970  0.00  0.00    +0.000 A 
ATOM     10  C   UNL     1       4.358   6.324  17.504  0.00  0.00    +0.000 A 
ATOM     11  C   UNL     1       4.460   5.527  16.350  0.00  0.00    +0.000 A 
ATOM     12  C   UNL     1       5.702   5.443  15.690  0.00  0.00    +0.000 A 
BRANCH   3  14
ATOM     13  C   UNL     1       6.282   3.529  12.593  0.00  0.00    +0.000 C 
ATOM     14  O   UNL     1       5.538   3.993  13.713  0.00  0.00    +0.000 OA
ENDBRANCH   3  14
ENDBRANCH   1  10
BRANCH   1  15
ATOM     15  C   UNL     1       2.303   5.162  18.565  0.00  0.00    +0.000 A 
ATOM     16  C   UNL     1       1.521   4.555  17.574  0.00  0.00    +0.000 A 
ATOM     17  C   UNL     1       0.816   3.383  17.851  0.00  0.00    +0.000 A 
ATOM     18  C   UNL     1       0.886   2.812  19.123  0.00  0.00    +0.000 A 
ATOM     19  C   UNL     1       1.651   3.419  20.123  0.00  0.00    +0.000 A 
ATOM     20  C   UNL     1       2.355   4.596  19.845  0.00  0.00    +0.000 A 
BRANCH  19  21
ATOM     21  C   UNL     1       1.716   2.837  21.429  0.00  0.00    +0.000 C 
ATOM     22  N   UNL     1       1.770   2.353  22.485  0.00  0.00    +0.000 NA
ENDBRANCH  19  21
ENDBRANCH   1  15
BRANCH   2  23
ATOM     23  C   UNL     1       1.352   7.816  19.488  0.00  0.00    +0.000 C 
BRANCH  23  24
ATOM     24  C   UNL     1       1.579   7.869  21.004  0.00  0.00    +0.000 C 
BRANCH  24  25
ATOM     25  C   UNL     1       0.882   9.030  21.615  0.00  0.00    +0.000 A 
ATOM     26  N   UNL     1       0.990   9.530  22.827  0.00  0.00    +0.000 NA
ATOM     27  N   UNL     1       0.118  10.599  22.887  0.00  0.00    +0.000 NA
ATOM     28  C   UNL     1      -0.460  10.674  21.707  0.00  0.00    +0.000 A 
ATOM     29  C   UNL     1      -1.465  11.630  21.210  0.00  0.00    +0.000 C 
ATOM     30  O   UNL     1      -0.026   9.705  20.840  0.00  0.00    +0.000 OA
ENDBRANCH  24  25
ENDBRANCH  23  24
ENDBRANCH   2  23
TORSDOF 7
ENDMDL
MODEL 2
REMARK VINA RESULT:      -8.7      2.097      5.210
REMARK  Name = 
REMARK  10 active torsions:
REMARK  status: ('A' for Active; 'I' for Inactive)
REMARK    1  A    between atoms: C_1  and  O_2
REMARK    2  A    between atoms: O_2  and  C_3
REMARK    3  A    between atoms: C_7  and  C_8
REMARK    4  A    between atoms: C_10  and  C_11
REMARK    5  A    between atoms: C_11  and  C_21
REMARK    6  A    between atoms: C_12  and  C_13
REMARK    7  A    between atoms: C_13  and  C_14
REMARK    8  A    between atoms: C_14  and  C_15
REMARK    9  A    between atoms: C_18  and  C_19
REMARK   10  A    between atoms: C_25  and  C_26
REMARK                            x       y       z     vdW  Elec       q    Type
REMARK                         _______ _______ _______ _____ _____    ______ ____
ROOT
ATOM      1  C   UNL     1       3.305   6.426  18.906  0.00  0.00    +0.000 C 
ATOM      2  C   UNL     1       3.044   5.366  19.705  0.00  0.00    +0.000 C 
ENDROOT
BRANCH   1  10
ATOM      3  C   UNL     1       6.009   4.806  14.872  0.00  0.00    +0.000 A 
ATOM      4  N   UNL     1       7.267   5.088  14.517  0.00  0.00    +0.000 NA
ATOM      5  O   UNL     1       7.721   5.978  15.484  0.00  0.00    +0.000 OA
ATOM      6  C   UNL     1       6.729   6.211  16.394  0.00  0.00    +0.000 A 
ATOM      7  C   UNL     1       6.806   7.061  17.500  0.00  0.00    +0.000 A 
ATOM      8  C   UNL     1       8.008   7.886  17.842  0.00  0.00    +0.000 C 
ATOM      9  C   UNL     1       5.641   7.112  18.299  0.00  0.00    +0.000 A 
ATOM     10  C   UNL     1       4.482   6.373  17.996  0.00  0.00    +0.000 A 
ATOM     11  C   UNL     1       4.459   5.546  16.859  0.00  0.00    +0.000 A 
ATOM     12  C   UNL     1       5.611   5.471  16.051  0.00  0.00    +0.000 A 
BRANCH   3  14
ATOM     13  C   UNL     1       5.810   3.558  12.909  0.00  0.00    +0.000 C 
ATOM     14  O   UNL     1       5.237   3.963  14.147  0.00  0.00    +0.000 OA
ENDBRANCH   3  14
ENDBRANCH   1  10
BRANCH   1  15
ATOM     15  C   UNL     1       2.413   7.605  18.944  0.00  0.00    +0.000 A 
ATOM     16  C   UNL     1       2.135   8.320  17.772  0.00  0.00    +0.000 A 
ATOM     17  C   UNL     1       1.268   9.413  17.800  0.00  0.00    +0.000 A 
ATOM     18  C   UNL     1       0.675   9.801  19.003  0.00  0.00    +0.000 A 
ATOM     19  C   UNL     1       0.958   9.104  20.181  0.00  0.00    +0.000 A 
ATOM     20  C   UNL     1       1.831   8.009  20.152  0.00  0.00    +0.000 A 
BRANCH  19  21
ATOM     21  C   UNL     1       0.356   9.507  21.416  0.00  0.00    +0.000 C 
ATOM     22  N   UNL     1      -0.141   9.841  22.412  0.00  0.00    +0.000 NA
ENDBRANCH  19  21
ENDBRANCH   1  15
BRANCH   2  23
ATOM     23  C   UNL     1       1.875   5.253  20.668  0.00  0.00    +0.000 C 
BRANCH  23  24
ATOM     24  C   UNL     1       0.969   4.044  20.402  0.00  0.00    +0.000 C 
BRANCH  24  25
ATOM     25  C   UNL     1       1.523   3.179  19.330  0.00  0.00    +0.000 A 
ATOM     26  N   UNL     1       1.083   2.973  18.107  0.00  0.00    +0.000 NA
ATOM     27  N   UNL     1       1.955   2.074  17.524  0.00  0.00    +0.000 NA
ATOM     28  C   UNL     1       2.864   1.796  18.434  0.00  0.00    +0.000 A 
ATOM     29  C   UNL     1       4.036   0.907  18.353  0.00  0.00    +0.000 C 
ATOM     30  O   UNL     1       2.656   2.461  19.615  0.00  0.00    +0.000 OA
ENDBRANCH  24  25
ENDBRANCH  23  24
ENDBRANCH   2  23
TORSDOF 7
ENDMDL
MODEL 3
REMARK VINA RESULT:      -8.5      0.859      1.004
REMARK  Name = 
REMARK  10 active torsions:
REMARK  status: ('A' for Active; 'I' for Inactive)
REMARK    1  A    between atoms: C_1  and  O_2
REMARK    2  A    between atoms: O_2  and  C_3
REMARK    3  A    between atoms: C_7  and  C_8
REMARK    4  A    between atoms: C_10  and  C_11
REMARK    5  A    between atoms: C_11  and  C_21
REMARK    6  A    between atoms: C_12  and  C_13
REMARK    7  A    between atoms: C_13  and  C_14
REMARK    8  A    between atoms: C_14  and  C_15
REMARK    9  A    between atoms: C_18  and  C_19
REMARK   10  A    between atoms: C_25  and  C_26
REMARK                            x       y       z     vdW  Elec       q    Type
REMARK                         _______ _______ _______ _____ _____    ______ ____
ROOT
ATOM      1  C   UNL     1       3.173   6.546  18.138  0.00  0.00    +0.000 C 
ATOM      2  C   UNL     1       2.704   7.770  18.475  0.00  0.00    +0.000 C 
ENDROOT
BRANCH   1  10
ATOM      3  C   UNL     1       6.360   4.718  14.573  0.00  0.00    +0.000 A 
ATOM      4  N   UNL     1       7.654   4.980  14.368  0.00  0.00    +0.000 NA
ATOM      5  O   UNL     1       7.987   5.919  15.338  0.00  0.00    +0.000 OA
ATOM      6  C   UNL     1       6.889   6.200  16.100  0.00  0.00    +0.000 A 
ATOM      7  C   UNL     1       6.829   7.107  17.161  0.00  0.00    +0.000 A 
ATOM      8  C   UNL     1       7.983   7.948  17.611  0.00  0.00    +0.000 C 
ATOM      9  C   UNL     1       5.572   7.199  17.801  0.00  0.00    +0.000 A 
ATOM     10  C   UNL     1       4.456   6.445  17.390  0.00  0.00    +0.000 A 
ATOM     11  C   UNL     1       4.574   5.560  16.304  0.00  0.00    +0.000 A 
ATOM     12  C   UNL     1       5.818   5.443  15.655  0.00  0.00    +0.000 A 
BRANCH   3  14
ATOM     13  C   UNL     1       6.279   3.583  12.534  0.00  0.00    +0.000 C 
ATOM     14  O   UNL     1       5.681   3.838  13.800  0.00  0.00    +0.000 OA
ENDBRANCH   3  14
ENDBRANCH   1  10
BRANCH   1  15
ATOM     15  C   UNL     1       2.411   5.340  18.528  0.00  0.00    +0.000 A 
ATOM     16  C   UNL     1       1.538   4.729  17.619  0.00  0.00    +0.000 A 
ATOM     17  C   UNL     1       0.844   3.573  17.975  0.00  0.00    +0.000 A 
ATOM     18  C   UNL     1       1.015   3.020  19.245  0.00  0.00    +0.000 A 
ATOM     19  C   UNL     1       1.872   3.631  20.165  0.00  0.00    +0.000 A 
ATOM     20  C   UNL     1       2.566   4.793  19.808  0.00  0.00    +0.000 A 
BRANCH  19  21
ATOM     21  C   UNL     1       2.041   3.068  21.471  0.00  0.00    +0.000 C 
ATOM     22  N   UNL     1       2.170   2.604  22.529  0.00  0.00    +0.000 NA
ENDBRANCH  19  21
ENDBRANCH   1  15
BRANCH   2  23
ATOM     23  C   UNL     1       1.429   8.042  19.256  0.00  0.00    +0.000 C 
BRANCH  23  24
ATOM     24  C   UNL     1       0.749   9.366  18.886  0.00  0.00    +0.000 C 
BRANCH  24  25
ATOM     25  C   UNL     1       0.547  10.223  20.082  0.00  0.00    +0.000 A 
ATOM     26  N   UNL     1       1.112  11.369  20.398  0.00  0.00    +0.000 NA
ATOM     27  N   UNL     1       0.581  11.742  21.618  0.00  0.00    +0.000 NA
ATOM     28  C   UNL     1      -0.269  10.797  21.958  0.00  0.00    +0.000 A 
ATOM     29  C   UNL     1      -1.124  10.685  23.153  0.00  0.00    +0.000 C 
ATOM     30  O   UNL     1      -0.346   9.791  21.029  0.00  0.00    +0.000 OA
ENDBRANCH  24  25
ENDBRANCH  23  24
ENDBRANCH   2  23
TORSDOF 7
ENDMDL
MODEL 4
REMARK VINA RESULT:      -8.5      1.909      7.129
REMARK  Name = 
REMARK  10 active torsions:
REMARK  status: ('A' for Active; 'I' for Inactive)
REMARK    1  A    between atoms: C_1  and  O_2
REMARK    2  A    between atoms: O_2  and  C_3
REMARK    3  A    between atoms: C_7  and  C_8
REMARK    4  A    between atoms: C_10  and  C_11
REMARK    5  A    between atoms: C_11  and  C_21
REMARK    6  A    between atoms: C_12  and  C_13
REMARK    7  A    between atoms: C_13  and  C_14
REMARK    8  A    between atoms: C_14  and  C_15
REMARK    9  A    between atoms: C_18  and  C_19
REMARK   10  A    between atoms: C_25  and  C_26
REMARK                            x       y       z     vdW  Elec       q    Type
REMARK                         _______ _______ _______ _____ _____    ______ ____
ROOT
ATOM      1  C   UNL     1       2.878   6.713  18.244  0.00  0.00    +0.000 C 
ATOM      2  C   UNL     1       4.035   6.739  17.543  0.00  0.00    +0.000 C 
ENDROOT
BRANCH   1  10
ATOM      3  C   UNL     1       0.025   9.710  21.258  0.00  0.00    +0.000 A 
ATOM      4  N   UNL     1      -0.257  11.012  21.148  0.00  0.00    +0.000 NA
ATOM      5  O   UNL     1       0.433  11.433  20.016  0.00  0.00    +0.000 OA
ATOM      6  C   UNL     1       1.112  10.380  19.475  0.00  0.00    +0.000 A 
ATOM      7  C   UNL     1       1.929  10.417  18.342  0.00  0.00    +0.000 A 
ATOM      8  C   UNL     1       2.211  11.658  17.552  0.00  0.00    +0.000 C 
ATOM      9  C   UNL     1       2.505   9.179  17.977  0.00  0.00    +0.000 A 
ATOM     10  C   UNL     1       2.287   7.997  18.709  0.00  0.00    +0.000 A 
ATOM     11  C   UNL     1       1.466   8.025  19.851  0.00  0.00    +0.000 A 
ATOM     12  C   UNL     1       0.873   9.245  20.231  0.00  0.00    +0.000 A 
BRANCH   3  14
ATOM     13  C   UNL     1      -0.085   9.379  23.566  0.00  0.00    +0.000 C 
ATOM     14  O   UNL     1      -0.475   8.957  22.265  0.00  0.00    +0.000 OA
ENDBRANCH   3  14
ENDBRANCH   1  10
BRANCH   1  15
ATOM     15  C   UNL     1       2.221   5.416  18.520  0.00  0.00    +0.000 A 
ATOM     16  C   UNL     1       1.541   4.736  17.502  0.00  0.00    +0.000 A 
ATOM     17  C   UNL     1       0.949   3.499  17.754  0.00  0.00    +0.000 A 
ATOM     18  C   UNL     1       1.030   2.933  19.028  0.00  0.00    +0.000 A 
ATOM     19  C   UNL     1       1.693   3.611  20.054  0.00  0.00    +0.000 A 
ATOM     20  C   UNL     1       2.284   4.855  19.802  0.00  0.00    +0.000 A 
BRANCH  19  21
ATOM     21  C   UNL     1       1.769   3.035  21.363  0.00  0.00    +0.000 C 
ATOM     22  N   UNL     1       1.842   2.562  22.422  0.00  0.00    +0.000 NA
ENDBRANCH  19  21
ENDBRANCH   1  15
BRANCH   2  23
ATOM     23  C   UNL     1       4.753   5.524  16.979  0.00  0.00    +0.000 C 
BRANCH  23  24
ATOM     24  C   UNL     1       6.090   5.854  16.305  0.00  0.00    +0.000 C 
BRANCH  24  25
ATOM     25  C   UNL     1       7.002   6.570  17.233  0.00  0.00    +0.000 A 
ATOM     26  N   UNL     1       7.663   6.115  18.276  0.00  0.00    +0.000 NA
ATOM     27  N   UNL     1       8.357   7.190  18.797  0.00  0.00    +0.000 NA
ATOM     28  C   UNL     1       8.068   8.223  18.036  0.00  0.00    +0.000 A 
ATOM     29  C   UNL     1       8.536   9.618  18.123  0.00  0.00    +0.000 C 
ATOM     30  O   UNL     1       7.207   7.908  17.016  0.00  0.00    +0.000 OA
ENDBRANCH  24  25
ENDBRANCH  23  24
ENDBRANCH   2  23
TORSDOF 7
ENDMDL
MODEL 5
REMARK VINA RESULT:      -8.4      1.752      1.843
REMARK  Name = 
REMARK  10 active torsions:
REMARK  status: ('A' for Active; 'I' for Inactive)
REMARK    1  A    between atoms: C_1  and  O_2
REMARK    2  A    between atoms: O_2  and  C_3
REMARK    3  A    between atoms: C_7  and  C_8
REMARK    4  A    between atoms: C_10  and  C_11
REMARK    5  A    between atoms: C_11  and  C_21
REMARK    6  A    between atoms: C_12  and  C_13
REMARK    7  A    between atoms: C_13  and  C_14
REMARK    8  A    between atoms: C_14  and  C_15
REMARK    9  A    between atoms: C_18  and  C_19
REMARK   10  A    between atoms: C_25  and  C_26
REMARK                            x       y       z     vdW  Elec       q    Type
REMARK                         _______ _______ _______ _____ _____    ______ ____
ROOT
ATOM      1  C   UNL     1       3.093   6.515  18.162  0.00  0.00    +0.000 C 
ATOM      2  C   UNL     1       2.637   7.733  18.533  0.00  0.00    +0.000 C 
ENDROOT
BRANCH   1  10
ATOM      3  C   UNL     1       6.264   4.792  14.530  0.00  0.00    +0.000 A 
ATOM      4  N   UNL     1       7.565   5.034  14.347  0.00  0.00    +0.000 NA
ATOM      5  O   UNL     1       7.912   5.915  15.365  0.00  0.00    +0.000 OA
ATOM      6  C   UNL     1       6.815   6.183  16.133  0.00  0.00    +0.000 A 
ATOM      7  C   UNL     1       6.768   7.037  17.238  0.00  0.00    +0.000 A 
ATOM      8  C   UNL     1       7.939   7.828  17.737  0.00  0.00    +0.000 C 
ATOM      9  C   UNL     1       5.509   7.127  17.873  0.00  0.00    +0.000 A 
ATOM     10  C   UNL     1       4.379   6.421  17.418  0.00  0.00    +0.000 A 
ATOM     11  C   UNL     1       4.484   5.589  16.290  0.00  0.00    +0.000 A 
ATOM     12  C   UNL     1       5.731   5.475  15.644  0.00  0.00    +0.000 A 
BRANCH   3  14
ATOM     13  C   UNL     1       6.305   3.507  12.581  0.00  0.00    +0.000 C 
ATOM     14  O   UNL     1       5.571   3.969  13.709  0.00  0.00    +0.000 OA
ENDBRANCH   3  14
ENDBRANCH   1  10
BRANCH   1  15
ATOM     15  C   UNL     1       2.315   5.306  18.512  0.00  0.00    +0.000 A 
ATOM     16  C   UNL     1       1.499   4.688  17.556  0.00  0.00    +0.000 A 
ATOM     17  C   UNL     1       0.791   3.530  17.875  0.00  0.00    +0.000 A 
ATOM     18  C   UNL     1       0.890   2.983  19.155  0.00  0.00    +0.000 A 
ATOM     19  C   UNL     1       1.689   3.601  20.122  0.00  0.00    +0.000 A 
ATOM     20  C   UNL     1       2.398   4.765  19.801  0.00  0.00    +0.000 A 
BRANCH  19  21
ATOM     21  C   UNL     1       1.785   3.044  21.437  0.00  0.00    +0.000 C 
ATOM     22  N   UNL     1       1.871   2.600  22.508  0.00  0.00    +0.000 NA
ENDBRANCH  19  21
ENDBRANCH   1  15
BRANCH   2  23
ATOM     23  C   UNL     1       1.360   7.997  19.314  0.00  0.00    +0.000 C 
BRANCH  23  24
ATOM     24  C   UNL     1       1.171   9.467  19.711  0.00  0.00    +0.000 C 
BRANCH  24  25
ATOM     25  C   UNL     1      -0.088  10.021  19.151  0.00  0.00    +0.000 A 
ATOM     26  N   UNL     1      -0.956  10.845  19.696  0.00  0.00    +0.000 NA
ATOM     27  N   UNL     1      -1.953  11.038  18.759  0.00  0.00    +0.000 NA
ATOM     28  C   UNL     1      -1.620  10.317  17.710  0.00  0.00    +0.000 A 
ATOM     29  C   UNL     1      -2.312  10.158  16.419  0.00  0.00    +0.000 C 
ATOM     30  O   UNL     1      -0.442   9.637  17.883  0.00  0.00    +0.000 OA
ENDBRANCH  24  25
ENDBRANCH  23  24
ENDBRANCH   2  23
TORSDOF 7
ENDMDL
MODEL 6
REMARK VINA RESULT:      -8.4      1.326      1.743
REMARK  Name = 
REMARK  10 active torsions:
REMARK  status: ('A' for Active; 'I' for Inactive)
REMARK    1  A    between atoms: C_1  and  O_2
REMARK    2  A    between atoms: O_2  and  C_3
REMARK    3  A    between atoms: C_7  and  C_8
REMARK    4  A    between atoms: C_10  and  C_11
REMARK    5  A    between atoms: C_11  and  C_21
REMARK    6  A    between atoms: C_12  and  C_13
REMARK    7  A    between atoms: C_13  and  C_14
REMARK    8  A    between atoms: C_14  and  C_15
REMARK    9  A    between atoms: C_18  and  C_19
REMARK   10  A    between atoms: C_25  and  C_26
REMARK                            x       y       z     vdW  Elec       q    Type
REMARK                         _______ _______ _______ _____ _____    ______ ____
ROOT
ATOM      1  C   UNL     1       3.086   7.080  17.965  0.00  0.00    +0.000 C 
ATOM      2  C   UNL     1       2.448   8.249  17.727  0.00  0.00    +0.000 C 
ENDROOT
BRANCH   1  10
ATOM      3  C   UNL     1       6.260   4.868  14.612  0.00  0.00    +0.000 A 
ATOM      4  N   UNL     1       7.587   4.975  14.492  0.00  0.00    +0.000 NA
ATOM      5  O   UNL     1       7.965   5.873  15.484  0.00  0.00    +0.000 OA
ATOM      6  C   UNL     1       6.860   6.285  16.173  0.00  0.00    +0.000 A 
ATOM      7  C   UNL     1       6.839   7.199  17.231  0.00  0.00    +0.000 A 
ATOM      8  C   UNL     1       8.053   7.901  17.757  0.00  0.00    +0.000 C 
ATOM      9  C   UNL     1       5.563   7.443  17.787  0.00  0.00    +0.000 A 
ATOM     10  C   UNL     1       4.395   6.824  17.303  0.00  0.00    +0.000 A 
ATOM     11  C   UNL     1       4.477   5.925  16.224  0.00  0.00    +0.000 A 
ATOM     12  C   UNL     1       5.739   5.658  15.658  0.00  0.00    +0.000 A 
BRANCH   3  14
ATOM     13  C   UNL     1       6.252   3.568  12.672  0.00  0.00    +0.000 C 
ATOM     14  O   UNL     1       5.535   4.071  13.793  0.00  0.00    +0.000 OA
ENDBRANCH   3  14
ENDBRANCH   1  10
BRANCH   1  15
ATOM     15  C   UNL     1       2.481   6.091  18.883  0.00  0.00    +0.000 A 
ATOM     16  C   UNL     1       2.424   6.345  20.259  0.00  0.00    +0.000 A 
ATOM     17  C   UNL     1       1.824   5.428  21.122  0.00  0.00    +0.000 A 
ATOM     18  C   UNL     1       1.279   4.247  20.615  0.00  0.00    +0.000 A 
ATOM     19  C   UNL     1       1.345   3.977  19.245  0.00  0.00    +0.000 A 
ATOM     20  C   UNL     1       1.950   4.896  18.381  0.00  0.00    +0.000 A 
BRANCH  19  21
ATOM     21  C   UNL     1       0.793   2.761  18.726  0.00  0.00    +0.000 C 
ATOM     22  N   UNL     1       0.335   1.780  18.305  0.00  0.00    +0.000 NA
ENDBRANCH  19  21
ENDBRANCH   1  15
BRANCH   2  23
ATOM     23  C   UNL     1       1.124   8.672  18.341  0.00  0.00    +0.000 C 
BRANCH  23  24
ATOM     24  C   UNL     1       1.189  10.007  19.093  0.00  0.00    +0.000 C 
BRANCH  24  25
ATOM     25  C   UNL     1       0.491   9.925  20.402  0.00  0.00    +0.000 A 
ATOM     26  N   UNL     1       0.263   8.879  21.166  0.00  0.00    +0.000 NA
ATOM     27  N   UNL     1      -0.432   9.344  22.266  0.00  0.00    +0.000 NA
ATOM     28  C   UNL     1      -0.577  10.640  22.093  0.00  0.00    +0.000 A 
ATOM     29  C   UNL     1      -1.229  11.639  22.959  0.00  0.00    +0.000 C 
ATOM     30  O   UNL     1      -0.017  11.087  20.924  0.00  0.00    +0.000 OA
ENDBRANCH  24  25
ENDBRANCH  23  24
ENDBRANCH   2  23
TORSDOF 7
ENDMDL
MODEL 7
REMARK VINA RESULT:      -8.4      2.071      2.472
REMARK  Name = 
REMARK  10 active torsions:
REMARK  status: ('A' for Active; 'I' for Inactive)
REMARK    1  A    between atoms: C_1  and  O_2
REMARK    2  A    between atoms: O_2  and  C_3
REMARK    3  A    between atoms: C_7  and  C_8
REMARK    4  A    between atoms: C_10  and  C_11
REMARK    5  A    between atoms: C_11  and  C_21
REMARK    6  A    between atoms: C_12  and  C_13
REMARK    7  A    between atoms: C_13  and  C_14
REMARK    8  A    between atoms: C_14  and  C_15
REMARK    9  A    between atoms: C_18  and  C_19
REMARK   10  A    between atoms: C_25  and  C_26
REMARK                            x       y       z     vdW  Elec       q    Type
REMARK                         _______ _______ _______ _____ _____    ______ ____
ROOT
ATOM      1  C   UNL     1       3.067   7.090  17.872  0.00  0.00    +0.000 C 
ATOM      2  C   UNL     1       2.443   8.255  17.584  0.00  0.00    +0.000 C 
ENDROOT
BRANCH   1  10
ATOM      3  C   UNL     1       6.275   4.831  14.582  0.00  0.00    +0.000 A 
ATOM      4  N   UNL     1       7.608   4.900  14.505  0.00  0.00    +0.000 NA
ATOM      5  O   UNL     1       7.981   5.772  15.521  0.00  0.00    +0.000 OA
ATOM      6  C   UNL     1       6.869   6.207  16.183  0.00  0.00    +0.000 A 
ATOM      7  C   UNL     1       6.842   7.106  17.253  0.00  0.00    +0.000 A 
ATOM      8  C   UNL     1       8.060   7.763  17.827  0.00  0.00    +0.000 C 
ATOM      9  C   UNL     1       5.557   7.380  17.774  0.00  0.00    +0.000 A 
ATOM     10  C   UNL     1       4.387   6.804  17.245  0.00  0.00    +0.000 A 
ATOM     11  C   UNL     1       4.476   5.919  16.156  0.00  0.00    +0.000 A 
ATOM     12  C   UNL     1       5.746   5.622  15.624  0.00  0.00    +0.000 A 
BRANCH   3  14
ATOM     13  C   UNL     1       6.294   3.538  12.639  0.00  0.00    +0.000 C 
ATOM     14  O   UNL     1       5.552   4.068  13.731  0.00  0.00    +0.000 OA
ENDBRANCH   3  14
ENDBRANCH   1  10
BRANCH   1  15
ATOM     15  C   UNL     1       2.435   6.135  18.808  0.00  0.00    +0.000 A 
ATOM     16  C   UNL     1       2.323   6.446  20.169  0.00  0.00    +0.000 A 
ATOM     17  C   UNL     1       1.698   5.561  21.046  0.00  0.00    +0.000 A 
ATOM     18  C   UNL     1       1.183   4.354  20.570  0.00  0.00    +0.000 A 
ATOM     19  C   UNL     1       1.304   4.026  19.217  0.00  0.00    +0.000 A 
ATOM     20  C   UNL     1       1.934   4.915  18.337  0.00  0.00    +0.000 A 
BRANCH  19  21
ATOM     21  C   UNL     1       0.783   2.785  18.729  0.00  0.00    +0.000 C 
ATOM     22  N   UNL     1       0.361   1.772  18.345  0.00  0.00    +0.000 NA
ENDBRANCH  19  21
ENDBRANCH   1  15
BRANCH   2  23
ATOM     23  C   UNL     1       1.109   8.706  18.156  0.00  0.00    +0.000 C 
BRANCH  23  24
ATOM     24  C   UNL     1       1.085  10.180  18.579  0.00  0.00    +0.000 C 
BRANCH  24  25
ATOM     25  C   UNL     1      -0.303  10.709  18.618  0.00  0.00    +0.000 A 
ATOM     26  N   UNL     1      -0.788  11.742  19.274  0.00  0.00    +0.000 NA
ATOM     27  N   UNL     1      -2.135  11.795  18.976  0.00  0.00    +0.000 NA
ATOM     28  C   UNL     1      -2.375  10.791  18.160  0.00  0.00    +0.000 A 
ATOM     29  C   UNL     1      -3.637  10.378  17.520  0.00  0.00    +0.000 C 
ATOM     30  O   UNL     1      -1.255  10.049  17.886  0.00  0.00    +0.000 OA
ENDBRANCH  24  25
ENDBRANCH  23  24
ENDBRANCH   2  23
TORSDOF 7
ENDMDL
MODEL 8
REMARK VINA RESULT:      -8.4      1.746      7.676
REMARK  Name = 
REMARK  10 active torsions:
REMARK  status: ('A' for Active; 'I' for Inactive)
REMARK    1  A    between atoms: C_1  and  O_2
REMARK    2  A    between atoms: O_2  and  C_3
REMARK    3  A    between atoms: C_7  and  C_8
REMARK    4  A    between atoms: C_10  and  C_11
REMARK    5  A    between atoms: C_11  and  C_21
REMARK    6  A    between atoms: C_12  and  C_13
REMARK    7  A    between atoms: C_13  and  C_14
REMARK    8  A    between atoms: C_14  and  C_15
REMARK    9  A    between atoms: C_18  and  C_19
REMARK   10  A    between atoms: C_25  and  C_26
REMARK                            x       y       z     vdW  Elec       q    Type
REMARK                         _______ _______ _______ _____ _____    ______ ____
ROOT
ATOM      1  C   UNL     1       2.488   6.879  18.762  0.00  0.00    +0.000 C 
ATOM      2  C   UNL     1       3.620   7.096  18.054  0.00  0.00    +0.000 C 
ENDROOT
BRANCH   1  10
ATOM      3  C   UNL     1       0.991  11.755  19.211  0.00  0.00    +0.000 A 
ATOM      4  N   UNL     1       0.355  12.364  20.216  0.00  0.00    +0.000 NA
ATOM      5  O   UNL     1       0.135  11.366  21.158  0.00  0.00    +0.000 OA
ATOM      6  C   UNL     1       0.640  10.183  20.699  0.00  0.00    +0.000 A 
ATOM      7  C   UNL     1       0.594   8.953  21.360  0.00  0.00    +0.000 A 
ATOM      8  C   UNL     1      -0.061   8.739  22.690  0.00  0.00    +0.000 C 
ATOM      9  C   UNL     1       1.208   7.880  20.674  0.00  0.00    +0.000 A 
ATOM     10  C   UNL     1       1.809   8.035  19.410  0.00  0.00    +0.000 A 
ATOM     11  C   UNL     1       1.810   9.295  18.788  0.00  0.00    +0.000 A 
ATOM     12  C   UNL     1       1.212  10.383  19.454  0.00  0.00    +0.000 A 
BRANCH   3  14
ATOM     13  C   UNL     1       2.625  13.079  18.198  0.00  0.00    +0.000 C 
ATOM     14  O   UNL     1       1.366  12.424  18.096  0.00  0.00    +0.000 OA
ENDBRANCH   3  14
ENDBRANCH   1  10
BRANCH   1  15
ATOM     15  C   UNL     1       1.943   5.508  18.866  0.00  0.00    +0.000 A 
ATOM     16  C   UNL     1       1.455   4.852  17.728  0.00  0.00    +0.000 A 
ATOM     17  C   UNL     1       0.971   3.547  17.819  0.00  0.00    +0.000 A 
ATOM     18  C   UNL     1       0.968   2.889  19.050  0.00  0.00    +0.000 A 
ATOM     19  C   UNL     1       1.437   3.541  20.194  0.00  0.00    +0.000 A 
ATOM     20  C   UNL     1       1.920   4.851  20.103  0.00  0.00    +0.000 A 
BRANCH  19  21
ATOM     21  C   UNL     1       1.426   2.868  21.459  0.00  0.00    +0.000 C 
ATOM     22  N   UNL     1       1.429   2.326  22.487  0.00  0.00    +0.000 NA
ENDBRANCH  19  21
ENDBRANCH   1  15
BRANCH   2  23
ATOM     23  C   UNL     1       4.416   6.033  17.316  0.00  0.00    +0.000 C 
BRANCH  23  24
ATOM     24  C   UNL     1       5.908   6.362  17.177  0.00  0.00    +0.000 C 
BRANCH  24  25
ATOM     25  C   UNL     1       6.489   5.739  15.961  0.00  0.00    +0.000 A 
ATOM     26  N   UNL     1       7.705   5.838  15.468  0.00  0.00    +0.000 NA
ATOM     27  N   UNL     1       7.723   5.071  14.319  0.00  0.00    +0.000 NA
ATOM     28  C   UNL     1       6.517   4.560  14.194  0.00  0.00    +0.000 A 
ATOM     29  C   UNL     1       5.978   3.660  13.159  0.00  0.00    +0.000 C 
ATOM     30  O   UNL     1       5.671   4.942  15.202  0.00  0.00    +0.000 OA
ENDBRANCH  24  25
ENDBRANCH  23  24
ENDBRANCH   2  23
TORSDOF 7
ENDMDL
MODEL 9
REMARK VINA RESULT:      -8.3      2.054      7.749
REMARK  Name = 
REMARK  10 active torsions:
REMARK  status: ('A' for Active; 'I' for Inactive)
REMARK    1  A    between atoms: C_1  and  O_2
REMARK    2  A    between atoms: O_2  and  C_3
REMARK    3  A    between atoms: C_7  and  C_8
REMARK    4  A    between atoms: C_10  and  C_11
REMARK    5  A    between atoms: C_11  and  C_21
REMARK    6  A    between atoms: C_12  and  C_13
REMARK    7  A    between atoms: C_13  and  C_14
REMARK    8  A    between atoms: C_14  and  C_15
REMARK    9  A    between atoms: C_18  and  C_19
REMARK   10  A    between atoms: C_25  and  C_26
REMARK                            x       y       z     vdW  Elec       q    Type
REMARK                         _______ _______ _______ _____ _____    ______ ____
ROOT
ATOM      1  C   UNL     1       3.073   6.244  18.160  0.00  0.00    +0.000 C 
ATOM      2  C   UNL     1       3.988   6.466  17.189  0.00  0.00    +0.000 C 
ENDROOT
BRANCH   1  10
ATOM      3  C   UNL     1       1.738  11.165  18.628  0.00  0.00    +0.000 A 
ATOM      4  N   UNL     1       1.022  11.769  19.582  0.00  0.00    +0.000 NA
ATOM      5  O   UNL     1       0.659  10.751  20.456  0.00  0.00    +0.000 OA
ATOM      6  C   UNL     1       1.162   9.562  20.010  0.00  0.00    +0.000 A 
ATOM      7  C   UNL     1       0.993   8.314  20.614  0.00  0.00    +0.000 A 
ATOM      8  C   UNL     1       0.189   8.086  21.858  0.00  0.00    +0.000 C 
ATOM      9  C   UNL     1       1.634   7.238  19.959  0.00  0.00    +0.000 A 
ATOM     10  C   UNL     1       2.375   7.407  18.774  0.00  0.00    +0.000 A 
ATOM     11  C   UNL     1       2.496   8.686  18.203  0.00  0.00    +0.000 A 
ATOM     12  C   UNL     1       1.874   9.777  18.842  0.00  0.00    +0.000 A 
BRANCH   3  14
ATOM     13  C   UNL     1       2.582  13.208  17.878  0.00  0.00    +0.000 C 
ATOM     14  O   UNL     1       2.260  11.853  17.587  0.00  0.00    +0.000 OA
ENDBRANCH   3  14
ENDBRANCH   1  10
BRANCH   1  15
ATOM     15  C   UNL     1       2.775   4.857  18.579  0.00  0.00    +0.000 A 
ATOM     16  C   UNL     1       1.571   4.247  18.203  0.00  0.00    +0.000 A 
ATOM     17  C   UNL     1       1.304   2.928  18.570  0.00  0.00    +0.000 A 
ATOM     18  C   UNL     1       2.236   2.210  19.320  0.00  0.00    +0.000 A 
ATOM     19  C   UNL     1       3.433   2.816  19.714  0.00  0.00    +0.000 A 
ATOM     20  C   UNL     1       3.700   4.140  19.347  0.00  0.00    +0.000 A 
BRANCH  19  21
ATOM     21  C   UNL     1       4.387   2.082  20.491  0.00  0.00    +0.000 C 
ATOM     22  N   UNL     1       5.157   1.492  21.130  0.00  0.00    +0.000 NA
ENDBRANCH  19  21
ENDBRANCH   1  15
BRANCH   2  23
ATOM     23  C   UNL     1       4.767   5.392  16.448  0.00  0.00    +0.000 C 
BRANCH  23  24
ATOM     24  C   UNL     1       6.186   5.818  16.053  0.00  0.00    +0.000 C 
BRANCH  24  25
ATOM     25  C   UNL     1       6.585   5.231  14.748  0.00  0.00    +0.000 A 
ATOM     26  N   UNL     1       7.665   5.444  14.028  0.00  0.00    +0.000 NA
ATOM     27  N   UNL     1       7.543   4.657  12.899  0.00  0.00    +0.000 NA
ATOM     28  C   UNL     1       6.396   4.021  13.012  0.00  0.00    +0.000 A 
ATOM     29  C   UNL     1       5.767   3.046  12.104  0.00  0.00    +0.000 C 
ATOM     30  O   UNL     1       5.725   4.336  14.166  0.00  0.00    +0.000 OA
ENDBRANCH  24  25
ENDBRANCH  23  24
ENDBRANCH   2  23
TORSDOF 7
ENDMDL
