MODEL 1
REMARK VINA RESULT:      -7.1      0.000      0.000
REMARK  Name = 
REMARK  6 active torsions:
REMARK  status: ('A' for Active; 'I' for Inactive)
REMARK    1  A    between atoms: C_9  and  C_10
REMARK    2  A    between atoms: C_10  and  N_11
REMARK    3  A    between atoms: N_11  and  C_12
REMARK    4  A    between atoms: C_12  and  C_13
REMARK    5  A    between atoms: C_13  and  C_14
REMARK    6  A    between atoms: C_14  and  N_15
REMARK                            x       y       z     vdW  Elec       q    Type
REMARK                         _______ _______ _______ _____ _____    ______ ____
ROOT
ATOM      1  N   UNL     1       3.992   6.798  17.314  0.00  0.00    +0.000 NA
ATOM      2  H   UNL     1       3.843   7.696  17.780  0.00  0.00    +0.000 HD
ENDROOT
BRANCH   1   3
ATOM      3  C   UNL     1       4.095   5.741  18.330  0.00  0.00    +0.000 C 
BRANCH   3  12
ATOM      4  C   UNL     1       1.124   2.835  21.492  0.00  0.00    +0.000 A 
ATOM      5  C   UNL     1       2.409   2.367  21.775  0.00  0.00    +0.000 A 
ATOM      6  C   UNL     1       3.432   2.528  20.840  0.00  0.00    +0.000 A 
ATOM      7  C   UNL     1       3.167   3.158  19.627  0.00  0.00    +0.000 A 
ATOM      8  C   UNL     1       1.871   3.590  19.328  0.00  0.00    +0.000 A 
ATOM      9  C   UNL     1       0.855   3.450  20.270  0.00  0.00    +0.000 A 
ATOM     10  O   UNL     1       1.533   4.201  18.146  0.00  0.00    +0.000 OA
ATOM     11  C   UNL     1       2.563   4.025  17.166  0.00  0.00    +0.000 C 
ATOM     12  C   UNL     1       3.937   4.315  17.755  0.00  0.00    +0.000 C 
ATOM     13  O   UNL     1       4.235   3.350  18.786  0.00  0.00    +0.000 OA
ENDBRANCH   3  12
ENDBRANCH   1   3
BRANCH   1  14
ATOM     14  C   UNL     1       5.216   6.912  16.510  0.00  0.00    +0.000 C 
BRANCH  14  15
ATOM     15  C   UNL     1       6.510   6.800  17.321  0.00  0.00    +0.000 C 
BRANCH  15  16
ATOM     16  C   UNL     1       7.475   5.808  16.679  0.00  0.00    +0.000 C 
BRANCH  16  17
ATOM     17  N   UNL     1       6.766   4.789  15.923  0.00  0.00    +0.000 N 
ATOM     18  C   UNL     1       6.920   4.653  14.583  0.00  0.00    +0.000 C 
ATOM     19  N   UNL     1       7.655   5.435  13.873  0.00  0.00    +0.000 NA
ATOM     20  C   UNL     1       7.681   5.245  12.426  0.00  0.00    +0.000 C 
ATOM     21  C   UNL     1       7.238   3.858  11.986  0.00  0.00    +0.000 C 
ATOM     22  C   UNL     1       5.947   3.507  12.698  0.00  0.00    +0.000 C 
ATOM     23  N   UNL     1       6.174   3.613  14.122  0.00  0.00    +0.000 N 
ATOM     24  H   UNL     1       6.580   3.936  16.434  0.00  0.00    +0.000 HD
ATOM     25  H   UNL     1       5.354   3.424  14.685  0.00  0.00    +0.000 HD
ENDBRANCH  16  17
ENDBRANCH  15  16
ENDBRANCH  14  15
ENDBRANCH   1  14
TORSDOF 6
ENDMDL
MODEL 2
REMARK VINA RESULT:      -7.1      3.778      6.926
REMARK  Name = 
REMARK  6 active torsions:
REMARK  status: ('A' for Active; 'I' for Inactive)
REMARK    1  A    between atoms: C_9  and  C_10
REMARK    2  A    between atoms: C_10  and  N_11
REMARK    3  A    between atoms: N_11  and  C_12
REMARK    4  A    between atoms: C_12  and  C_13
REMARK    5  A    between atoms: C_13  and  C_14
REMARK    6  A    between atoms: C_14  and  N_15
REMARK                            x       y       z     vdW  Elec       q    Type
REMARK                         _______ _______ _______ _____ _____    ______ ____
ROOT
ATOM      1  N   UNL     1       4.723   6.248  17.274  0.00  0.00    +0.000 NA
ATOM      2  H   UNL     1       4.213   5.593  16.677  0.00  0.00    +0.000 HD
ENDROOT
BRANCH   1   3
ATOM      3  C   UNL     1       5.089   5.571  18.526  0.00  0.00    +0.000 C 
BRANCH   3  12
ATOM      4  C   UNL     1       0.712   3.084  19.918  0.00  0.00    +0.000 A 
ATOM      5  C   UNL     1       1.541   2.873  21.023  0.00  0.00    +0.000 A 
ATOM      6  C   UNL     1       2.926   2.955  20.882  0.00  0.00    +0.000 A 
ATOM      7  C   UNL     1       3.478   3.250  19.638  0.00  0.00    +0.000 A 
ATOM      8  C   UNL     1       2.650   3.421  18.524  0.00  0.00    +0.000 A 
ATOM      9  C   UNL     1       1.266   3.362  18.670  0.00  0.00    +0.000 A 
ATOM     10  O   UNL     1       3.124   3.694  17.265  0.00  0.00    +0.000 OA
ATOM     11  C   UNL     1       4.532   3.441  17.183  0.00  0.00    +0.000 C 
ATOM     12  C   UNL     1       5.269   4.044  18.373  0.00  0.00    +0.000 C 
ATOM     13  O   UNL     1       4.843   3.389  19.586  0.00  0.00    +0.000 OA
ENDBRANCH   3  12
ENDBRANCH   1   3
BRANCH   1  14
ATOM     14  C   UNL     1       3.853   7.408  17.508  0.00  0.00    +0.000 C 
BRANCH  14  15
ATOM     15  C   UNL     1       2.600   7.094  18.329  0.00  0.00    +0.000 C 
BRANCH  15  16
ATOM     16  C   UNL     1       2.001   8.366  18.923  0.00  0.00    +0.000 C 
BRANCH  16  17
ATOM     17  N   UNL     1       1.499   8.138  20.268  0.00  0.00    +0.000 N 
ATOM     18  C   UNL     1       0.866   9.109  20.972  0.00  0.00    +0.000 C 
ATOM     19  N   UNL     1       0.706  10.308  20.534  0.00  0.00    +0.000 NA
ATOM     20  C   UNL     1       0.082  11.294  21.412  0.00  0.00    +0.000 C 
ATOM     21  C   UNL     1      -0.742  10.678  22.531  0.00  0.00    +0.000 C 
ATOM     22  C   UNL     1       0.074   9.588  23.198  0.00  0.00    +0.000 C 
ATOM     23  N   UNL     1       0.469   8.636  22.184  0.00  0.00    +0.000 N 
ATOM     24  H   UNL     1       1.193   7.192  20.450  0.00  0.00    +0.000 HD
ATOM     25  H   UNL     1       1.047   7.881  22.531  0.00  0.00    +0.000 HD
ENDBRANCH  16  17
ENDBRANCH  15  16
ENDBRANCH  14  15
ENDBRANCH   1  14
TORSDOF 6
ENDMDL
MODEL 3
REMARK VINA RESULT:      -7.1      3.820      6.976
REMARK  Name = 
REMARK  6 active torsions:
REMARK  status: ('A' for Active; 'I' for Inactive)
REMARK    1  A    between atoms: C_9  and  C_10
REMARK    2  A    between atoms: C_10  and  N_11
REMARK    3  A    between atoms: N_11  and  C_12
REMARK    4  A    between atoms: C_12  and  C_13
REMARK    5  A    between atoms: C_13  and  C_14
REMARK    6  A    between atoms: C_14  and  N_15
REMARK                            x       y       z     vdW  Elec       q    Type
REMARK                         _______ _______ _______ _____ _____    ______ ____
ROOT
ATOM      1  N   UNL     1       1.397   2.752  19.834  0.00  0.00    +0.000 NA
ATOM      2  H   UNL     1       2.331   2.444  20.111  0.00  0.00    +0.000 HD
ENDROOT
BRANCH   1   3
ATOM      3  C   UNL     1       1.404   3.073  18.400  0.00  0.00    +0.000 C 
BRANCH   3  12
ATOM      4  C   UNL     1       5.925   5.683  18.553  0.00  0.00    +0.000 A 
ATOM      5  C   UNL     1       5.459   5.967  17.267  0.00  0.00    +0.000 A 
ATOM      6  C   UNL     1       4.542   5.113  16.653  0.00  0.00    +0.000 A 
ATOM      7  C   UNL     1       4.095   3.979  17.325  0.00  0.00    +0.000 A 
ATOM      8  C   UNL     1       4.593   3.674  18.595  0.00  0.00    +0.000 A 
ATOM      9  C   UNL     1       5.490   4.538  19.218  0.00  0.00    +0.000 A 
ATOM     10  O   UNL     1       4.212   2.564  19.309  0.00  0.00    +0.000 OA
ATOM     11  C   UNL     1       3.535   1.622  18.468  0.00  0.00    +0.000 C 
ATOM     12  C   UNL     1       2.488   2.312  17.603  0.00  0.00    +0.000 C 
ATOM     13  O   UNL     1       3.138   3.225  16.693  0.00  0.00    +0.000 OA
ENDBRANCH   3  12
ENDBRANCH   1   3
BRANCH   1  14
ATOM     14  C   UNL     1       1.050   3.917  20.658  0.00  0.00    +0.000 C 
BRANCH  14  15
ATOM     15  C   UNL     1       2.242   4.814  21.007  0.00  0.00    +0.000 C 
BRANCH  15  16
ATOM     16  C   UNL     1       2.211   6.107  20.198  0.00  0.00    +0.000 C 
BRANCH  16  17
ATOM     17  N   UNL     1       1.717   7.219  20.993  0.00  0.00    +0.000 N 
ATOM     18  C   UNL     1       1.394   8.412  20.436  0.00  0.00    +0.000 C 
ATOM     19  N   UNL     1       1.546   8.671  19.184  0.00  0.00    +0.000 NA
ATOM     20  C   UNL     1       1.242  10.017  18.708  0.00  0.00    +0.000 C 
ATOM     21  C   UNL     1       0.325  10.799  19.636  0.00  0.00    +0.000 C 
ATOM     22  C   UNL     1       0.843  10.676  21.055  0.00  0.00    +0.000 C 
ATOM     23  N   UNL     1       0.930   9.270  21.384  0.00  0.00    +0.000 N 
ATOM     24  H   UNL     1       1.175   6.951  21.804  0.00  0.00    +0.000 HD
ATOM     25  H   UNL     1       1.297   9.086  22.308  0.00  0.00    +0.000 HD
ENDBRANCH  16  17
ENDBRANCH  15  16
ENDBRANCH  14  15
ENDBRANCH   1  14
TORSDOF 6
ENDMDL
MODEL 4
REMARK VINA RESULT:      -7.1      3.704      5.371
REMARK  Name = 
REMARK  6 active torsions:
REMARK  status: ('A' for Active; 'I' for Inactive)
REMARK    1  A    between atoms: C_9  and  C_10
REMARK    2  A    between atoms: C_10  and  N_11
REMARK    3  A    between atoms: N_11  and  C_12
REMARK    4  A    between atoms: C_12  and  C_13
REMARK    5  A    between atoms: C_13  and  C_14
REMARK    6  A    between atoms: C_14  and  N_15
REMARK                            x       y       z     vdW  Elec       q    Type
REMARK                         _______ _______ _______ _____ _____    ______ ____
ROOT
ATOM      1  N   UNL     1       5.091   5.959  17.437  0.00  0.00    +0.000 NA
ATOM      2  H   UNL     1       4.100   6.202  17.381  0.00  0.00    +0.000 HD
ENDROOT
BRANCH   1   3
ATOM      3  C   UNL     1       5.330   5.196  18.670  0.00  0.00    +0.000 C 
BRANCH   3  12
ATOM      4  C   UNL     1       0.741   3.331  20.326  0.00  0.00    +0.000 A 
ATOM      5  C   UNL     1       1.605   2.964  21.361  0.00  0.00    +0.000 A 
ATOM      6  C   UNL     1       2.974   2.848  21.119  0.00  0.00    +0.000 A 
ATOM      7  C   UNL     1       3.476   3.099  19.845  0.00  0.00    +0.000 A 
ATOM      8  C   UNL     1       2.606   3.426  18.800  0.00  0.00    +0.000 A 
ATOM      9  C   UNL     1       1.242   3.566  19.046  0.00  0.00    +0.000 A 
ATOM     10  O   UNL     1       3.026   3.669  17.516  0.00  0.00    +0.000 OA
ATOM     11  C   UNL     1       4.372   3.216  17.323  0.00  0.00    +0.000 C 
ATOM     12  C   UNL     1       5.271   3.665  18.469  0.00  0.00    +0.000 C 
ATOM     13  O   UNL     1       4.839   3.039  19.695  0.00  0.00    +0.000 OA
ENDBRANCH   3  12
ENDBRANCH   1   3
BRANCH   1  14
ATOM     14  C   UNL     1       5.858   7.212  17.407  0.00  0.00    +0.000 C 
BRANCH  14  15
ATOM     15  C   UNL     1       7.335   7.050  17.775  0.00  0.00    +0.000 C 
BRANCH  15  16
ATOM     16  C   UNL     1       8.096   8.358  17.577  0.00  0.00    +0.000 C 
BRANCH  16  17
ATOM     17  N   UNL     1       8.657   8.841  18.827  0.00  0.00    +0.000 N 
ATOM     18  C   UNL     1       9.033  10.133  18.993  0.00  0.00    +0.000 C 
ATOM     19  N   UNL     1       8.974  11.012  18.054  0.00  0.00    +0.000 NA
ATOM     20  C   UNL     1       9.484  12.354  18.322  0.00  0.00    +0.000 C 
ATOM     21  C   UNL     1       9.563  12.691  19.803  0.00  0.00    +0.000 C 
ATOM     22  C   UNL     1      10.238  11.546  20.531  0.00  0.00    +0.000 C 
ATOM     23  N   UNL     1       9.495  10.336  20.256  0.00  0.00    +0.000 N 
ATOM     24  H   UNL     1       8.309   8.375  19.654  0.00  0.00    +0.000 HD
ATOM     25  H   UNL     1       9.890   9.506  20.679  0.00  0.00    +0.000 HD
ENDBRANCH  16  17
ENDBRANCH  15  16
ENDBRANCH  14  15
ENDBRANCH   1  14
TORSDOF 6
ENDMDL
MODEL 5
REMARK VINA RESULT:      -7.0      4.315      6.950
REMARK  Name = 
REMARK  6 active torsions:
REMARK  status: ('A' for Active; 'I' for Inactive)
REMARK    1  A    between atoms: C_9  and  C_10
REMARK    2  A    between atoms: C_10  and  N_11
REMARK    3  A    between atoms: N_11  and  C_12
REMARK    4  A    between atoms: C_12  and  C_13
REMARK    5  A    between atoms: C_13  and  C_14
REMARK    6  A    between atoms: C_14  and  N_15
REMARK                            x       y       z     vdW  Elec       q    Type
REMARK                         _______ _______ _______ _____ _____    ______ ____
ROOT
ATOM      1  N   UNL     1       4.220   6.363  17.772  0.00  0.00    +0.000 NA
ATOM      2  H   UNL     1       3.867   5.727  17.054  0.00  0.00    +0.000 HD
ENDROOT
BRANCH   1   3
ATOM      3  C   UNL     1       4.990   5.593  18.759  0.00  0.00    +0.000 C 
BRANCH   3  12
ATOM      4  C   UNL     1       0.800   2.973  20.451  0.00  0.00    +0.000 A 
ATOM      5  C   UNL     1       1.770   2.633  21.398  0.00  0.00    +0.000 A 
ATOM      6  C   UNL     1       3.124   2.727  21.076  0.00  0.00    +0.000 A 
ATOM      7  C   UNL     1       3.505   3.162  19.809  0.00  0.00    +0.000 A 
ATOM      8  C   UNL     1       2.534   3.464  18.849  0.00  0.00    +0.000 A 
ATOM      9  C   UNL     1       1.183   3.393  19.177  0.00  0.00    +0.000 A 
ATOM     10  O   UNL     1       2.836   3.881  17.576  0.00  0.00    +0.000 OA
ATOM     11  C   UNL     1       4.214   3.635  17.270  0.00  0.00    +0.000 C 
ATOM     12  C   UNL     1       5.119   4.093  18.407  0.00  0.00    +0.000 C 
ATOM     13  O   UNL     1       4.852   3.303  19.585  0.00  0.00    +0.000 OA
ENDBRANCH   3  12
ENDBRANCH   1   3
BRANCH   1  14
ATOM     14  C   UNL     1       3.064   7.036  18.378  0.00  0.00    +0.000 C 
BRANCH  14  15
ATOM     15  C   UNL     1       2.539   8.226  17.571  0.00  0.00    +0.000 C 
BRANCH  15  16
ATOM     16  C   UNL     1       1.849   9.242  18.476  0.00  0.00    +0.000 C 
BRANCH  16  17
ATOM     17  N   UNL     1       0.680   9.819  17.833  0.00  0.00    +0.000 N 
ATOM     18  C   UNL     1      -0.225  10.558  18.520  0.00  0.00    +0.000 C 
ATOM     19  N   UNL     1      -0.152  10.764  19.789  0.00  0.00    +0.000 NA
ATOM     20  C   UNL     1      -1.228  11.507  20.438  0.00  0.00    +0.000 C 
ATOM     21  C   UNL     1      -2.040  12.365  19.480  0.00  0.00    +0.000 C 
ATOM     22  C   UNL     1      -2.418  11.529  18.274  0.00  0.00    +0.000 C 
ATOM     23  N   UNL     1      -1.203  11.006  17.688  0.00  0.00    +0.000 N 
ATOM     24  H   UNL     1       0.814  10.076  16.865  0.00  0.00    +0.000 HD
ATOM     25  H   UNL     1      -1.358  10.406  16.888  0.00  0.00    +0.000 HD
ENDBRANCH  16  17
ENDBRANCH  15  16
ENDBRANCH  14  15
ENDBRANCH   1  14
TORSDOF 6
ENDMDL
MODEL 6
REMARK VINA RESULT:      -7.0      4.564      6.118
REMARK  Name = 
REMARK  6 active torsions:
REMARK  status: ('A' for Active; 'I' for Inactive)
REMARK    1  A    between atoms: C_9  and  C_10
REMARK    2  A    between atoms: C_10  and  N_11
REMARK    3  A    between atoms: N_11  and  C_12
REMARK    4  A    between atoms: C_12  and  C_13
REMARK    5  A    between atoms: C_13  and  C_14
REMARK    6  A    between atoms: C_14  and  N_15
REMARK                            x       y       z     vdW  Elec       q    Type
REMARK                         _______ _______ _______ _____ _____    ______ ____
ROOT
ATOM      1  N   UNL     1       6.683   6.306  18.410  0.00  0.00    +0.000 NA
ATOM      2  H   UNL     1       6.474   6.175  19.402  0.00  0.00    +0.000 HD
ENDROOT
BRANCH   1   3
ATOM      3  C   UNL     1       6.744   4.993  17.753  0.00  0.00    +0.000 C 
BRANCH   3  12
ATOM      4  C   UNL     1       1.659   4.238  18.681  0.00  0.00    +0.000 A 
ATOM      5  C   UNL     1       2.080   2.972  18.264  0.00  0.00    +0.000 A 
ATOM      6  C   UNL     1       3.229   2.840  17.485  0.00  0.00    +0.000 A 
ATOM      7  C   UNL     1       3.955   3.972  17.125  0.00  0.00    +0.000 A 
ATOM      8  C   UNL     1       3.511   5.242  17.508  0.00  0.00    +0.000 A 
ATOM      9  C   UNL     1       2.377   5.372  18.306  0.00  0.00    +0.000 A 
ATOM     10  O   UNL     1       4.164   6.402  17.174  0.00  0.00    +0.000 OA
ATOM     11  C   UNL     1       5.120   6.169  16.131  0.00  0.00    +0.000 C 
ATOM     12  C   UNL     1       5.960   4.932  16.423  0.00  0.00    +0.000 C 
ATOM     13  O   UNL     1       5.114   3.763  16.421  0.00  0.00    +0.000 OA
ENDBRANCH   3  12
ENDBRANCH   1   3
BRANCH   1  14
ATOM     14  C   UNL     1       7.958   7.029  18.317  0.00  0.00    +0.000 C 
BRANCH  14  15
ATOM     15  C   UNL     1       7.832   8.453  17.768  0.00  0.00    +0.000 C 
BRANCH  15  16
ATOM     16  C   UNL     1       8.794   9.401  18.477  0.00  0.00    +0.000 C 
BRANCH  16  17
ATOM     17  N   UNL     1       8.592  10.777  18.054  0.00  0.00    +0.000 N 
ATOM     18  C   UNL     1       9.621  11.654  17.949  0.00  0.00    +0.000 C 
ATOM     19  N   UNL     1      10.835  11.359  18.261  0.00  0.00    +0.000 NA
ATOM     20  C   UNL     1      11.848  12.408  18.186  0.00  0.00    +0.000 C 
ATOM     21  C   UNL     1      11.456  13.571  17.289  0.00  0.00    +0.000 C 
ATOM     22  C   UNL     1      10.047  14.006  17.638  0.00  0.00    +0.000 C 
ATOM     23  N   UNL     1       9.175  12.860  17.507  0.00  0.00    +0.000 N 
ATOM     24  H   UNL     1       7.832  10.911  17.401  0.00  0.00    +0.000 HD
ATOM     25  H   UNL     1       8.210  13.047  17.750  0.00  0.00    +0.000 HD
ENDBRANCH  16  17
ENDBRANCH  15  16
ENDBRANCH  14  15
ENDBRANCH   1  14
TORSDOF 6
ENDMDL
MODEL 7
REMARK VINA RESULT:      -7.0      1.335      2.153
REMARK  Name = 
REMARK  6 active torsions:
REMARK  status: ('A' for Active; 'I' for Inactive)
REMARK    1  A    between atoms: C_9  and  C_10
REMARK    2  A    between atoms: C_10  and  N_11
REMARK    3  A    between atoms: N_11  and  C_12
REMARK    4  A    between atoms: C_12  and  C_13
REMARK    5  A    between atoms: C_13  and  C_14
REMARK    6  A    between atoms: C_14  and  N_15
REMARK                            x       y       z     vdW  Elec       q    Type
REMARK                         _______ _______ _______ _____ _____    ______ ____
ROOT
ATOM      1  N   UNL     1       4.071   6.957  17.203  0.00  0.00    +0.000 NA
ATOM      2  H   UNL     1       3.846   7.880  16.826  0.00  0.00    +0.000 HD
ENDROOT
BRANCH   1   3
ATOM      3  C   UNL     1       3.649   6.897  18.610  0.00  0.00    +0.000 C 
BRANCH   3  12
ATOM      4  C   UNL     1       3.855   1.706  19.147  0.00  0.00    +0.000 A 
ATOM      5  C   UNL     1       3.404   1.853  17.833  0.00  0.00    +0.000 A 
ATOM      6  C   UNL     1       2.772   3.033  17.440  0.00  0.00    +0.000 A 
ATOM      7  C   UNL     1       2.592   4.061  18.362  0.00  0.00    +0.000 A 
ATOM      8  C   UNL     1       3.007   3.897  19.687  0.00  0.00    +0.000 A 
ATOM      9  C   UNL     1       3.659   2.729  20.074  0.00  0.00    +0.000 A 
ATOM     10  O   UNL     1       2.846   4.859  20.653  0.00  0.00    +0.000 OA
ATOM     11  C   UNL     1       1.921   5.867  20.224  0.00  0.00    +0.000 C 
ATOM     12  C   UNL     1       2.227   6.322  18.802  0.00  0.00    +0.000 C 
ATOM     13  O   UNL     1       2.031   5.221  17.889  0.00  0.00    +0.000 OA
ENDBRANCH   3  12
ENDBRANCH   1   3
BRANCH   1  14
ATOM     14  C   UNL     1       5.519   6.756  17.054  0.00  0.00    +0.000 C 
BRANCH  14  15
ATOM     15  C   UNL     1       6.092   5.647  17.940  0.00  0.00    +0.000 C 
BRANCH  15  16
ATOM     16  C   UNL     1       7.111   4.806  17.177  0.00  0.00    +0.000 C 
BRANCH  16  17
ATOM     17  N   UNL     1       6.475   4.019  16.133  0.00  0.00    +0.000 N 
ATOM     18  C   UNL     1       6.745   4.219  14.820  0.00  0.00    +0.000 C 
ATOM     19  N   UNL     1       7.534   5.142  14.393  0.00  0.00    +0.000 NA
ATOM     20  C   UNL     1       7.686   5.319  12.951  0.00  0.00    +0.000 C 
ATOM     21  C   UNL     1       7.291   4.093  12.143  0.00  0.00    +0.000 C 
ATOM     22  C   UNL     1       5.945   3.595  12.632  0.00  0.00    +0.000 C 
ATOM     23  N   UNL     1       6.048   3.339  14.052  0.00  0.00    +0.000 N 
ATOM     24  H   UNL     1       6.252   3.069  16.397  0.00  0.00    +0.000 HD
ATOM     25  H   UNL     1       5.184   3.029  14.477  0.00  0.00    +0.000 HD
ENDBRANCH  16  17
ENDBRANCH  15  16
ENDBRANCH  14  15
ENDBRANCH   1  14
TORSDOF 6
ENDMDL
MODEL 8
REMARK VINA RESULT:      -6.9      3.098      5.078
REMARK  Name = 
REMARK  6 active torsions:
REMARK  status: ('A' for Active; 'I' for Inactive)
REMARK    1  A    between atoms: C_9  and  C_10
REMARK    2  A    between atoms: C_10  and  N_11
REMARK    3  A    between atoms: N_11  and  C_12
REMARK    4  A    between atoms: C_12  and  C_13
REMARK    5  A    between atoms: C_13  and  C_14
REMARK    6  A    between atoms: C_14  and  N_15
REMARK                            x       y       z     vdW  Elec       q    Type
REMARK                         _______ _______ _______ _____ _____    ______ ____
ROOT
ATOM      1  N   UNL     1       1.595   4.253  18.937  0.00  0.00    +0.000 NA
ATOM      2  H   UNL     1       0.796   4.617  19.461  0.00  0.00    +0.000 HD
ENDROOT
BRANCH   1   3
ATOM      3  C   UNL     1       1.902   5.170  17.832  0.00  0.00    +0.000 C 
BRANCH   3  12
ATOM      4  C   UNL     1       0.570   9.775  19.907  0.00  0.00    +0.000 A 
ATOM      5  C   UNL     1       0.839  10.111  18.578  0.00  0.00    +0.000 A 
ATOM      6  C   UNL     1       1.663   9.294  17.804  0.00  0.00    +0.000 A 
ATOM      7  C   UNL     1       2.216   8.144  18.360  0.00  0.00    +0.000 A 
ATOM      8  C   UNL     1       1.979   7.829  19.702  0.00  0.00    +0.000 A 
ATOM      9  C   UNL     1       1.137   8.631  20.468  0.00  0.00    +0.000 A 
ATOM     10  O   UNL     1       2.504   6.722  20.322  0.00  0.00    +0.000 OA
ATOM     11  C   UNL     1       3.564   6.153  19.542  0.00  0.00    +0.000 C 
ATOM     12  C   UNL     1       3.162   6.032  18.078  0.00  0.00    +0.000 C 
ATOM     13  O   UNL     1       2.956   7.347  17.522  0.00  0.00    +0.000 OA
ENDBRANCH   3  12
ENDBRANCH   1   3
BRANCH   1  14
ATOM     14  C   UNL     1       1.237   2.911  18.457  0.00  0.00    +0.000 C 
BRANCH  14  15
ATOM     15  C   UNL     1       2.232   1.818  18.856  0.00  0.00    +0.000 C 
BRANCH  15  16
ATOM     16  C   UNL     1       3.437   1.804  17.920  0.00  0.00    +0.000 C 
BRANCH  16  17
ATOM     17  N   UNL     1       4.536   2.589  18.457  0.00  0.00    +0.000 N 
ATOM     18  C   UNL     1       5.260   3.434  17.682  0.00  0.00    +0.000 C 
ATOM     19  N   UNL     1       5.069   3.571  16.417  0.00  0.00    +0.000 NA
ATOM     20  C   UNL     1       5.963   4.450  15.667  0.00  0.00    +0.000 C 
ATOM     21  C   UNL     1       6.686   5.467  16.536  0.00  0.00    +0.000 C 
ATOM     22  C   UNL     1       7.276   4.755  17.737  0.00  0.00    +0.000 C 
ATOM     23  N   UNL     1       6.206   4.069  18.426  0.00  0.00    +0.000 N 
ATOM     24  H   UNL     1       4.427   2.862  19.424  0.00  0.00    +0.000 HD
ATOM     25  H   UNL     1       6.510   3.536  19.231  0.00  0.00    +0.000 HD
ENDBRANCH  16  17
ENDBRANCH  15  16
ENDBRANCH  14  15
ENDBRANCH   1  14
TORSDOF 6
ENDMDL
MODEL 9
REMARK VINA RESULT:      -6.9      2.591      6.265
REMARK  Name = 
REMARK  6 active torsions:
REMARK  status: ('A' for Active; 'I' for Inactive)
REMARK    1  A    between atoms: C_9  and  C_10
REMARK    2  A    between atoms: C_10  and  N_11
REMARK    3  A    between atoms: N_11  and  C_12
REMARK    4  A    between atoms: C_12  and  C_13
REMARK    5  A    between atoms: C_13  and  C_14
REMARK    6  A    between atoms: C_14  and  N_15
REMARK                            x       y       z     vdW  Elec       q    Type
REMARK                         _______ _______ _______ _____ _____    ______ ____
ROOT
ATOM      1  N   UNL     1       3.464   6.461  17.588  0.00  0.00    +0.000 NA
ATOM      2  H   UNL     1       3.388   5.607  18.145  0.00  0.00    +0.000 HD
ENDROOT
BRANCH   1   3
ATOM      3  C   UNL     1       4.842   6.966  17.671  0.00  0.00    +0.000 C 
BRANCH   3  12
ATOM      4  C   UNL     1       6.761   4.386  13.555  0.00  0.00    +0.000 A 
ATOM      5  C   UNL     1       5.855   3.466  14.090  0.00  0.00    +0.000 A 
ATOM      6  C   UNL     1       5.480   3.555  15.431  0.00  0.00    +0.000 A 
ATOM      7  C   UNL     1       6.011   4.562  16.232  0.00  0.00    +0.000 A 
ATOM      8  C   UNL     1       6.948   5.457  15.707  0.00  0.00    +0.000 A 
ATOM      9  C   UNL     1       7.304   5.384  14.363  0.00  0.00    +0.000 A 
ATOM     10  O   UNL     1       7.526   6.462  16.442  0.00  0.00    +0.000 OA
ATOM     11  C   UNL     1       7.315   6.258  17.845  0.00  0.00    +0.000 C 
ATOM     12  C   UNL     1       5.862   5.902  18.134  0.00  0.00    +0.000 C 
ATOM     13  O   UNL     1       5.542   4.636  17.520  0.00  0.00    +0.000 OA
ENDBRANCH   3  12
ENDBRANCH   1   3
BRANCH   1  14
ATOM     14  C   UNL     1       2.491   7.425  18.118  0.00  0.00    +0.000 C 
BRANCH  14  15
ATOM     15  C   UNL     1       2.406   7.454  19.646  0.00  0.00    +0.000 C 
BRANCH  15  16
ATOM     16  C   UNL     1       1.869   6.134  20.191  0.00  0.00    +0.000 C 
BRANCH  16  17
ATOM     17  N   UNL     1       2.927   5.146  20.327  0.00  0.00    +0.000 N 
ATOM     18  C   UNL     1       2.936   4.002  19.601  0.00  0.00    +0.000 C 
ATOM     19  N   UNL     1       1.997   3.676  18.783  0.00  0.00    +0.000 NA
ATOM     20  C   UNL     1       2.072   2.379  18.115  0.00  0.00    +0.000 C 
ATOM     21  C   UNL     1       3.473   1.791  18.083  0.00  0.00    +0.000 C 
ATOM     22  C   UNL     1       4.074   1.880  19.472  0.00  0.00    +0.000 C 
ATOM     23  N   UNL     1       4.042   3.264  19.889  0.00  0.00    +0.000 N 
ATOM     24  H   UNL     1       3.834   5.527  20.559  0.00  0.00    +0.000 HD
ATOM     25  H   UNL     1       4.399   3.420  20.823  0.00  0.00    +0.000 HD
ENDBRANCH  16  17
ENDBRANCH  15  16
ENDBRANCH  14  15
ENDBRANCH   1  14
TORSDOF 6
ENDMDL
