MODEL 1
REMARK VINA RESULT:      -7.1      0.000      0.000
REMARK  Name = 
REMARK  3 active torsions:
REMARK  status: ('A' for Active; 'I' for Inactive)
REMARK    1  A    between atoms: O_1  and  C_2
REMARK    2  A    between atoms: C_4  and  C_5
REMARK    3  A    between atoms: C_12  and  C_13
REMARK                            x       y       z     vdW  Elec       q    Type
REMARK                         _______ _______ _______ _____ _____    ______ ____
ROOT
ATOM      1  C   UNL     1       5.991   5.198  19.102  0.00  0.00    +0.000 A 
ATOM      2  C   UNL     1       4.662   5.319  19.422  0.00  0.00    +0.000 A 
ATOM      3  C   UNL     1       3.768   5.236  18.367  0.00  0.00    +0.000 A 
ATOM      4  N   UNL     1       4.185   5.076  17.098  0.00  0.00    +0.000 NA
ATOM      5  C   UNL     1       5.516   4.964  16.904  0.00  0.00    +0.000 A 
ATOM      6  N   UNL     1       6.452   5.014  17.866  0.00  0.00    +0.000 NA
ENDROOT
BRANCH   3   7
ATOM      7  C   UNL     1       2.271   5.278  18.628  0.00  0.00    +0.000 C 
ATOM      8  C   UNL     1       1.935   5.359  20.131  0.00  0.00    +0.000 C 
ATOM      9  C   UNL     1       1.684   4.011  20.806  0.00  0.00    +0.000 C 
ATOM     10  N   UNL     1       0.789   3.157  20.028  0.00  0.00    +0.000 NA
ATOM     11  C   UNL     1       1.390   2.876  18.726  0.00  0.00    +0.000 C 
ATOM     12  C   UNL     1       1.520   4.153  17.902  0.00  0.00    +0.000 C 
ATOM     13  H   UNL     1      -0.108   3.625  19.900  0.00  0.00    +0.000 HD
ENDBRANCH   3   7
BRANCH   5  14
ATOM     14  C   UNL     1       5.948   4.704  15.534  0.00  0.00    +0.000 A 
ATOM     15  C   UNL     1       5.249   3.927  14.550  0.00  0.00    +0.000 A 
ATOM     16  C   UNL     1       5.937   3.833  13.362  0.00  0.00    +0.000 A 
ATOM     17  S   UNL     1       7.421   4.678  13.413  0.00  0.00    +0.000 S 
ATOM     18  C   UNL     1       7.145   5.174  15.028  0.00  0.00    +0.000 A 
ENDBRANCH   5  14
BRANCH   1  19
ATOM     19  O   UNL     1       6.954   5.235  20.067  0.00  0.00    +0.000 OA
ATOM     20  H   UNL     1       7.616   5.899  19.826  0.00  0.00    +0.000 HD
ENDBRANCH   1  19
TORSDOF 3
ENDMDL
MODEL 2
REMARK VINA RESULT:      -6.9      1.455      1.750
REMARK  Name = 
REMARK  3 active torsions:
REMARK  status: ('A' for Active; 'I' for Inactive)
REMARK    1  A    between atoms: O_1  and  C_2
REMARK    2  A    between atoms: C_4  and  C_5
REMARK    3  A    between atoms: C_12  and  C_13
REMARK                            x       y       z     vdW  Elec       q    Type
REMARK                         _______ _______ _______ _____ _____    ______ ____
ROOT
ATOM      1  C   UNL     1       7.098   4.862  18.114  0.00  0.00    +0.000 A 
ATOM      2  C   UNL     1       5.819   4.831  18.611  0.00  0.00    +0.000 A 
ATOM      3  C   UNL     1       4.804   4.678  17.681  0.00  0.00    +0.000 A 
ATOM      4  N   UNL     1       5.060   4.596  16.362  0.00  0.00    +0.000 NA
ATOM      5  C   UNL     1       6.357   4.632  15.990  0.00  0.00    +0.000 A 
ATOM      6  N   UNL     1       7.404   4.759  16.821  0.00  0.00    +0.000 NA
ENDROOT
BRANCH   3   7
ATOM      7  C   UNL     1       3.361   4.553  18.138  0.00  0.00    +0.000 C 
ATOM      8  C   UNL     1       3.241   4.291  19.653  0.00  0.00    +0.000 C 
ATOM      9  C   UNL     1       3.151   2.817  20.046  0.00  0.00    +0.000 C 
ATOM     10  N   UNL     1       2.193   2.079  19.224  0.00  0.00    +0.000 NA
ATOM     11  C   UNL     1       2.612   2.124  17.825  0.00  0.00    +0.000 C 
ATOM     12  C   UNL     1       2.565   3.550  17.289  0.00  0.00    +0.000 C 
ATOM     13  H   UNL     1       1.267   2.495  19.320  0.00  0.00    +0.000 HD
ENDBRANCH   3   7
BRANCH   5  14
ATOM     14  C   UNL     1       6.624   4.455  14.566  0.00  0.00    +0.000 A 
ATOM     15  C   UNL     1       7.598   5.162  13.785  0.00  0.00    +0.000 A 
ATOM     16  C   UNL     1       7.580   4.798  12.457  0.00  0.00    +0.000 A 
ATOM     17  S   UNL     1       6.401   3.603  12.138  0.00  0.00    +0.000 S 
ATOM     18  C   UNL     1       5.912   3.569  13.779  0.00  0.00    +0.000 A 
ENDBRANCH   5  14
BRANCH   1  19
ATOM     19  O   UNL     1       8.174   4.979  18.944  0.00  0.00    +0.000 OA
ATOM     20  H   UNL     1       8.955   4.621  18.499  0.00  0.00    +0.000 HD
ENDBRANCH   1  19
TORSDOF 3
ENDMDL
MODEL 3
REMARK VINA RESULT:      -6.9      3.282      5.882
REMARK  Name = 
REMARK  3 active torsions:
REMARK  status: ('A' for Active; 'I' for Inactive)
REMARK    1  A    between atoms: O_1  and  C_2
REMARK    2  A    between atoms: C_4  and  C_5
REMARK    3  A    between atoms: C_12  and  C_13
REMARK                            x       y       z     vdW  Elec       q    Type
REMARK                         _______ _______ _______ _____ _____    ______ ____
ROOT
ATOM      1  C   UNL     1       2.580   7.801  18.217  0.00  0.00    +0.000 A 
ATOM      2  C   UNL     1       3.726   7.818  17.463  0.00  0.00    +0.000 A 
ATOM      3  C   UNL     1       4.460   6.643  17.439  0.00  0.00    +0.000 A 
ATOM      4  N   UNL     1       4.082   5.559  18.141  0.00  0.00    +0.000 NA
ATOM      5  C   UNL     1       2.933   5.657  18.843  0.00  0.00    +0.000 A 
ATOM      6  N   UNL     1       2.150   6.747  18.909  0.00  0.00    +0.000 NA
ENDROOT
BRANCH   3   7
ATOM      7  C   UNL     1       5.702   6.535  16.571  0.00  0.00    +0.000 C 
ATOM      8  C   UNL     1       5.644   5.336  15.603  0.00  0.00    +0.000 C 
ATOM      9  C   UNL     1       6.296   4.056  16.124  0.00  0.00    +0.000 C 
ATOM     10  N   UNL     1       7.612   4.301  16.710  0.00  0.00    +0.000 NA
ATOM     11  C   UNL     1       7.481   5.208  17.848  0.00  0.00    +0.000 C 
ATOM     12  C   UNL     1       6.997   6.581  17.395  0.00  0.00    +0.000 C 
ATOM     13  H   UNL     1       8.229   4.713  16.010  0.00  0.00    +0.000 HD
ENDBRANCH   3   7
BRANCH   5  14
ATOM     14  C   UNL     1       2.491   4.448  19.528  0.00  0.00    +0.000 A 
ATOM     15  C   UNL     1       2.209   3.177  18.924  0.00  0.00    +0.000 A 
ATOM     16  C   UNL     1       1.770   2.242  19.834  0.00  0.00    +0.000 A 
ATOM     17  S   UNL     1       1.698   2.876  21.418  0.00  0.00    +0.000 S 
ATOM     18  C   UNL     1       2.256   4.406  20.890  0.00  0.00    +0.000 A 
ENDBRANCH   5  14
BRANCH   1  19
ATOM     19  O   UNL     1       1.767   8.895  18.286  0.00  0.00    +0.000 OA
ATOM     20  H   UNL     1       1.658   9.148  19.214  0.00  0.00    +0.000 HD
ENDBRANCH   1  19
TORSDOF 3
ENDMDL
MODEL 4
REMARK VINA RESULT:      -6.9      3.541      4.982
REMARK  Name = 
REMARK  3 active torsions:
REMARK  status: ('A' for Active; 'I' for Inactive)
REMARK    1  A    between atoms: O_1  and  C_2
REMARK    2  A    between atoms: C_4  and  C_5
REMARK    3  A    between atoms: C_12  and  C_13
REMARK                            x       y       z     vdW  Elec       q    Type
REMARK                         _______ _______ _______ _____ _____    ______ ____
ROOT
ATOM      1  C   UNL     1       4.752   6.310  16.829  0.00  0.00    +0.000 A 
ATOM      2  C   UNL     1       4.404   4.999  17.034  0.00  0.00    +0.000 A 
ATOM      3  C   UNL     1       3.267   4.779  17.794  0.00  0.00    +0.000 A 
ATOM      4  N   UNL     1       2.563   5.796  18.324  0.00  0.00    +0.000 NA
ATOM      5  C   UNL     1       2.996   7.045  18.050  0.00  0.00    +0.000 A 
ATOM      6  N   UNL     1       4.074   7.352  17.310  0.00  0.00    +0.000 NA
ENDROOT
BRANCH   3   7
ATOM      7  C   UNL     1       2.755   3.365  18.012  0.00  0.00    +0.000 C 
ATOM      8  C   UNL     1       1.255   3.327  18.366  0.00  0.00    +0.000 C 
ATOM      9  C   UNL     1       0.947   3.319  19.862  0.00  0.00    +0.000 C 
ATOM     10  N   UNL     1       1.768   2.356  20.594  0.00  0.00    +0.000 NA
ATOM     11  C   UNL     1       3.179   2.707  20.450  0.00  0.00    +0.000 C 
ATOM     12  C   UNL     1       3.626   2.573  18.999  0.00  0.00    +0.000 C 
ATOM     13  H   UNL     1       1.606   1.418  20.228  0.00  0.00    +0.000 HD
ENDBRANCH   3   7
BRANCH   5  14
ATOM     14  C   UNL     1       2.174   8.138  18.558  0.00  0.00    +0.000 A 
ATOM     15  C   UNL     1       1.770   9.310  17.836  0.00  0.00    +0.000 A 
ATOM     16  C   UNL     1       1.031  10.180  18.606  0.00  0.00    +0.000 A 
ATOM     17  S   UNL     1       0.810   9.596  20.196  0.00  0.00    +0.000 S 
ATOM     18  C   UNL     1       1.703   8.175  19.858  0.00  0.00    +0.000 A 
ENDBRANCH   5  14
BRANCH   1  19
ATOM     19  O   UNL     1       5.837   6.641  16.071  0.00  0.00    +0.000 OA
ATOM     20  H   UNL     1       6.639   6.521  16.600  0.00  0.00    +0.000 HD
ENDBRANCH   1  19
TORSDOF 3
ENDMDL
MODEL 5
REMARK VINA RESULT:      -6.8      1.656      2.411
REMARK  Name = 
REMARK  3 active torsions:
REMARK  status: ('A' for Active; 'I' for Inactive)
REMARK    1  A    between atoms: O_1  and  C_2
REMARK    2  A    between atoms: C_4  and  C_5
REMARK    3  A    between atoms: C_12  and  C_13
REMARK                            x       y       z     vdW  Elec       q    Type
REMARK                         _______ _______ _______ _____ _____    ______ ____
ROOT
ATOM      1  C   UNL     1       7.201   6.284  17.710  0.00  0.00    +0.000 A 
ATOM      2  C   UNL     1       6.300   5.644  18.524  0.00  0.00    +0.000 A 
ATOM      3  C   UNL     1       5.524   4.665  17.926  0.00  0.00    +0.000 A 
ATOM      4  N   UNL     1       5.629   4.381  16.615  0.00  0.00    +0.000 NA
ATOM      5  C   UNL     1       6.555   5.070  15.915  0.00  0.00    +0.000 A 
ATOM      6  N   UNL     1       7.362   6.021  16.414  0.00  0.00    +0.000 NA
ENDROOT
BRANCH   3   7
ATOM      7  C   UNL     1       4.552   3.845  18.759  0.00  0.00    +0.000 C 
ATOM      8  C   UNL     1       3.741   2.847  17.909  0.00  0.00    +0.000 C 
ATOM      9  C   UNL     1       2.385   3.364  17.431  0.00  0.00    +0.000 C 
ATOM     10  N   UNL     1       1.626   4.008  18.501  0.00  0.00    +0.000 NA
ATOM     11  C   UNL     1       2.370   5.161  19.003  0.00  0.00    +0.000 C 
ATOM     12  C   UNL     1       3.672   4.722  19.662  0.00  0.00    +0.000 C 
ATOM     13  H   UNL     1       1.468   3.344  19.259  0.00  0.00    +0.000 HD
ENDBRANCH   3   7
BRANCH   5  14
ATOM     14  C   UNL     1       6.718   4.691  14.516  0.00  0.00    +0.000 A 
ATOM     15  C   UNL     1       7.633   5.271  13.574  0.00  0.00    +0.000 A 
ATOM     16  C   UNL     1       7.519   4.723  12.316  0.00  0.00    +0.000 A 
ATOM     17  S   UNL     1       6.321   3.507  12.254  0.00  0.00    +0.000 S 
ATOM     18  C   UNL     1       5.952   3.710  13.914  0.00  0.00    +0.000 A 
ENDBRANCH   5  14
BRANCH   1  19
ATOM     19  O   UNL     1       8.036   7.243  18.202  0.00  0.00    +0.000 OA
ATOM     20  H   UNL     1       8.879   6.833  18.445  0.00  0.00    +0.000 HD
ENDBRANCH   1  19
TORSDOF 3
ENDMDL
MODEL 6
REMARK VINA RESULT:      -6.8      3.113      5.851
REMARK  Name = 
REMARK  3 active torsions:
REMARK  status: ('A' for Active; 'I' for Inactive)
REMARK    1  A    between atoms: O_1  and  C_2
REMARK    2  A    between atoms: C_4  and  C_5
REMARK    3  A    between atoms: C_12  and  C_13
REMARK                            x       y       z     vdW  Elec       q    Type
REMARK                         _______ _______ _______ _____ _____    ______ ____
ROOT
ATOM      1  C   UNL     1       2.637   8.103  18.034  0.00  0.00    +0.000 A 
ATOM      2  C   UNL     1       3.826   8.037  17.353  0.00  0.00    +0.000 A 
ATOM      3  C   UNL     1       4.383   6.776  17.215  0.00  0.00    +0.000 A 
ATOM      4  N   UNL     1       3.802   5.684  17.746  0.00  0.00    +0.000 NA
ATOM      5  C   UNL     1       2.630   5.870  18.389  0.00  0.00    +0.000 A 
ATOM      6  N   UNL     1       2.010   7.050  18.555  0.00  0.00    +0.000 NA
ENDROOT
BRANCH   3   7
ATOM      7  C   UNL     1       5.658   6.587  16.410  0.00  0.00    +0.000 C 
ATOM      8  C   UNL     1       5.624   5.315  15.538  0.00  0.00    +0.000 C 
ATOM      9  C   UNL     1       6.237   4.075  16.186  0.00  0.00    +0.000 C 
ATOM     10  N   UNL     1       7.532   4.353  16.804  0.00  0.00    +0.000 NA
ATOM     11  C   UNL     1       7.366   5.349  17.860  0.00  0.00    +0.000 C 
ATOM     12  C   UNL     1       6.919   6.686  17.280  0.00  0.00    +0.000 C 
ATOM     13  H   UNL     1       8.182   4.702  16.099  0.00  0.00    +0.000 HD
ENDBRANCH   3   7
BRANCH   5  14
ATOM     14  C   UNL     1       1.969   4.667  18.884  0.00  0.00    +0.000 A 
ATOM     15  C   UNL     1       1.556   4.412  20.234  0.00  0.00    +0.000 A 
ATOM     16  C   UNL     1       0.996   3.165  20.393  0.00  0.00    +0.000 A 
ATOM     17  S   UNL     1       0.954   2.292  18.924  0.00  0.00    +0.000 S 
ATOM     18  C   UNL     1       1.686   3.584  18.072  0.00  0.00    +0.000 A 
ENDBRANCH   5  14
BRANCH   1  19
ATOM     19  O   UNL     1       1.987   9.291  18.202  0.00  0.00    +0.000 OA
ATOM     20  H   UNL     1       1.253   9.339  17.573  0.00  0.00    +0.000 HD
ENDBRANCH   1  19
TORSDOF 3
ENDMDL
MODEL 7
REMARK VINA RESULT:      -6.8      1.510      1.853
REMARK  Name = 
REMARK  3 active torsions:
REMARK  status: ('A' for Active; 'I' for Inactive)
REMARK    1  A    between atoms: O_1  and  C_2
REMARK    2  A    between atoms: C_4  and  C_5
REMARK    3  A    between atoms: C_12  and  C_13
REMARK                            x       y       z     vdW  Elec       q    Type
REMARK                         _______ _______ _______ _____ _____    ______ ____
ROOT
ATOM      1  C   UNL     1       7.247   5.701  18.504  0.00  0.00    +0.000 A 
ATOM      2  C   UNL     1       6.155   5.265  19.213  0.00  0.00    +0.000 A 
ATOM      3  C   UNL     1       5.173   4.616  18.484  0.00  0.00    +0.000 A 
ATOM      4  N   UNL     1       5.273   4.450  17.152  0.00  0.00    +0.000 NA
ATOM      5  C   UNL     1       6.395   4.914  16.563  0.00  0.00    +0.000 A 
ATOM      6  N   UNL     1       7.405   5.538  17.191  0.00  0.00    +0.000 NA
ENDROOT
BRANCH   3   7
ATOM      7  C   UNL     1       3.962   4.026  19.188  0.00  0.00    +0.000 C 
ATOM      8  C   UNL     1       4.149   2.536  19.538  0.00  0.00    +0.000 C 
ATOM      9  C   UNL     1       3.609   1.558  18.495  0.00  0.00    +0.000 C 
ATOM     10  N   UNL     1       2.265   1.912  18.044  0.00  0.00    +0.000 NA
ATOM     11  C   UNL     1       2.291   3.232  17.418  0.00  0.00    +0.000 C 
ATOM     12  C   UNL     1       2.653   4.308  18.436  0.00  0.00    +0.000 C 
ATOM     13  H   UNL     1       1.626   1.920  18.839  0.00  0.00    +0.000 HD
ENDBRANCH   3   7
BRANCH   5  14
ATOM     14  C   UNL     1       6.529   4.650  15.134  0.00  0.00    +0.000 A 
ATOM     15  C   UNL     1       5.761   3.717  14.361  0.00  0.00    +0.000 A 
ATOM     16  C   UNL     1       6.155   3.667  13.043  0.00  0.00    +0.000 A 
ATOM     17  S   UNL     1       7.443   4.741  12.720  0.00  0.00    +0.000 S 
ATOM     18  C   UNL     1       7.476   5.277  14.346  0.00  0.00    +0.000 A 
ENDBRANCH   5  14
BRANCH   1  19
ATOM     19  O   UNL     1       8.287   6.326  19.128  0.00  0.00    +0.000 OA
ATOM     20  H   UNL     1       8.118   7.279  19.141  0.00  0.00    +0.000 HD
ENDBRANCH   1  19
TORSDOF 3
ENDMDL
MODEL 8
REMARK VINA RESULT:      -6.8      3.771      5.291
REMARK  Name = 
REMARK  3 active torsions:
REMARK  status: ('A' for Active; 'I' for Inactive)
REMARK    1  A    between atoms: O_1  and  C_2
REMARK    2  A    between atoms: C_4  and  C_5
REMARK    3  A    between atoms: C_12  and  C_13
REMARK                            x       y       z     vdW  Elec       q    Type
REMARK                         _______ _______ _______ _____ _____    ______ ____
ROOT
ATOM      1  C   UNL     1       4.356   6.387  17.335  0.00  0.00    +0.000 A 
ATOM      2  C   UNL     1       4.295   5.206  18.032  0.00  0.00    +0.000 A 
ATOM      3  C   UNL     1       3.366   5.148  19.058  0.00  0.00    +0.000 A 
ATOM      4  N   UNL     1       2.590   6.202  19.369  0.00  0.00    +0.000 NA
ATOM      5  C   UNL     1       2.732   7.309  18.610  0.00  0.00    +0.000 A 
ATOM      6  N   UNL     1       3.592   7.448  17.587  0.00  0.00    +0.000 NA
ENDROOT
BRANCH   3   7
ATOM      7  C   UNL     1       3.168   3.859  19.837  0.00  0.00    +0.000 C 
ATOM      8  C   UNL     1       3.900   2.662  19.197  0.00  0.00    +0.000 C 
ATOM      9  C   UNL     1       3.053   1.829  18.237  0.00  0.00    +0.000 C 
ATOM     10  N   UNL     1       1.737   1.511  18.788  0.00  0.00    +0.000 NA
ATOM     11  C   UNL     1       1.002   2.748  19.042  0.00  0.00    +0.000 C 
ATOM     12  C   UNL     1       1.686   3.573  20.126  0.00  0.00    +0.000 C 
ATOM     13  H   UNL     1       1.845   0.989  19.658  0.00  0.00    +0.000 HD
ENDBRANCH   3   7
BRANCH   5  14
ATOM     14  C   UNL     1       1.824   8.412  18.902  0.00  0.00    +0.000 A 
ATOM     15  C   UNL     1       1.338   9.390  17.971  0.00  0.00    +0.000 A 
ATOM     16  C   UNL     1       0.527  10.331  18.563  0.00  0.00    +0.000 A 
ATOM     17  S   UNL     1       0.334  10.047  20.237  0.00  0.00    +0.000 S 
ATOM     18  C   UNL     1       1.338   8.662  20.173  0.00  0.00    +0.000 A 
ENDBRANCH   5  14
BRANCH   1  19
ATOM     19  O   UNL     1       5.214   6.541  16.286  0.00  0.00    +0.000 OA
ATOM     20  H   UNL     1       5.454   5.668  15.944  0.00  0.00    +0.000 HD
ENDBRANCH   1  19
TORSDOF 3
ENDMDL
MODEL 9
REMARK VINA RESULT:      -6.7      3.317      5.840
REMARK  Name = 
REMARK  3 active torsions:
REMARK  status: ('A' for Active; 'I' for Inactive)
REMARK    1  A    between atoms: O_1  and  C_2
REMARK    2  A    between atoms: C_4  and  C_5
REMARK    3  A    between atoms: C_12  and  C_13
REMARK                            x       y       z     vdW  Elec       q    Type
REMARK                         _______ _______ _______ _____ _____    ______ ____
ROOT
ATOM      1  C   UNL     1       3.205   3.785  19.827  0.00  0.00    +0.000 A 
ATOM      2  C   UNL     1       4.483   3.614  19.356  0.00  0.00    +0.000 A 
ATOM      3  C   UNL     1       5.059   4.712  18.738  0.00  0.00    +0.000 A 
ATOM      4  N   UNL     1       4.390   5.869  18.584  0.00  0.00    +0.000 NA
ATOM      5  C   UNL     1       3.141   5.924  19.094  0.00  0.00    +0.000 A 
ATOM      6  N   UNL     1       2.511   4.918  19.722  0.00  0.00    +0.000 NA
ENDROOT
BRANCH   3   7
ATOM      7  C   UNL     1       6.498   4.648  18.253  0.00  0.00    +0.000 C 
ATOM      8  C   UNL     1       7.315   5.891  18.661  0.00  0.00    +0.000 C 
ATOM      9  C   UNL     1       7.356   7.004  17.615  0.00  0.00    +0.000 C 
ATOM     10  N   UNL     1       7.647   6.498  16.275  0.00  0.00    +0.000 NA
ATOM     11  C   UNL     1       6.599   5.567  15.865  0.00  0.00    +0.000 C 
ATOM     12  C   UNL     1       6.596   4.328  16.754  0.00  0.00    +0.000 C 
ATOM     13  H   UNL     1       8.550   6.024  16.275  0.00  0.00    +0.000 HD
ENDBRANCH   3   7
BRANCH   5  14
ATOM     14  C   UNL     1       2.461   7.211  18.997  0.00  0.00    +0.000 A 
ATOM     15  C   UNL     1       2.405   8.063  17.844  0.00  0.00    +0.000 A 
ATOM     16  C   UNL     1       1.721   9.234  18.081  0.00  0.00    +0.000 A 
ATOM     17  S   UNL     1       1.134   9.317  19.684  0.00  0.00    +0.000 S 
ATOM     18  C   UNL     1       1.796   7.785  20.064  0.00  0.00    +0.000 A 
ENDBRANCH   5  14
BRANCH   1  19
ATOM     19  O   UNL     1       2.554   2.779  20.478  0.00  0.00    +0.000 OA
ATOM     20  H   UNL     1       3.116   2.454  21.196  0.00  0.00    +0.000 HD
ENDBRANCH   1  19
TORSDOF 3
ENDMDL
