MODEL 1
REMARK VINA RESULT:      -8.3      0.000      0.000
REMARK  Name = 
REMARK  6 active torsions:
REMARK  status: ('A' for Active; 'I' for Inactive)
REMARK    1  A    between atoms: C_1  and  N_2
REMARK    2  A    between atoms: N_5  and  C_6
REMARK    3  A    between atoms: C_6  and  C_7
REMARK    4  A    between atoms: C_7  and  C_8
REMARK    5  A    between atoms: N_10  and  C_11
REMARK    6  A    between atoms: N_19  and  C_20
REMARK                            x       y       z     vdW  Elec       q    Type
REMARK                         _______ _______ _______ _____ _____    ______ ____
ROOT
ATOM      1  C   UNL     1       2.006   6.342  20.160  0.00  0.00    +0.000 A 
ATOM      2  C   UNL     1       1.344   5.314  20.817  0.00  0.00    +0.000 A 
ATOM      3  C   UNL     1       1.539   3.994  20.414  0.00  0.00    +0.000 A 
ATOM      4  C   UNL     1       2.397   3.664  19.379  0.00  0.00    +0.000 A 
ATOM      5  N   UNL     1       2.565   2.372  19.095  0.00  0.00    +0.000 NA
ATOM      6  C   UNL     1       3.419   2.084  18.112  0.00  0.00    +0.000 A 
ATOM      7  N   UNL     1       4.114   2.966  17.392  0.00  0.00    +0.000 NA
ATOM      8  C   UNL     1       3.946   4.271  17.685  0.00  0.00    +0.000 A 
ATOM      9  N   UNL     1       4.729   5.226  16.976  0.00  0.00    +0.000 N 
ATOM     10  C   UNL     1       3.059   4.695  18.694  0.00  0.00    +0.000 A 
ATOM     11  C   UNL     1       2.815   6.039  19.061  0.00  0.00    +0.000 A 
ATOM     12  H   UNL     1       5.258   5.774  17.647  0.00  0.00    +0.000 HD
ENDROOT
BRANCH   9  13
ATOM     13  C   UNL     1       5.499   4.907  15.829  0.00  0.00    +0.000 A 
ATOM     14  C   UNL     1       6.871   5.201  15.790  0.00  0.00    +0.000 A 
ATOM     15  C   UNL     1       7.628   4.962  14.643  0.00  0.00    +0.000 A 
ATOM     16  C   UNL     1       7.024   4.412  13.518  0.00  0.00    +0.000 A 
ATOM     17  C   UNL     1       5.668   4.085  13.557  0.00  0.00    +0.000 A 
ATOM     18 BR   UNL     1       4.849   3.346  12.020  0.00  0.00    +0.000 Br
ATOM     19  C   UNL     1       4.907   4.317  14.706  0.00  0.00    +0.000 A 
ENDBRANCH   9  13
BRANCH   1  22
ATOM     20  C   UNL     1       0.897   8.313  21.206  0.00  0.00    +0.000 C 
ATOM     21  O   UNL     1      -0.206   7.831  21.450  0.00  0.00    +0.000 OA
ATOM     22  N   UNL     1       1.946   7.680  20.571  0.00  0.00    +0.000 N 
ATOM     23  H   UNL     1       2.842   8.165  20.649  0.00  0.00    +0.000 HD
BRANCH  20  24
ATOM     24  C   UNL     1       1.203   9.754  21.580  0.00  0.00    +0.000 C 
BRANCH  24  25
ATOM     25  C   UNL     1       0.077  10.736  21.238  0.00  0.00    +0.000 C 
BRANCH  25  30
ATOM     26  C   UNL     1      -3.223  11.305  17.702  0.00  0.00    +0.000 C 
ATOM     27  N   UNL     1      -1.910  11.703  18.193  0.00  0.00    +0.000 NA
ATOM     28  C   UNL     1      -1.004  10.547  18.258  0.00  0.00    +0.000 C 
ATOM     29  C   UNL     1       0.383  10.957  18.786  0.00  0.00    +0.000 C 
ATOM     30  N   UNL     1       0.379  11.639  20.104  0.00  0.00    +0.000 NA
ATOM     31  C   UNL     1      -0.604  12.752  20.046  0.00  0.00    +0.000 C 
ATOM     32  C   UNL     1      -2.001  12.357  19.510  0.00  0.00    +0.000 C 
ENDBRANCH  25  30
ENDBRANCH  24  25
ENDBRANCH  20  24
ENDBRANCH   1  22
TORSDOF 5
ENDMDL
MODEL 2
REMARK VINA RESULT:      -8.2      1.118      1.328
REMARK  Name = 
REMARK  6 active torsions:
REMARK  status: ('A' for Active; 'I' for Inactive)
REMARK    1  A    between atoms: C_1  and  N_2
REMARK    2  A    between atoms: N_5  and  C_6
REMARK    3  A    between atoms: C_6  and  C_7
REMARK    4  A    between atoms: C_7  and  C_8
REMARK    5  A    between atoms: N_10  and  C_11
REMARK    6  A    between atoms: N_19  and  C_20
REMARK                            x       y       z     vdW  Elec       q    Type
REMARK                         _______ _______ _______ _____ _____    ______ ____
ROOT
ATOM      1  C   UNL     1       2.002   6.332  20.159  0.00  0.00    +0.000 A 
ATOM      2  C   UNL     1       1.372   5.297  20.838  0.00  0.00    +0.000 A 
ATOM      3  C   UNL     1       1.597   3.976  20.454  0.00  0.00    +0.000 A 
ATOM      4  C   UNL     1       2.454   3.652  19.417  0.00  0.00    +0.000 A 
ATOM      5  N   UNL     1       2.653   2.361  19.151  0.00  0.00    +0.000 NA
ATOM      6  C   UNL     1       3.505   2.079  18.165  0.00  0.00    +0.000 A 
ATOM      7  N   UNL     1       4.172   2.967  17.426  0.00  0.00    +0.000 NA
ATOM      8  C   UNL     1       3.973   4.271  17.701  0.00  0.00    +0.000 A 
ATOM      9  N   UNL     1       4.726   5.235  16.970  0.00  0.00    +0.000 N 
ATOM     10  C   UNL     1       3.084   4.689  18.710  0.00  0.00    +0.000 A 
ATOM     11  C   UNL     1       2.810   6.032  19.059  0.00  0.00    +0.000 A 
ATOM     12  H   UNL     1       5.247   5.806  17.627  0.00  0.00    +0.000 HD
ENDROOT
BRANCH   9  13
ATOM     13  C   UNL     1       5.494   4.918  15.822  0.00  0.00    +0.000 A 
ATOM     14  C   UNL     1       6.859   5.239  15.768  0.00  0.00    +0.000 A 
ATOM     15  C   UNL     1       7.614   5.001  14.619  0.00  0.00    +0.000 A 
ATOM     16  C   UNL     1       7.012   4.425  13.505  0.00  0.00    +0.000 A 
ATOM     17  C   UNL     1       5.664   4.071  13.558  0.00  0.00    +0.000 A 
ATOM     18 BR   UNL     1       4.850   3.297  12.036  0.00  0.00    +0.000 Br
ATOM     19  C   UNL     1       4.906   4.302  14.709  0.00  0.00    +0.000 A 
ENDBRANCH   9  13
BRANCH   1  22
ATOM     20  C   UNL     1       0.843   8.295  21.165  0.00  0.00    +0.000 C 
ATOM     21  O   UNL     1      -0.253   7.795  21.405  0.00  0.00    +0.000 OA
ATOM     22  N   UNL     1       1.912   7.673  20.551  0.00  0.00    +0.000 N 
ATOM     23  H   UNL     1       2.797   8.178  20.631  0.00  0.00    +0.000 HD
BRANCH  20  24
ATOM     24  C   UNL     1       1.117   9.747  21.522  0.00  0.00    +0.000 C 
BRANCH  24  25
ATOM     25  C   UNL     1      -0.061  10.451  22.204  0.00  0.00    +0.000 C 
BRANCH  25  30
ATOM     26  C   UNL     1      -3.928  12.734  20.319  0.00  0.00    +0.000 C 
ATOM     27  N   UNL     1      -2.603  12.901  20.903  0.00  0.00    +0.000 NA
ATOM     28  C   UNL     1      -1.581  12.248  20.072  0.00  0.00    +0.000 C 
ATOM     29  C   UNL     1      -0.179  12.410  20.686  0.00  0.00    +0.000 C 
ATOM     30  N   UNL     1      -0.043  11.926  22.083  0.00  0.00    +0.000 NA
ATOM     31  C   UNL     1      -1.135  12.531  22.890  0.00  0.00    +0.000 C 
ATOM     32  C   UNL     1      -2.551  12.382  22.281  0.00  0.00    +0.000 C 
ENDBRANCH  25  30
ENDBRANCH  24  25
ENDBRANCH  20  24
ENDBRANCH   1  22
TORSDOF 5
ENDMDL
MODEL 3
REMARK VINA RESULT:      -8.1      1.762      2.431
REMARK  Name = 
REMARK  6 active torsions:
REMARK  status: ('A' for Active; 'I' for Inactive)
REMARK    1  A    between atoms: C_1  and  N_2
REMARK    2  A    between atoms: N_5  and  C_6
REMARK    3  A    between atoms: C_6  and  C_7
REMARK    4  A    between atoms: C_7  and  C_8
REMARK    5  A    between atoms: N_10  and  C_11
REMARK    6  A    between atoms: N_19  and  C_20
REMARK                            x       y       z     vdW  Elec       q    Type
REMARK                         _______ _______ _______ _____ _____    ______ ____
ROOT
ATOM      1  C   UNL     1       1.956   7.306  19.637  0.00  0.00    +0.000 A 
ATOM      2  C   UNL     1       1.604   6.468  20.687  0.00  0.00    +0.000 A 
ATOM      3  C   UNL     1       2.103   5.167  20.735  0.00  0.00    +0.000 A 
ATOM      4  C   UNL     1       2.965   4.679  19.768  0.00  0.00    +0.000 A 
ATOM      5  N   UNL     1       3.436   3.441  19.920  0.00  0.00    +0.000 NA
ATOM      6  C   UNL     1       4.287   3.008  18.988  0.00  0.00    +0.000 A 
ATOM      7  N   UNL     1       4.704   3.698  17.925  0.00  0.00    +0.000 NA
ATOM      8  C   UNL     1       4.230   4.951  17.778  0.00  0.00    +0.000 A 
ATOM      9  N   UNL     1       4.715   5.730  16.688  0.00  0.00    +0.000 N 
ATOM     10  C   UNL     1       3.315   5.509  18.691  0.00  0.00    +0.000 A 
ATOM     11  C   UNL     1       2.761   6.808  18.610  0.00  0.00    +0.000 A 
ATOM     12  H   UNL     1       5.122   6.584  17.056  0.00  0.00    +0.000 HD
ENDROOT
BRANCH   9  13
ATOM     13  C   UNL     1       5.484   5.192  15.626  0.00  0.00    +0.000 A 
ATOM     14  C   UNL     1       6.879   5.341  15.612  0.00  0.00    +0.000 A 
ATOM     15  C   UNL     1       7.645   4.882  14.540  0.00  0.00    +0.000 A 
ATOM     16  C   UNL     1       7.023   4.256  13.465  0.00  0.00    +0.000 A 
ATOM     17  C   UNL     1       5.640   4.073  13.482  0.00  0.00    +0.000 A 
ATOM     18 BR   UNL     1       4.799   3.229  12.013  0.00  0.00    +0.000 Br
ATOM     19  C   UNL     1       4.870   4.525  14.558  0.00  0.00    +0.000 A 
ENDBRANCH   9  13
BRANCH   1  22
ATOM     20  C   UNL     1       1.597   9.474  18.463  0.00  0.00    +0.000 C 
ATOM     21  O   UNL     1       2.015   9.182  17.346  0.00  0.00    +0.000 OA
ATOM     22  N   UNL     1       1.584   8.655  19.574  0.00  0.00    +0.000 N 
ATOM     23  H   UNL     1       1.009   8.998  20.346  0.00  0.00    +0.000 HD
BRANCH  20  24
ATOM     24  C   UNL     1       1.052  10.866  18.738  0.00  0.00    +0.000 C 
BRANCH  24  25
ATOM     25  C   UNL     1       0.074  10.928  19.917  0.00  0.00    +0.000 C 
BRANCH  25  30
ATOM     26  C   UNL     1      -2.853  12.399  23.521  0.00  0.00    +0.000 C 
ATOM     27  N   UNL     1      -1.472  12.192  23.106  0.00  0.00    +0.000 NA
ATOM     28  C   UNL     1      -1.140  13.041  21.953  0.00  0.00    +0.000 C 
ATOM     29  C   UNL     1       0.315  12.822  21.501  0.00  0.00    +0.000 C 
ATOM     30  N   UNL     1       0.670  11.416  21.180  0.00  0.00    +0.000 NA
ATOM     31  C   UNL     1       0.251  10.562  22.322  0.00  0.00    +0.000 C 
ATOM     32  C   UNL     1      -1.208  10.777  22.792  0.00  0.00    +0.000 C 
ENDBRANCH  25  30
ENDBRANCH  24  25
ENDBRANCH  20  24
ENDBRANCH   1  22
TORSDOF 5
ENDMDL
MODEL 4
REMARK VINA RESULT:      -8.0      1.581      2.213
REMARK  Name = 
REMARK  6 active torsions:
REMARK  status: ('A' for Active; 'I' for Inactive)
REMARK    1  A    between atoms: C_1  and  N_2
REMARK    2  A    between atoms: N_5  and  C_6
REMARK    3  A    between atoms: C_6  and  C_7
REMARK    4  A    between atoms: C_7  and  C_8
REMARK    5  A    between atoms: N_10  and  C_11
REMARK    6  A    between atoms: N_19  and  C_20
REMARK                            x       y       z     vdW  Elec       q    Type
REMARK                         _______ _______ _______ _____ _____    ______ ____
ROOT
ATOM      1  C   UNL     1       1.978   7.367  19.623  0.00  0.00    +0.000 A 
ATOM      2  C   UNL     1       1.573   6.521  20.646  0.00  0.00    +0.000 A 
ATOM      3  C   UNL     1       2.015   5.199  20.671  0.00  0.00    +0.000 A 
ATOM      4  C   UNL     1       2.873   4.697  19.708  0.00  0.00    +0.000 A 
ATOM      5  N   UNL     1       3.288   3.437  19.838  0.00  0.00    +0.000 NA
ATOM      6  C   UNL     1       4.136   2.990  18.909  0.00  0.00    +0.000 A 
ATOM      7  N   UNL     1       4.601   3.685  17.871  0.00  0.00    +0.000 NA
ATOM      8  C   UNL     1       4.183   4.961  17.745  0.00  0.00    +0.000 A 
ATOM      9  N   UNL     1       4.719   5.743  16.682  0.00  0.00    +0.000 N 
ATOM     10  C   UNL     1       3.276   5.536  18.657  0.00  0.00    +0.000 A 
ATOM     11  C   UNL     1       2.780   6.859  18.597  0.00  0.00    +0.000 A 
ATOM     12  H   UNL     1       5.156   6.570  17.077  0.00  0.00    +0.000 HD
ENDROOT
BRANCH   9  13
ATOM     13  C   UNL     1       5.483   5.197  15.621  0.00  0.00    +0.000 A 
ATOM     14  C   UNL     1       6.880   5.332  15.608  0.00  0.00    +0.000 A 
ATOM     15  C   UNL     1       7.641   4.866  14.535  0.00  0.00    +0.000 A 
ATOM     16  C   UNL     1       7.013   4.246  13.460  0.00  0.00    +0.000 A 
ATOM     17  C   UNL     1       5.629   4.077  13.477  0.00  0.00    +0.000 A 
ATOM     18 BR   UNL     1       4.780   3.241  12.008  0.00  0.00    +0.000 Br
ATOM     19  C   UNL     1       4.863   4.537  14.553  0.00  0.00    +0.000 A 
ENDBRANCH   9  13
BRANCH   1  22
ATOM     20  C   UNL     1       1.619   9.549  18.474  0.00  0.00    +0.000 C 
ATOM     21  O   UNL     1       1.926   9.237  17.326  0.00  0.00    +0.000 OA
ATOM     22  N   UNL     1       1.665   8.731  19.586  0.00  0.00    +0.000 N 
ATOM     23  H   UNL     1       1.175   9.102  20.402  0.00  0.00    +0.000 HD
BRANCH  20  24
ATOM     24  C   UNL     1       1.166  10.965  18.789  0.00  0.00    +0.000 C 
BRANCH  24  25
ATOM     25  C   UNL     1       0.885  11.210  20.276  0.00  0.00    +0.000 C 
BRANCH  25  30
ATOM     26  C   UNL     1      -2.054  14.650  22.079  0.00  0.00    +0.000 C 
ATOM     27  N   UNL     1      -1.932  13.242  21.722  0.00  0.00    +0.000 NA
ATOM     28  C   UNL     1      -0.885  12.589  22.522  0.00  0.00    +0.000 C 
ATOM     29  C   UNL     1      -0.743  11.104  22.145  0.00  0.00    +0.000 C 
ATOM     30  N   UNL     1      -0.482  10.841  20.708  0.00  0.00    +0.000 NA
ATOM     31  C   UNL     1      -1.499  11.577  19.912  0.00  0.00    +0.000 C 
ATOM     32  C   UNL     1      -1.659  13.071  20.285  0.00  0.00    +0.000 C 
ENDBRANCH  25  30
ENDBRANCH  24  25
ENDBRANCH  20  24
ENDBRANCH   1  22
TORSDOF 5
ENDMDL
MODEL 5
REMARK VINA RESULT:      -7.9      0.971      1.666
REMARK  Name = 
REMARK  6 active torsions:
REMARK  status: ('A' for Active; 'I' for Inactive)
REMARK    1  A    between atoms: C_1  and  N_2
REMARK    2  A    between atoms: N_5  and  C_6
REMARK    3  A    between atoms: C_6  and  C_7
REMARK    4  A    between atoms: C_7  and  C_8
REMARK    5  A    between atoms: N_10  and  C_11
REMARK    6  A    between atoms: N_19  and  C_20
REMARK                            x       y       z     vdW  Elec       q    Type
REMARK                         _______ _______ _______ _____ _____    ______ ____
ROOT
ATOM      1  C   UNL     1       1.992   6.528  20.138  0.00  0.00    +0.000 A 
ATOM      2  C   UNL     1       1.367   5.520  20.859  0.00  0.00    +0.000 A 
ATOM      3  C   UNL     1       1.597   4.185  20.530  0.00  0.00    +0.000 A 
ATOM      4  C   UNL     1       2.454   3.822  19.506  0.00  0.00    +0.000 A 
ATOM      5  N   UNL     1       2.658   2.521  19.294  0.00  0.00    +0.000 NA
ATOM      6  C   UNL     1       3.511   2.202  18.319  0.00  0.00    +0.000 A 
ATOM      7  N   UNL     1       4.173   3.062  17.544  0.00  0.00    +0.000 NA
ATOM      8  C   UNL     1       3.969   4.376  17.764  0.00  0.00    +0.000 A 
ATOM      9  N   UNL     1       4.718   5.312  16.993  0.00  0.00    +0.000 N 
ATOM     10  C   UNL     1       3.080   4.831  18.756  0.00  0.00    +0.000 A 
ATOM     11  C   UNL     1       2.800   6.186  19.050  0.00  0.00    +0.000 A 
ATOM     12  H   UNL     1       5.237   5.911  17.626  0.00  0.00    +0.000 HD
ENDROOT
BRANCH   9  13
ATOM     13  C   UNL     1       5.486   4.950  15.859  0.00  0.00    +0.000 A 
ATOM     14  C   UNL     1       6.864   5.213  15.820  0.00  0.00    +0.000 A 
ATOM     15  C   UNL     1       7.622   4.931  14.683  0.00  0.00    +0.000 A 
ATOM     16  C   UNL     1       7.011   4.369  13.567  0.00  0.00    +0.000 A 
ATOM     17  C   UNL     1       5.648   4.072  13.606  0.00  0.00    +0.000 A 
ATOM     18 BR   UNL     1       4.821   3.317  12.081  0.00  0.00    +0.000 Br
ATOM     19  C   UNL     1       4.886   4.348  14.745  0.00  0.00    +0.000 A 
ENDBRANCH   9  13
BRANCH   1  22
ATOM     20  C   UNL     1       0.841   8.519  21.097  0.00  0.00    +0.000 C 
ATOM     21  O   UNL     1      -0.239   8.017  21.395  0.00  0.00    +0.000 OA
ATOM     22  N   UNL     1       1.897   7.884  20.473  0.00  0.00    +0.000 N 
ATOM     23  H   UNL     1       2.777   8.402  20.502  0.00  0.00    +0.000 HD
BRANCH  20  24
ATOM     24  C   UNL     1       1.107   9.989  21.380  0.00  0.00    +0.000 C 
BRANCH  24  25
ATOM     25  C   UNL     1      -0.001  10.926  20.886  0.00  0.00    +0.000 C 
BRANCH  25  30
ATOM     26  C   UNL     1       0.534  15.581  19.558  0.00  0.00    +0.000 C 
ATOM     27  N   UNL     1       0.423  14.205  19.091  0.00  0.00    +0.000 NA
ATOM     28  C   UNL     1      -0.876  13.629  19.467  0.00  0.00    +0.000 C 
ATOM     29  C   UNL     1      -0.998  12.172  18.986  0.00  0.00    +0.000 C 
ATOM     30  N   UNL     1       0.082  11.264  19.447  0.00  0.00    +0.000 NA
ATOM     31  C   UNL     1       1.387  11.901  19.134  0.00  0.00    +0.000 C 
ATOM     32  C   UNL     1       1.522  13.370  19.605  0.00  0.00    +0.000 C 
ENDBRANCH  25  30
ENDBRANCH  24  25
ENDBRANCH  20  24
ENDBRANCH   1  22
TORSDOF 5
ENDMDL
MODEL 6
REMARK VINA RESULT:      -7.9      1.202      1.672
REMARK  Name = 
REMARK  6 active torsions:
REMARK  status: ('A' for Active; 'I' for Inactive)
REMARK    1  A    between atoms: C_1  and  N_2
REMARK    2  A    between atoms: N_5  and  C_6
REMARK    3  A    between atoms: C_6  and  C_7
REMARK    4  A    between atoms: C_7  and  C_8
REMARK    5  A    between atoms: N_10  and  C_11
REMARK    6  A    between atoms: N_19  and  C_20
REMARK                            x       y       z     vdW  Elec       q    Type
REMARK                         _______ _______ _______ _____ _____    ______ ____
ROOT
ATOM      1  C   UNL     1       1.716   5.348  20.476  0.00  0.00    +0.000 A 
ATOM      2  C   UNL     1       1.124   4.191  20.964  0.00  0.00    +0.000 A 
ATOM      3  C   UNL     1       1.458   2.954  20.414  0.00  0.00    +0.000 A 
ATOM      4  C   UNL     1       2.388   2.834  19.396  0.00  0.00    +0.000 A 
ATOM      5  N   UNL     1       2.687   1.608  18.965  0.00  0.00    +0.000 NA
ATOM      6  C   UNL     1       3.607   1.522  18.003  0.00  0.00    +0.000 A 
ATOM      7  N   UNL     1       4.249   2.545  17.437  0.00  0.00    +0.000 NA
ATOM      8  C   UNL     1       3.948   3.783  17.879  0.00  0.00    +0.000 A 
ATOM      9  N   UNL     1       4.671   4.885  17.336  0.00  0.00    +0.000 N 
ATOM     10  C   UNL     1       2.982   3.997  18.880  0.00  0.00    +0.000 A 
ATOM     11  C   UNL     1       2.599   5.258  19.396  0.00  0.00    +0.000 A 
ATOM     12  H   UNL     1       5.116   5.386  18.098  0.00  0.00    +0.000 HD
ENDROOT
BRANCH   9  13
ATOM     13  C   UNL     1       5.517   4.781  16.204  0.00  0.00    +0.000 A 
ATOM     14  C   UNL     1       6.823   5.292  16.245  0.00  0.00    +0.000 A 
ATOM     15  C   UNL     1       7.645   5.265  15.117  0.00  0.00    +0.000 A 
ATOM     16  C   UNL     1       7.172   4.715  13.931  0.00  0.00    +0.000 A 
ATOM     17  C   UNL     1       5.887   4.174  13.888  0.00  0.00    +0.000 A 
ATOM     18 BR   UNL     1       5.246   3.436  12.268  0.00  0.00    +0.000 Br
ATOM     19  C   UNL     1       5.063   4.193  15.017  0.00  0.00    +0.000 A 
ENDBRANCH   9  13
BRANCH   1  22
ATOM     20  C   UNL     1       1.622   7.837  20.417  0.00  0.00    +0.000 C 
ATOM     21  O   UNL     1       1.993   8.037  19.264  0.00  0.00    +0.000 OA
ATOM     22  N   UNL     1       1.516   6.612  21.045  0.00  0.00    +0.000 N 
ATOM     23  H   UNL     1       0.993   6.631  21.922  0.00  0.00    +0.000 HD
BRANCH  20  24
ATOM     24  C   UNL     1       1.258   9.006  21.318  0.00  0.00    +0.000 C 
BRANCH  24  25
ATOM     25  C   UNL     1       0.954  10.303  20.558  0.00  0.00    +0.000 C 
BRANCH  25  30
ATOM     26  C   UNL     1      -0.459  14.785  19.279  0.00  0.00    +0.000 C 
ATOM     27  N   UNL     1      -0.899  13.431  19.590  0.00  0.00    +0.000 NA
ATOM     28  C   UNL     1      -0.547  13.071  20.971  0.00  0.00    +0.000 C 
ATOM     29  C   UNL     1      -1.000  11.638  21.305  0.00  0.00    +0.000 C 
ATOM     30  N   UNL     1      -0.489  10.587  20.389  0.00  0.00    +0.000 NA
ATOM     31  C   UNL     1      -0.780  11.008  18.994  0.00  0.00    +0.000 C 
ATOM     32  C   UNL     1      -0.337  12.449  18.645  0.00  0.00    +0.000 C 
ENDBRANCH  25  30
ENDBRANCH  24  25
ENDBRANCH  20  24
ENDBRANCH   1  22
TORSDOF 5
ENDMDL
MODEL 7
REMARK VINA RESULT:      -7.8      4.268      9.828
REMARK  Name = 
REMARK  6 active torsions:
REMARK  status: ('A' for Active; 'I' for Inactive)
REMARK    1  A    between atoms: C_1  and  N_2
REMARK    2  A    between atoms: N_5  and  C_6
REMARK    3  A    between atoms: C_6  and  C_7
REMARK    4  A    between atoms: C_7  and  C_8
REMARK    5  A    between atoms: N_10  and  C_11
REMARK    6  A    between atoms: N_19  and  C_20
REMARK                            x       y       z     vdW  Elec       q    Type
REMARK                         _______ _______ _______ _____ _____    ______ ____
ROOT
ATOM      1  C   UNL     1       1.065   9.032  20.830  0.00  0.00    +0.000 A 
ATOM      2  C   UNL     1       0.266   8.550  21.858  0.00  0.00    +0.000 A 
ATOM      3  C   UNL     1      -0.473   9.438  22.638  0.00  0.00    +0.000 A 
ATOM      4  C   UNL     1      -0.453  10.803  22.409  0.00  0.00    +0.000 A 
ATOM      5  N   UNL     1      -1.231  11.575  23.169  0.00  0.00    +0.000 NA
ATOM      6  C   UNL     1      -1.211  12.883  22.907  0.00  0.00    +0.000 A 
ATOM      7  N   UNL     1      -0.489  13.483  21.960  0.00  0.00    +0.000 NA
ATOM      8  C   UNL     1       0.293  12.699  21.190  0.00  0.00    +0.000 A 
ATOM      9  N   UNL     1       1.021  13.310  20.129  0.00  0.00    +0.000 N 
ATOM     10  C   UNL     1       0.365  11.306  21.385  0.00  0.00    +0.000 A 
ATOM     11  C   UNL     1       1.162  10.412  20.632  0.00  0.00    +0.000 A 
ATOM     12  H   UNL     1       0.763  12.859  19.257  0.00  0.00    +0.000 HD
ENDROOT
BRANCH   9  13
ATOM     13  C   UNL     1       1.153  14.713  19.980  0.00  0.00    +0.000 A 
ATOM     14  C   UNL     1       2.017  15.438  20.815  0.00  0.00    +0.000 A 
ATOM     15  C   UNL     1       2.105  16.828  20.732  0.00  0.00    +0.000 A 
ATOM     16  C   UNL     1       1.333  17.515  19.801  0.00  0.00    +0.000 A 
ATOM     17  C   UNL     1       0.494  16.802  18.944  0.00  0.00    +0.000 A 
ATOM     18 BR   UNL     1      -0.561  17.743  17.687  0.00  0.00    +0.000 Br
ATOM     19  C   UNL     1       0.408  15.409  19.019  0.00  0.00    +0.000 A 
ENDBRANCH   9  13
BRANCH   1  22
ATOM     20  C   UNL     1       1.937   8.399  18.583  0.00  0.00    +0.000 C 
ATOM     21  O   UNL     1       1.462   9.308  17.908  0.00  0.00    +0.000 OA
ATOM     22  N   UNL     1       1.751   8.199  19.937  0.00  0.00    +0.000 N 
ATOM     23  H   UNL     1       2.391   7.522  20.355  0.00  0.00    +0.000 HD
BRANCH  20  24
ATOM     24  C   UNL     1       2.801   7.331  17.932  0.00  0.00    +0.000 C 
BRANCH  24  25
ATOM     25  C   UNL     1       3.171   6.176  18.870  0.00  0.00    +0.000 C 
BRANCH  25  30
ATOM     26  C   UNL     1       3.735   1.360  18.412  0.00  0.00    +0.000 C 
ATOM     27  N   UNL     1       2.826   2.430  18.803  0.00  0.00    +0.000 NA
ATOM     28  C   UNL     1       2.533   3.310  17.662  0.00  0.00    +0.000 C 
ATOM     29  C   UNL     1       1.581   4.449  18.068  0.00  0.00    +0.000 C 
ATOM     30  N   UNL     1       2.043   5.279  19.208  0.00  0.00    +0.000 NA
ATOM     31  C   UNL     1       2.413   4.369  20.323  0.00  0.00    +0.000 C 
ATOM     32  C   UNL     1       3.365   3.214  19.928  0.00  0.00    +0.000 C 
ENDBRANCH  25  30
ENDBRANCH  24  25
ENDBRANCH  20  24
ENDBRANCH   1  22
TORSDOF 5
ENDMDL
MODEL 8
REMARK VINA RESULT:      -7.8      4.304      9.878
REMARK  Name = 
REMARK  6 active torsions:
REMARK  status: ('A' for Active; 'I' for Inactive)
REMARK    1  A    between atoms: C_1  and  N_2
REMARK    2  A    between atoms: N_5  and  C_6
REMARK    3  A    between atoms: C_6  and  C_7
REMARK    4  A    between atoms: C_7  and  C_8
REMARK    5  A    between atoms: N_10  and  C_11
REMARK    6  A    between atoms: N_19  and  C_20
REMARK                            x       y       z     vdW  Elec       q    Type
REMARK                         _______ _______ _______ _____ _____    ______ ____
ROOT
ATOM      1  C   UNL     1       1.090   9.003  20.768  0.00  0.00    +0.000 A 
ATOM      2  C   UNL     1       0.355   8.497  21.831  0.00  0.00    +0.000 A 
ATOM      3  C   UNL     1      -0.441   9.350  22.594  0.00  0.00    +0.000 A 
ATOM      4  C   UNL     1      -0.541  10.702  22.313  0.00  0.00    +0.000 A 
ATOM      5  N   UNL     1      -1.367  11.435  23.060  0.00  0.00    +0.000 NA
ATOM      6  C   UNL     1      -1.464  12.728  22.748  0.00  0.00    +0.000 A 
ATOM      7  N   UNL     1      -0.814  13.349  21.763  0.00  0.00    +0.000 NA
ATOM      8  C   UNL     1       0.016  12.604  21.006  0.00  0.00    +0.000 A 
ATOM      9  N   UNL     1       0.669  13.231  19.906  0.00  0.00    +0.000 N 
ATOM     10  C   UNL     1       0.210  11.231  21.252  0.00  0.00    +0.000 A 
ATOM     11  C   UNL     1       1.065  10.378  20.515  0.00  0.00    +0.000 A 
ATOM     12  H   UNL     1       0.432  12.726  19.058  0.00  0.00    +0.000 HD
ENDROOT
BRANCH   9  13
ATOM     13  C   UNL     1       0.678  14.633  19.701  0.00  0.00    +0.000 A 
ATOM     14  C   UNL     1      -0.272  15.235  18.860  0.00  0.00    +0.000 A 
ATOM     15  C   UNL     1      -0.233  16.603  18.588  0.00  0.00    +0.000 A 
ATOM     16  C   UNL     1       0.754  17.394  19.165  0.00  0.00    +0.000 A 
ATOM     17  C   UNL     1       1.683  16.814  20.029  0.00  0.00    +0.000 A 
ATOM     18 BR   UNL     1       3.030  17.894  20.803  0.00  0.00    +0.000 Br
ATOM     19  C   UNL     1       1.644  15.444  20.309  0.00  0.00    +0.000 A 
ENDBRANCH   9  13
BRANCH   1  22
ATOM     20  C   UNL     1       1.982   8.367  18.530  0.00  0.00    +0.000 C 
ATOM     21  O   UNL     1       1.432   9.215  17.833  0.00  0.00    +0.000 OA
ATOM     22  N   UNL     1       1.827   8.197  19.891  0.00  0.00    +0.000 N 
ATOM     23  H   UNL     1       2.521   7.583  20.321  0.00  0.00    +0.000 HD
BRANCH  20  24
ATOM     24  C   UNL     1       2.916   7.347  17.900  0.00  0.00    +0.000 C 
BRANCH  24  25
ATOM     25  C   UNL     1       3.256   6.167  18.818  0.00  0.00    +0.000 C 
BRANCH  25  30
ATOM     26  C   UNL     1       3.722   1.335  18.431  0.00  0.00    +0.000 C 
ATOM     27  N   UNL     1       2.830   2.429  18.793  0.00  0.00    +0.000 NA
ATOM     28  C   UNL     1       2.576   3.299  17.636  0.00  0.00    +0.000 C 
ATOM     29  C   UNL     1       1.642   4.464  18.012  0.00  0.00    +0.000 C 
ATOM     30  N   UNL     1       2.103   5.299  19.149  0.00  0.00    +0.000 NA
ATOM     31  C   UNL     1       2.436   4.396  20.281  0.00  0.00    +0.000 C 
ATOM     32  C   UNL     1       3.368   3.215  19.917  0.00  0.00    +0.000 C 
ENDBRANCH  25  30
ENDBRANCH  24  25
ENDBRANCH  20  24
ENDBRANCH   1  22
TORSDOF 5
ENDMDL
MODEL 9
REMARK VINA RESULT:      -7.8      1.066      1.211
REMARK  Name = 
REMARK  6 active torsions:
REMARK  status: ('A' for Active; 'I' for Inactive)
REMARK    1  A    between atoms: C_1  and  N_2
REMARK    2  A    between atoms: N_5  and  C_6
REMARK    3  A    between atoms: C_6  and  C_7
REMARK    4  A    between atoms: C_7  and  C_8
REMARK    5  A    between atoms: N_10  and  C_11
REMARK    6  A    between atoms: N_19  and  C_20
REMARK                            x       y       z     vdW  Elec       q    Type
REMARK                         _______ _______ _______ _____ _____    ______ ____
ROOT
ATOM      1  C   UNL     1       1.968   7.330  19.678  0.00  0.00    +0.000 A 
ATOM      2  C   UNL     1       1.562   6.473  20.692  0.00  0.00    +0.000 A 
ATOM      3  C   UNL     1       2.004   5.151  20.703  0.00  0.00    +0.000 A 
ATOM      4  C   UNL     1       2.862   4.659  19.735  0.00  0.00    +0.000 A 
ATOM      5  N   UNL     1       3.278   3.398  19.851  0.00  0.00    +0.000 NA
ATOM      6  C   UNL     1       4.126   2.961  18.919  0.00  0.00    +0.000 A 
ATOM      7  N   UNL     1       4.591   3.668  17.888  0.00  0.00    +0.000 NA
ATOM      8  C   UNL     1       4.173   4.944  17.776  0.00  0.00    +0.000 A 
ATOM      9  N   UNL     1       4.710   5.738  16.721  0.00  0.00    +0.000 N 
ATOM     10  C   UNL     1       3.266   5.509  18.693  0.00  0.00    +0.000 A 
ATOM     11  C   UNL     1       2.770   6.834  18.647  0.00  0.00    +0.000 A 
ATOM     12  H   UNL     1       5.146   6.560  17.125  0.00  0.00    +0.000 HD
ENDROOT
BRANCH   9  13
ATOM     13  C   UNL     1       5.474   5.204  15.654  0.00  0.00    +0.000 A 
ATOM     14  C   UNL     1       6.871   5.343  15.641  0.00  0.00    +0.000 A 
ATOM     15  C   UNL     1       7.632   4.888  14.564  0.00  0.00    +0.000 A 
ATOM     16  C   UNL     1       7.005   4.275  13.484  0.00  0.00    +0.000 A 
ATOM     17  C   UNL     1       5.621   4.102  13.501  0.00  0.00    +0.000 A 
ATOM     18 BR   UNL     1       4.773   3.277  12.025  0.00  0.00    +0.000 Br
ATOM     19  C   UNL     1       4.855   4.550  14.581  0.00  0.00    +0.000 A 
ENDBRANCH   9  13
BRANCH   1  22
ATOM     20  C   UNL     1       0.686   9.343  20.396  0.00  0.00    +0.000 C 
ATOM     21  O   UNL     1      -0.130   8.818  21.149  0.00  0.00    +0.000 OA
ATOM     22  N   UNL     1       1.655   8.695  19.656  0.00  0.00    +0.000 N 
ATOM     23  H   UNL     1       2.366   9.312  19.260  0.00  0.00    +0.000 HD
BRANCH  20  24
ATOM     24  C   UNL     1       0.671  10.847  20.179  0.00  0.00    +0.000 C 
BRANCH  24  25
ATOM     25  C   UNL     1      -0.631  11.525  20.623  0.00  0.00    +0.000 C 
BRANCH  25  30
ATOM     26  C   UNL     1      -4.677  11.080  17.949  0.00  0.00    +0.000 C 
ATOM     27  N   UNL     1      -3.578  11.961  18.325  0.00  0.00    +0.000 NA
ATOM     28  C   UNL     1      -2.287  11.387  17.917  0.00  0.00    +0.000 C 
ATOM     29  C   UNL     1      -1.119  12.306  18.320  0.00  0.00    +0.000 C 
ATOM     30  N   UNL     1      -1.057  12.651  19.762  0.00  0.00    +0.000 NA
ATOM     31  C   UNL     1      -2.394  13.149  20.176  0.00  0.00    +0.000 C 
ATOM     32  C   UNL     1      -3.580  12.239  19.772  0.00  0.00    +0.000 C 
ENDBRANCH  25  30
ENDBRANCH  24  25
ENDBRANCH  20  24
ENDBRANCH   1  22
TORSDOF 5
ENDMDL
