MODEL 1
REMARK VINA RESULT:      -8.1      0.000      0.000
REMARK  Name = 
REMARK  14 active torsions:
REMARK  status: ('A' for Active; 'I' for Inactive)
REMARK    1  A    between atoms: C_1  and  C_2
REMARK    2  A    between atoms: C_2  and  C_3
REMARK    3  A    between atoms: C_6  and  C_7
REMARK    4  A    between atoms: C_9  and  C_10
REMARK    5  A    between atoms: C_11  and  C_12
REMARK    6  A    between atoms: C_12  and  C_13
REMARK    7  A    between atoms: C_12  and  N_14
REMARK    8  A    between atoms: N_14  and  O_15
REMARK    9  A    between atoms: C_16  and  C_18
REMARK   10  A    between atoms: C_18  and  C_19
REMARK   11  A    between atoms: C_18  and  C_20
REMARK   12  A    between atoms: N_22  and  C_23
REMARK   13  A    between atoms: C_26  and  O_27
REMARK   14  A    between atoms: O_27  and  C_28
REMARK                            x       y       z     vdW  Elec       q    Type
REMARK                         _______ _______ _______ _____ _____    ______ ____
ROOT
ATOM      1  C   UNL     1       5.718   6.157  17.477  0.00  0.00    +0.000 A 
ATOM      2  C   UNL     1       6.166   7.258  18.192  0.00  0.00    +0.000 A 
ATOM      3  C   UNL     1       7.309   7.725  17.514  0.00  0.00    +0.000 A 
ATOM      4  N   UNL     1       7.602   6.969  16.450  0.00  0.00    +0.000 NA
ATOM      5  N   UNL     1       6.560   6.077  16.364  0.00  0.00    +0.000 N 
ENDROOT
BRANCH   1   9
ATOM      6  C   UNL     1       2.628   3.364  18.525  0.00  0.00    +0.000 A 
ATOM      7  C   UNL     1       3.974   3.029  18.707  0.00  0.00    +0.000 A 
ATOM      8  C   UNL     1       4.979   3.945  18.385  0.00  0.00    +0.000 A 
ATOM      9  C   UNL     1       4.662   5.182  17.814  0.00  0.00    +0.000 A 
ATOM     10  C   UNL     1       3.314   5.467  17.559  0.00  0.00    +0.000 A 
ATOM     11  C   UNL     1       2.302   4.585  17.941  0.00  0.00    +0.000 A 
BRANCH   6  13
ATOM     12  C   UNL     1       1.391   2.800  20.582  0.00  0.00    +0.000 C 
ATOM     13  C   UNL     1       1.534   2.498  19.094  0.00  0.00    +0.000 C 
ENDBRANCH   6  13
ENDBRANCH   1   9
BRANCH   5  14
ATOM     14  C   UNL     1       6.406   5.222  15.222  0.00  0.00    +0.000 A 
ATOM     15  C   UNL     1       5.237   4.488  15.046  0.00  0.00    +0.000 A 
ATOM     16  C   UNL     1       5.091   3.681  13.906  0.00  0.00    +0.000 A 
ATOM     17  C   UNL     1       6.089   3.621  12.923  0.00  0.00    +0.000 A 
ATOM     18  C   UNL     1       7.254   4.355  13.093  0.00  0.00    +0.000 A 
ATOM     19  C   UNL     1       7.419   5.142  14.243  0.00  0.00    +0.000 A 
BRANCH  17  20
ATOM     20  O   UNL     1       5.824   2.788  11.871  0.00  0.00    +0.000 OA
ATOM     21  C   UNL     1       4.517   2.868  11.306  0.00  0.00    +0.000 C 
ENDBRANCH  17  20
ENDBRANCH   5  14
BRANCH   3  22
ATOM     22  C   UNL     1       8.148   8.861  17.891  0.00  0.00    +0.000 C 
ATOM     23  C   UNL     1       8.753   9.829  18.231  0.00  0.00    +0.000 C 
BRANCH  23  24
ATOM     24  C   UNL     1       9.512  11.073  18.637  0.00  0.00    +0.000 C 
ATOM     25  C   UNL     1      10.859  11.142  17.913  0.00  0.00    +0.000 C 
BRANCH  24  26
ATOM     26  N   UNL     1       8.717  12.319  18.461  0.00  0.00    +0.000 N 
ATOM     27  C   UNL     1       8.811  13.381  19.354  0.00  0.00    +0.000 C 
ATOM     28  O   UNL     1       9.533  13.317  20.351  0.00  0.00    +0.000 OA
BRANCH  27  29
ATOM     29  C   UNL     1       7.954  14.633  19.092  0.00  0.00    +0.000 C 
ATOM     30  C   UNL     1       7.077  14.962  20.299  0.00  0.00    +0.000 C 
ATOM     31  C   UNL     1       8.849  15.851  18.799  0.00  0.00    +0.000 C 
ENDBRANCH  27  29
BRANCH  26  32
ATOM     32  O   UNL     1       8.243  12.597  17.164  0.00  0.00    +0.000 OA
ATOM     33  H   UNL     1       8.110  13.566  17.176  0.00  0.00    +0.000 HD
ENDBRANCH  26  32
ENDBRANCH  24  26
ENDBRANCH  23  24
ENDBRANCH   3  22
TORSDOF 9
ENDMDL
MODEL 2
REMARK VINA RESULT:      -7.9      7.311     11.572
REMARK  Name = 
REMARK  14 active torsions:
REMARK  status: ('A' for Active; 'I' for Inactive)
REMARK    1  A    between atoms: C_1  and  C_2
REMARK    2  A    between atoms: C_2  and  C_3
REMARK    3  A    between atoms: C_6  and  C_7
REMARK    4  A    between atoms: C_9  and  C_10
REMARK    5  A    between atoms: C_11  and  C_12
REMARK    6  A    between atoms: C_12  and  C_13
REMARK    7  A    between atoms: C_12  and  N_14
REMARK    8  A    between atoms: N_14  and  O_15
REMARK    9  A    between atoms: C_16  and  C_18
REMARK   10  A    between atoms: C_18  and  C_19
REMARK   11  A    between atoms: C_18  and  C_20
REMARK   12  A    between atoms: N_22  and  C_23
REMARK   13  A    between atoms: C_26  and  O_27
REMARK   14  A    between atoms: O_27  and  C_28
REMARK                            x       y       z     vdW  Elec       q    Type
REMARK                         _______ _______ _______ _____ _____    ______ ____
ROOT
ATOM      1  C   UNL     1      -0.386  11.236  20.427  0.00  0.00    +0.000 A 
ATOM      2  C   UNL     1       0.004   9.913  20.273  0.00  0.00    +0.000 A 
ATOM      3  C   UNL     1       1.034   9.918  19.313  0.00  0.00    +0.000 A 
ATOM      4  N   UNL     1       1.283  11.149  18.854  0.00  0.00    +0.000 NA
ATOM      5  N   UNL     1       0.490  11.969  19.621  0.00  0.00    +0.000 N 
ENDROOT
BRANCH   1   9
ATOM      6  C   UNL     1      -3.731  12.802  22.618  0.00  0.00    +0.000 A 
ATOM      7  C   UNL     1      -3.715  12.855  21.220  0.00  0.00    +0.000 A 
ATOM      8  C   UNL     1      -2.636  12.328  20.506  0.00  0.00    +0.000 A 
ATOM      9  C   UNL     1      -1.526  11.800  21.175  0.00  0.00    +0.000 A 
ATOM     10  C   UNL     1      -1.521  11.833  22.575  0.00  0.00    +0.000 A 
ATOM     11  C   UNL     1      -2.624  12.296  23.294  0.00  0.00    +0.000 A 
BRANCH   6  13
ATOM     12  C   UNL     1      -4.950  12.395  24.722  0.00  0.00    +0.000 C 
ATOM     13  C   UNL     1      -4.982  13.134  23.389  0.00  0.00    +0.000 C 
ENDBRANCH   6  13
ENDBRANCH   1   9
BRANCH   5  14
ATOM     14  C   UNL     1       0.626  13.397  19.567  0.00  0.00    +0.000 A 
ATOM     15  C   UNL     1      -0.082  14.135  18.624  0.00  0.00    +0.000 A 
ATOM     16  C   UNL     1       0.039  15.534  18.606  0.00  0.00    +0.000 A 
ATOM     17  C   UNL     1       0.836  16.208  19.542  0.00  0.00    +0.000 A 
ATOM     18  C   UNL     1       1.539  15.475  20.488  0.00  0.00    +0.000 A 
ATOM     19  C   UNL     1       1.446  14.075  20.493  0.00  0.00    +0.000 A 
BRANCH  17  20
ATOM     20  O   UNL     1       0.873  17.569  19.406  0.00  0.00    +0.000 OA
ATOM     21  C   UNL     1       1.853  18.262  20.177  0.00  0.00    +0.000 C 
ENDBRANCH  17  20
ENDBRANCH   5  14
BRANCH   3  22
ATOM     22  C   UNL     1       1.759   8.757  18.801  0.00  0.00    +0.000 C 
ATOM     23  C   UNL     1       2.267   7.775  18.358  0.00  0.00    +0.000 C 
BRANCH  23  24
ATOM     24  C   UNL     1       2.904   6.512  17.822  0.00  0.00    +0.000 C 
ATOM     25  C   UNL     1       4.338   6.785  17.363  0.00  0.00    +0.000 C 
BRANCH  24  26
ATOM     26  N   UNL     1       2.830   5.374  18.780  0.00  0.00    +0.000 N 
ATOM     27  C   UNL     1       2.099   4.225  18.500  0.00  0.00    +0.000 C 
ATOM     28  O   UNL     1       1.451   4.118  17.456  0.00  0.00    +0.000 OA
BRANCH  27  29
ATOM     29  C   UNL     1       2.081   3.097  19.547  0.00  0.00    +0.000 C 
ATOM     30  C   UNL     1       1.084   3.400  20.665  0.00  0.00    +0.000 C 
ATOM     31  C   UNL     1       1.685   1.760  18.896  0.00  0.00    +0.000 C 
ENDBRANCH  27  29
BRANCH  26  32
ATOM     32  O   UNL     1       3.860   5.275  19.735  0.00  0.00    +0.000 OA
ATOM     33  H   UNL     1       3.552   4.560  20.326  0.00  0.00    +0.000 HD
ENDBRANCH  26  32
ENDBRANCH  24  26
ENDBRANCH  23  24
ENDBRANCH   3  22
TORSDOF 9
ENDMDL
MODEL 3
REMARK VINA RESULT:      -7.8      7.297     11.495
REMARK  Name = 
REMARK  14 active torsions:
REMARK  status: ('A' for Active; 'I' for Inactive)
REMARK    1  A    between atoms: C_1  and  C_2
REMARK    2  A    between atoms: C_2  and  C_3
REMARK    3  A    between atoms: C_6  and  C_7
REMARK    4  A    between atoms: C_9  and  C_10
REMARK    5  A    between atoms: C_11  and  C_12
REMARK    6  A    between atoms: C_12  and  C_13
REMARK    7  A    between atoms: C_12  and  N_14
REMARK    8  A    between atoms: N_14  and  O_15
REMARK    9  A    between atoms: C_16  and  C_18
REMARK   10  A    between atoms: C_18  and  C_19
REMARK   11  A    between atoms: C_18  and  C_20
REMARK   12  A    between atoms: N_22  and  C_23
REMARK   13  A    between atoms: C_26  and  O_27
REMARK   14  A    between atoms: O_27  and  C_28
REMARK                            x       y       z     vdW  Elec       q    Type
REMARK                         _______ _______ _______ _____ _____    ______ ____
ROOT
ATOM      1  C   UNL     1      -0.265  11.318  20.325  0.00  0.00    +0.000 A 
ATOM      2  C   UNL     1       0.136  10.002  20.145  0.00  0.00    +0.000 A 
ATOM      3  C   UNL     1       1.108  10.025  19.127  0.00  0.00    +0.000 A 
ATOM      4  N   UNL     1       1.311  11.261  18.658  0.00  0.00    +0.000 NA
ATOM      5  N   UNL     1       0.551  12.066  19.471  0.00  0.00    +0.000 N 
ENDROOT
BRANCH   1   9
ATOM      6  C   UNL     1      -3.498  12.828  22.715  0.00  0.00    +0.000 A 
ATOM      7  C   UNL     1      -3.601  12.806  21.320  0.00  0.00    +0.000 A 
ATOM      8  C   UNL     1      -2.558  12.296  20.543  0.00  0.00    +0.000 A 
ATOM      9  C   UNL     1      -1.369  11.864  21.139  0.00  0.00    +0.000 A 
ATOM     10  C   UNL     1      -1.248  11.972  22.530  0.00  0.00    +0.000 A 
ATOM     11  C   UNL     1      -2.311  12.417  23.318  0.00  0.00    +0.000 A 
BRANCH   6  13
ATOM     12  C   UNL     1      -5.957  13.009  22.724  0.00  0.00    +0.000 C 
ATOM     13  C   UNL     1      -4.697  13.137  23.574  0.00  0.00    +0.000 C 
ENDBRANCH   6  13
ENDBRANCH   1   9
BRANCH   5  14
ATOM     14  C   UNL     1       0.661  13.496  19.413  0.00  0.00    +0.000 A 
ATOM     15  C   UNL     1       1.734  14.144  20.018  0.00  0.00    +0.000 A 
ATOM     16  C   UNL     1       1.842  15.541  19.924  0.00  0.00    +0.000 A 
ATOM     17  C   UNL     1       0.905  16.298  19.206  0.00  0.00    +0.000 A 
ATOM     18  C   UNL     1      -0.163  15.654  18.597  0.00  0.00    +0.000 A 
ATOM     19  C   UNL     1      -0.294  14.261  18.711  0.00  0.00    +0.000 A 
BRANCH  17  20
ATOM     20  O   UNL     1       1.123  17.648  19.203  0.00  0.00    +0.000 OA
ATOM     21  C   UNL     1       1.119  18.294  17.932  0.00  0.00    +0.000 C 
ENDBRANCH  17  20
ENDBRANCH   5  14
BRANCH   3  22
ATOM     22  C   UNL     1       1.821   8.876  18.571  0.00  0.00    +0.000 C 
ATOM     23  C   UNL     1       2.334   7.886  18.153  0.00  0.00    +0.000 C 
BRANCH  23  24
ATOM     24  C   UNL     1       2.996   6.622  17.651  0.00  0.00    +0.000 C 
ATOM     25  C   UNL     1       4.453   6.892  17.269  0.00  0.00    +0.000 C 
BRANCH  24  26
ATOM     26  N   UNL     1       2.868   5.484  18.603  0.00  0.00    +0.000 N 
ATOM     27  C   UNL     1       1.983   4.435  18.379  0.00  0.00    +0.000 C 
ATOM     28  O   UNL     1       1.239   4.426  17.395  0.00  0.00    +0.000 OA
BRANCH  27  29
ATOM     29  C   UNL     1       1.920   3.298  19.415  0.00  0.00    +0.000 C 
ATOM     30  C   UNL     1       1.025   3.678  20.594  0.00  0.00    +0.000 C 
ATOM     31  C   UNL     1       1.359   2.015  18.777  0.00  0.00    +0.000 C 
ENDBRANCH  27  29
BRANCH  26  32
ATOM     32  O   UNL     1       3.958   5.245  19.463  0.00  0.00    +0.000 OA
ATOM     33  H   UNL     1       3.548   5.244  20.351  0.00  0.00    +0.000 HD
ENDBRANCH  26  32
ENDBRANCH  24  26
ENDBRANCH  23  24
ENDBRANCH   3  22
TORSDOF 9
ENDMDL
MODEL 4
REMARK VINA RESULT:      -7.8      7.261     12.082
REMARK  Name = 
REMARK  14 active torsions:
REMARK  status: ('A' for Active; 'I' for Inactive)
REMARK    1  A    between atoms: C_1  and  C_2
REMARK    2  A    between atoms: C_2  and  C_3
REMARK    3  A    between atoms: C_6  and  C_7
REMARK    4  A    between atoms: C_9  and  C_10
REMARK    5  A    between atoms: C_11  and  C_12
REMARK    6  A    between atoms: C_12  and  C_13
REMARK    7  A    between atoms: C_12  and  N_14
REMARK    8  A    between atoms: N_14  and  O_15
REMARK    9  A    between atoms: C_16  and  C_18
REMARK   10  A    between atoms: C_18  and  C_19
REMARK   11  A    between atoms: C_18  and  C_20
REMARK   12  A    between atoms: N_22  and  C_23
REMARK   13  A    between atoms: C_26  and  O_27
REMARK   14  A    between atoms: O_27  and  C_28
REMARK                            x       y       z     vdW  Elec       q    Type
REMARK                         _______ _______ _______ _____ _____    ______ ____
ROOT
ATOM      1  C   UNL     1       0.827  12.317  19.193  0.00  0.00    +0.000 A 
ATOM      2  C   UNL     1       1.644  11.481  18.446  0.00  0.00    +0.000 A 
ATOM      3  C   UNL     1       1.375  10.173  18.889  0.00  0.00    +0.000 A 
ATOM      4  N   UNL     1       0.469  10.155  19.872  0.00  0.00    +0.000 NA
ATOM      5  N   UNL     1       0.050  11.460  19.978  0.00  0.00    +0.000 N 
ENDROOT
BRANCH   1   9
ATOM      6  C   UNL     1       0.795  16.609  19.338  0.00  0.00    +0.000 A 
ATOM      7  C   UNL     1       1.745  15.885  20.066  0.00  0.00    +0.000 A 
ATOM      8  C   UNL     1       1.768  14.489  20.004  0.00  0.00    +0.000 A 
ATOM      9  C   UNL     1       0.804  13.791  19.269  0.00  0.00    +0.000 A 
ATOM     10  C   UNL     1      -0.191  14.528  18.615  0.00  0.00    +0.000 A 
ATOM     11  C   UNL     1      -0.180  15.924  18.618  0.00  0.00    +0.000 A 
BRANCH   6  13
ATOM     12  C   UNL     1      -0.063  18.571  18.116  0.00  0.00    +0.000 C 
ATOM     13  C   UNL     1       0.909  18.105  19.194  0.00  0.00    +0.000 C 
ENDBRANCH   6  13
ENDBRANCH   1   9
BRANCH   5  14
ATOM     14  C   UNL     1      -1.076  11.815  20.793  0.00  0.00    +0.000 A 
ATOM     15  C   UNL     1      -0.977  11.783  22.181  0.00  0.00    +0.000 A 
ATOM     16  C   UNL     1      -2.080  12.164  22.963  0.00  0.00    +0.000 A 
ATOM     17  C   UNL     1      -3.272  12.608  22.374  0.00  0.00    +0.000 A 
ATOM     18  C   UNL     1      -3.372  12.646  20.990  0.00  0.00    +0.000 A 
ATOM     19  C   UNL     1      -2.284  12.239  20.202  0.00  0.00    +0.000 A 
BRANCH  17  20
ATOM     20  O   UNL     1      -4.269  12.939  23.250  0.00  0.00    +0.000 OA
ATOM     21  C   UNL     1      -4.187  12.372  24.556  0.00  0.00    +0.000 C 
ENDBRANCH  17  20
ENDBRANCH   5  14
BRANCH   3  22
ATOM     22  C   UNL     1       2.002   8.940  18.413  0.00  0.00    +0.000 C 
ATOM     23  C   UNL     1       2.435   7.891  18.054  0.00  0.00    +0.000 C 
BRANCH  23  24
ATOM     24  C   UNL     1       2.992   6.551  17.627  0.00  0.00    +0.000 C 
ATOM     25  C   UNL     1       4.473   6.677  17.258  0.00  0.00    +0.000 C 
BRANCH  24  26
ATOM     26  N   UNL     1       2.755   5.478  18.632  0.00  0.00    +0.000 N 
ATOM     27  C   UNL     1       1.893   4.417  18.382  0.00  0.00    +0.000 C 
ATOM     28  O   UNL     1       1.260   4.342  17.326  0.00  0.00    +0.000 OA
BRANCH  27  29
ATOM     29  C   UNL     1       1.710   3.351  19.478  0.00  0.00    +0.000 C 
ATOM     30  C   UNL     1       0.937   3.914  20.670  0.00  0.00    +0.000 C 
ATOM     31  C   UNL     1       0.935   2.139  18.930  0.00  0.00    +0.000 C 
ENDBRANCH  27  29
BRANCH  26  32
ATOM     32  O   UNL     1       3.743   5.297  19.619  0.00  0.00    +0.000 OA
ATOM     33  H   UNL     1       4.512   5.784  19.260  0.00  0.00    +0.000 HD
ENDBRANCH  26  32
ENDBRANCH  24  26
ENDBRANCH  23  24
ENDBRANCH   3  22
TORSDOF 9
ENDMDL
MODEL 5
REMARK VINA RESULT:      -7.8      7.183     11.359
REMARK  Name = 
REMARK  14 active torsions:
REMARK  status: ('A' for Active; 'I' for Inactive)
REMARK    1  A    between atoms: C_1  and  C_2
REMARK    2  A    between atoms: C_2  and  C_3
REMARK    3  A    between atoms: C_6  and  C_7
REMARK    4  A    between atoms: C_9  and  C_10
REMARK    5  A    between atoms: C_11  and  C_12
REMARK    6  A    between atoms: C_12  and  C_13
REMARK    7  A    between atoms: C_12  and  N_14
REMARK    8  A    between atoms: N_14  and  O_15
REMARK    9  A    between atoms: C_16  and  C_18
REMARK   10  A    between atoms: C_18  and  C_19
REMARK   11  A    between atoms: C_18  and  C_20
REMARK   12  A    between atoms: N_22  and  C_23
REMARK   13  A    between atoms: C_26  and  O_27
REMARK   14  A    between atoms: O_27  and  C_28
REMARK                            x       y       z     vdW  Elec       q    Type
REMARK                         _______ _______ _______ _____ _____    ______ ____
ROOT
ATOM      1  C   UNL     1       0.343  11.653  18.708  0.00  0.00    +0.000 A 
ATOM      2  C   UNL     1       1.521  10.928  18.602  0.00  0.00    +0.000 A 
ATOM      3  C   UNL     1       1.149   9.638  18.179  0.00  0.00    +0.000 A 
ATOM      4  N   UNL     1      -0.176   9.519  18.044  0.00  0.00    +0.000 NA
ATOM      5  N   UNL     1      -0.658  10.788  18.258  0.00  0.00    +0.000 N 
ENDROOT
BRANCH   1   9
ATOM      6  C   UNL     1      -0.245  15.597  20.302  0.00  0.00    +0.000 A 
ATOM      7  C   UNL     1      -0.101  14.503  21.161  0.00  0.00    +0.000 A 
ATOM      8  C   UNL     1       0.110  13.222  20.643  0.00  0.00    +0.000 A 
ATOM      9  C   UNL     1       0.114  13.002  19.262  0.00  0.00    +0.000 A 
ATOM     10  C   UNL     1      -0.117  14.095  18.417  0.00  0.00    +0.000 A 
ATOM     11  C   UNL     1      -0.261  15.387  18.926  0.00  0.00    +0.000 A 
BRANCH   6  13
ATOM     12  C   UNL     1       0.783  17.823  20.031  0.00  0.00    +0.000 C 
ATOM     13  C   UNL     1      -0.222  17.006  20.836  0.00  0.00    +0.000 C 
ENDBRANCH   6  13
ENDBRANCH   1   9
BRANCH   5  14
ATOM     14  C   UNL     1      -2.032  11.114  17.999  0.00  0.00    +0.000 A 
ATOM     15  C   UNL     1      -2.842  11.604  19.019  0.00  0.00    +0.000 A 
ATOM     16  C   UNL     1      -4.175  11.948  18.740  0.00  0.00    +0.000 A 
ATOM     17  C   UNL     1      -4.700  11.837  17.445  0.00  0.00    +0.000 A 
ATOM     18  C   UNL     1      -3.893  11.353  16.424  0.00  0.00    +0.000 A 
ATOM     19  C   UNL     1      -2.569  10.980  16.702  0.00  0.00    +0.000 A 
BRANCH  17  20
ATOM     20  O   UNL     1      -6.014  12.195  17.314  0.00  0.00    +0.000 OA
ATOM     21  C   UNL     1      -6.950  11.507  18.141  0.00  0.00    +0.000 C 
ENDBRANCH  17  20
ENDBRANCH   5  14
BRANCH   3  22
ATOM     22  C   UNL     1       2.041   8.504  17.939  0.00  0.00    +0.000 C 
ATOM     23  C   UNL     1       2.700   7.525  17.779  0.00  0.00    +0.000 C 
BRANCH  23  24
ATOM     24  C   UNL     1       3.544   6.282  17.606  0.00  0.00    +0.000 C 
ATOM     25  C   UNL     1       5.033   6.635  17.626  0.00  0.00    +0.000 C 
BRANCH  24  26
ATOM     26  N   UNL     1       3.209   5.213  18.588  0.00  0.00    +0.000 N 
ATOM     27  C   UNL     1       2.153   4.333  18.382  0.00  0.00    +0.000 C 
ATOM     28  O   UNL     1       1.427   4.426  17.390  0.00  0.00    +0.000 OA
BRANCH  27  29
ATOM     29  C   UNL     1       1.881   3.257  19.449  0.00  0.00    +0.000 C 
ATOM     30  C   UNL     1       1.131   3.844  20.644  0.00  0.00    +0.000 C 
ATOM     31  C   UNL     1       1.034   2.114  18.862  0.00  0.00    +0.000 C 
ENDBRANCH  27  29
BRANCH  26  32
ATOM     32  O   UNL     1       4.233   4.811  19.468  0.00  0.00    +0.000 OA
ATOM     33  H   UNL     1       4.759   5.626  19.590  0.00  0.00    +0.000 HD
ENDBRANCH  26  32
ENDBRANCH  24  26
ENDBRANCH  23  24
ENDBRANCH   3  22
TORSDOF 9
ENDMDL
MODEL 6
REMARK VINA RESULT:      -7.7      7.340     12.157
REMARK  Name = 
REMARK  14 active torsions:
REMARK  status: ('A' for Active; 'I' for Inactive)
REMARK    1  A    between atoms: C_1  and  C_2
REMARK    2  A    between atoms: C_2  and  C_3
REMARK    3  A    between atoms: C_6  and  C_7
REMARK    4  A    between atoms: C_9  and  C_10
REMARK    5  A    between atoms: C_11  and  C_12
REMARK    6  A    between atoms: C_12  and  C_13
REMARK    7  A    between atoms: C_12  and  N_14
REMARK    8  A    between atoms: N_14  and  O_15
REMARK    9  A    between atoms: C_16  and  C_18
REMARK   10  A    between atoms: C_18  and  C_19
REMARK   11  A    between atoms: C_18  and  C_20
REMARK   12  A    between atoms: N_22  and  C_23
REMARK   13  A    between atoms: C_26  and  O_27
REMARK   14  A    between atoms: O_27  and  C_28
REMARK                            x       y       z     vdW  Elec       q    Type
REMARK                         _______ _______ _______ _____ _____    ______ ____
ROOT
ATOM      1  C   UNL     1       0.694  12.247  19.425  0.00  0.00    +0.000 A 
ATOM      2  C   UNL     1       1.467  11.388  18.657  0.00  0.00    +0.000 A 
ATOM      3  C   UNL     1       1.157  10.086  19.095  0.00  0.00    +0.000 A 
ATOM      4  N   UNL     1       0.266  10.094  20.093  0.00  0.00    +0.000 NA
ATOM      5  N   UNL     1      -0.101  11.413  20.216  0.00  0.00    +0.000 N 
ENDROOT
BRANCH   1   9
ATOM      6  C   UNL     1       0.745  16.529  19.744  0.00  0.00    +0.000 A 
ATOM      7  C   UNL     1      -0.045  15.903  18.775  0.00  0.00    +0.000 A 
ATOM      8  C   UNL     1      -0.078  14.509  18.683  0.00  0.00    +0.000 A 
ATOM      9  C   UNL     1       0.728  13.720  19.512  0.00  0.00    +0.000 A 
ATOM     10  C   UNL     1       1.577  14.366  20.419  0.00  0.00    +0.000 A 
ATOM     11  C   UNL     1       1.564  15.755  20.562  0.00  0.00    +0.000 A 
BRANCH   6  13
ATOM     12  C   UNL     1       0.046  18.189  21.429  0.00  0.00    +0.000 C 
ATOM     13  C   UNL     1       0.603  18.003  20.022  0.00  0.00    +0.000 C 
ENDBRANCH   6  13
ENDBRANCH   1   9
BRANCH   5  14
ATOM     14  C   UNL     1      -1.199  11.803  21.052  0.00  0.00    +0.000 A 
ATOM     15  C   UNL     1      -2.316  12.426  20.502  0.00  0.00    +0.000 A 
ATOM     16  C   UNL     1      -3.395  12.772  21.331  0.00  0.00    +0.000 A 
ATOM     17  C   UNL     1      -3.385  12.477  22.701  0.00  0.00    +0.000 A 
ATOM     18  C   UNL     1      -2.276  11.852  23.253  0.00  0.00    +0.000 A 
ATOM     19  C   UNL     1      -1.181  11.528  22.436  0.00  0.00    +0.000 A 
BRANCH  17  20
ATOM     20  O   UNL     1      -4.494  12.879  23.394  0.00  0.00    +0.000 OA
ATOM     21  C   UNL     1      -4.559  12.508  24.769  0.00  0.00    +0.000 C 
ENDBRANCH  17  20
ENDBRANCH   5  14
BRANCH   3  22
ATOM     22  C   UNL     1       1.729   8.835  18.599  0.00  0.00    +0.000 C 
ATOM     23  C   UNL     1       2.279   7.854  18.209  0.00  0.00    +0.000 C 
BRANCH  23  24
ATOM     24  C   UNL     1       2.984   6.622  17.686  0.00  0.00    +0.000 C 
ATOM     25  C   UNL     1       4.434   6.947  17.319  0.00  0.00    +0.000 C 
BRANCH  24  26
ATOM     26  N   UNL     1       2.887   5.462  18.614  0.00  0.00    +0.000 N 
ATOM     27  C   UNL     1       2.007   4.410  18.384  0.00  0.00    +0.000 C 
ATOM     28  O   UNL     1       1.243   4.416  17.416  0.00  0.00    +0.000 OA
BRANCH  27  29
ATOM     29  C   UNL     1       1.976   3.249  19.395  0.00  0.00    +0.000 C 
ATOM     30  C   UNL     1       1.065   3.574  20.578  0.00  0.00    +0.000 C 
ATOM     31  C   UNL     1       1.459   1.963  18.727  0.00  0.00    +0.000 C 
ENDBRANCH  27  29
BRANCH  26  32
ATOM     32  O   UNL     1       3.997   5.214  19.445  0.00  0.00    +0.000 OA
ATOM     33  H   UNL     1       4.750   5.556  18.923  0.00  0.00    +0.000 HD
ENDBRANCH  26  32
ENDBRANCH  24  26
ENDBRANCH  23  24
ENDBRANCH   3  22
TORSDOF 9
ENDMDL
MODEL 7
REMARK VINA RESULT:      -7.7      7.342     11.656
REMARK  Name = 
REMARK  14 active torsions:
REMARK  status: ('A' for Active; 'I' for Inactive)
REMARK    1  A    between atoms: C_1  and  C_2
REMARK    2  A    between atoms: C_2  and  C_3
REMARK    3  A    between atoms: C_6  and  C_7
REMARK    4  A    between atoms: C_9  and  C_10
REMARK    5  A    between atoms: C_11  and  C_12
REMARK    6  A    between atoms: C_12  and  C_13
REMARK    7  A    between atoms: C_12  and  N_14
REMARK    8  A    between atoms: N_14  and  O_15
REMARK    9  A    between atoms: C_16  and  C_18
REMARK   10  A    between atoms: C_18  and  C_19
REMARK   11  A    between atoms: C_18  and  C_20
REMARK   12  A    between atoms: N_22  and  C_23
REMARK   13  A    between atoms: C_26  and  O_27
REMARK   14  A    between atoms: O_27  and  C_28
REMARK                            x       y       z     vdW  Elec       q    Type
REMARK                         _______ _______ _______ _____ _____    ______ ____
ROOT
ATOM      1  C   UNL     1      -0.427  11.347  20.409  0.00  0.00    +0.000 A 
ATOM      2  C   UNL     1      -0.057  10.026  20.197  0.00  0.00    +0.000 A 
ATOM      3  C   UNL     1       0.991  10.060  19.258  0.00  0.00    +0.000 A 
ATOM      4  N   UNL     1       1.269  11.307  18.864  0.00  0.00    +0.000 NA
ATOM      5  N   UNL     1       0.476  12.103  19.655  0.00  0.00    +0.000 N 
ENDROOT
BRANCH   1   9
ATOM      6  C   UNL     1      -3.728  13.017  22.591  0.00  0.00    +0.000 A 
ATOM      7  C   UNL     1      -2.684  12.378  23.268  0.00  0.00    +0.000 A 
ATOM      8  C   UNL     1      -1.600  11.851  22.560  0.00  0.00    +0.000 A 
ATOM      9  C   UNL     1      -1.572  11.895  21.163  0.00  0.00    +0.000 A 
ATOM     10  C   UNL     1      -2.665  12.463  20.496  0.00  0.00    +0.000 A 
ATOM     11  C   UNL     1      -3.718  13.050  21.199  0.00  0.00    +0.000 A 
BRANCH   6  13
ATOM     12  C   UNL     1      -4.105  15.019  23.980  0.00  0.00    +0.000 C 
ATOM     13  C   UNL     1      -4.770  13.803  23.343  0.00  0.00    +0.000 C 
ENDBRANCH   6  13
ENDBRANCH   1   9
BRANCH   5  14
ATOM     14  C   UNL     1       0.636  13.529  19.673  0.00  0.00    +0.000 A 
ATOM     15  C   UNL     1       1.564  14.121  20.525  0.00  0.00    +0.000 A 
ATOM     16  C   UNL     1       1.730  15.515  20.506  0.00  0.00    +0.000 A 
ATOM     17  C   UNL     1       1.001  16.324  19.624  0.00  0.00    +0.000 A 
ATOM     18  C   UNL     1       0.078  15.737  18.770  0.00  0.00    +0.000 A 
ATOM     19  C   UNL     1      -0.114  14.347  18.802  0.00  0.00    +0.000 A 
BRANCH  17  20
ATOM     20  O   UNL     1       1.252  17.666  19.717  0.00  0.00    +0.000 OA
ATOM     21  C   UNL     1       0.174  18.542  19.394  0.00  0.00    +0.000 C 
ENDBRANCH  17  20
ENDBRANCH   5  14
BRANCH   3  22
ATOM     22  C   UNL     1       1.706   8.912  18.703  0.00  0.00    +0.000 C 
ATOM     23  C   UNL     1       2.229   7.922  18.297  0.00  0.00    +0.000 C 
BRANCH  23  24
ATOM     24  C   UNL     1       2.907   6.661  17.809  0.00  0.00    +0.000 C 
ATOM     25  C   UNL     1       4.341   6.958  17.363  0.00  0.00    +0.000 C 
BRANCH  24  26
ATOM     26  N   UNL     1       2.847   5.550  18.800  0.00  0.00    +0.000 N 
ATOM     27  C   UNL     1       2.138   4.381  18.550  0.00  0.00    +0.000 C 
ATOM     28  O   UNL     1       1.498   4.232  17.506  0.00  0.00    +0.000 OA
BRANCH  27  29
ATOM     29  C   UNL     1       2.134   3.284  19.630  0.00  0.00    +0.000 C 
ATOM     30  C   UNL     1       1.130   3.605  20.737  0.00  0.00    +0.000 C 
ATOM     31  C   UNL     1       1.758   1.923  19.018  0.00  0.00    +0.000 C 
ENDBRANCH  27  29
BRANCH  26  32
ATOM     32  O   UNL     1       3.874   5.497  19.763  0.00  0.00    +0.000 OA
ATOM     33  H   UNL     1       3.449   5.860  20.565  0.00  0.00    +0.000 HD
ENDBRANCH  26  32
ENDBRANCH  24  26
ENDBRANCH  23  24
ENDBRANCH   3  22
TORSDOF 9
ENDMDL
MODEL 8
REMARK VINA RESULT:      -7.7      6.362     10.565
REMARK  Name = 
REMARK  14 active torsions:
REMARK  status: ('A' for Active; 'I' for Inactive)
REMARK    1  A    between atoms: C_1  and  C_2
REMARK    2  A    between atoms: C_2  and  C_3
REMARK    3  A    between atoms: C_6  and  C_7
REMARK    4  A    between atoms: C_9  and  C_10
REMARK    5  A    between atoms: C_11  and  C_12
REMARK    6  A    between atoms: C_12  and  C_13
REMARK    7  A    between atoms: C_12  and  N_14
REMARK    8  A    between atoms: N_14  and  O_15
REMARK    9  A    between atoms: C_16  and  C_18
REMARK   10  A    between atoms: C_18  and  C_19
REMARK   11  A    between atoms: C_18  and  C_20
REMARK   12  A    between atoms: N_22  and  C_23
REMARK   13  A    between atoms: C_26  and  O_27
REMARK   14  A    between atoms: O_27  and  C_28
REMARK                            x       y       z     vdW  Elec       q    Type
REMARK                         _______ _______ _______ _____ _____    ______ ____
ROOT
ATOM      1  C   UNL     1      -0.003  10.116  18.151  0.00  0.00    +0.000 A 
ATOM      2  C   UNL     1       0.528   8.866  17.864  0.00  0.00    +0.000 A 
ATOM      3  C   UNL     1       1.920   8.982  18.043  0.00  0.00    +0.000 A 
ATOM      4  N   UNL     1       2.276  10.222  18.395  0.00  0.00    +0.000 NA
ATOM      5  N   UNL     1       1.086  10.886  18.571  0.00  0.00    +0.000 N 
ENDROOT
BRANCH   1   9
ATOM      6  C   UNL     1      -4.037  11.513  17.680  0.00  0.00    +0.000 A 
ATOM      7  C   UNL     1      -3.395  10.841  16.635  0.00  0.00    +0.000 A 
ATOM      8  C   UNL     1      -2.090  10.369  16.794  0.00  0.00    +0.000 A 
ATOM      9  C   UNL     1      -1.380  10.617  17.973  0.00  0.00    +0.000 A 
ATOM     10  C   UNL     1      -2.007  11.366  18.978  0.00  0.00    +0.000 A 
ATOM     11  C   UNL     1      -3.333  11.782  18.851  0.00  0.00    +0.000 A 
BRANCH   6  13
ATOM     12  C   UNL     1      -6.255  10.778  18.468  0.00  0.00    +0.000 C 
ATOM     13  C   UNL     1      -5.513  11.805  17.619  0.00  0.00    +0.000 C 
ENDBRANCH   6  13
ENDBRANCH   1   9
BRANCH   5  14
ATOM     14  C   UNL     1       1.044  12.197  19.152  0.00  0.00    +0.000 A 
ATOM     15  C   UNL     1       1.001  13.326  18.338  0.00  0.00    +0.000 A 
ATOM     16  C   UNL     1       0.929  14.600  18.924  0.00  0.00    +0.000 A 
ATOM     17  C   UNL     1       0.870  14.760  20.315  0.00  0.00    +0.000 A 
ATOM     18  C   UNL     1       0.908  13.637  21.130  0.00  0.00    +0.000 A 
ATOM     19  C   UNL     1       1.008  12.361  20.553  0.00  0.00    +0.000 A 
BRANCH  17  20
ATOM     20  O   UNL     1       0.813  16.055  20.753  0.00  0.00    +0.000 OA
ATOM     21  C   UNL     1       0.899  17.071  19.756  0.00  0.00    +0.000 C 
ENDBRANCH  17  20
ENDBRANCH   5  14
BRANCH   3  22
ATOM     22  C   UNL     1       2.919   7.933  17.846  0.00  0.00    +0.000 C 
ATOM     23  C   UNL     1       3.782   7.141  17.635  0.00  0.00    +0.000 C 
BRANCH  23  24
ATOM     24  C   UNL     1       4.868   6.130  17.339  0.00  0.00    +0.000 C 
ATOM     25  C   UNL     1       6.239   6.810  17.300  0.00  0.00    +0.000 C 
BRANCH  24  26
ATOM     26  N   UNL     1       4.846   4.967  18.268  0.00  0.00    +0.000 N 
ATOM     27  C   UNL     1       3.962   3.908  18.097  0.00  0.00    +0.000 C 
ATOM     28  O   UNL     1       3.133   3.909  17.184  0.00  0.00    +0.000 OA
BRANCH  27  29
ATOM     29  C   UNL     1       4.011   2.745  19.104  0.00  0.00    +0.000 C 
ATOM     30  C   UNL     1       3.104   3.016  20.304  0.00  0.00    +0.000 C 
ATOM     31  C   UNL     1       3.553   1.434  18.440  0.00  0.00    +0.000 C 
ENDBRANCH  27  29
BRANCH  26  32
ATOM     32  O   UNL     1       6.013   4.727  19.021  0.00  0.00    +0.000 OA
ATOM     33  H   UNL     1       5.687   4.710  19.942  0.00  0.00    +0.000 HD
ENDBRANCH  26  32
ENDBRANCH  24  26
ENDBRANCH  23  24
ENDBRANCH   3  22
TORSDOF 9
ENDMDL
MODEL 9
REMARK VINA RESULT:      -7.6      7.154     11.953
REMARK  Name = 
REMARK  14 active torsions:
REMARK  status: ('A' for Active; 'I' for Inactive)
REMARK    1  A    between atoms: C_1  and  C_2
REMARK    2  A    between atoms: C_2  and  C_3
REMARK    3  A    between atoms: C_6  and  C_7
REMARK    4  A    between atoms: C_9  and  C_10
REMARK    5  A    between atoms: C_11  and  C_12
REMARK    6  A    between atoms: C_12  and  C_13
REMARK    7  A    between atoms: C_12  and  N_14
REMARK    8  A    between atoms: N_14  and  O_15
REMARK    9  A    between atoms: C_16  and  C_18
REMARK   10  A    between atoms: C_18  and  C_19
REMARK   11  A    between atoms: C_18  and  C_20
REMARK   12  A    between atoms: N_22  and  C_23
REMARK   13  A    between atoms: C_26  and  O_27
REMARK   14  A    between atoms: O_27  and  C_28
REMARK                            x       y       z     vdW  Elec       q    Type
REMARK                         _______ _______ _______ _____ _____    ______ ____
ROOT
ATOM      1  C   UNL     1       0.913  12.255  19.209  0.00  0.00    +0.000 A 
ATOM      2  C   UNL     1       1.688  11.439  18.396  0.00  0.00    +0.000 A 
ATOM      3  C   UNL     1       1.478  10.123  18.851  0.00  0.00    +0.000 A 
ATOM      4  N   UNL     1       0.649  10.082  19.899  0.00  0.00    +0.000 NA
ATOM      5  N   UNL     1       0.215  11.378  20.045  0.00  0.00    +0.000 N 
ENDROOT
BRANCH   1   9
ATOM      6  C   UNL     1       0.816  16.544  19.385  0.00  0.00    +0.000 A 
ATOM      7  C   UNL     1       1.780  15.830  20.103  0.00  0.00    +0.000 A 
ATOM      8  C   UNL     1       1.824  14.435  20.031  0.00  0.00    +0.000 A 
ATOM      9  C   UNL     1       0.868  13.728  19.295  0.00  0.00    +0.000 A 
ATOM     10  C   UNL     1      -0.141  14.454  18.650  0.00  0.00    +0.000 A 
ATOM     11  C   UNL     1      -0.152  15.849  18.664  0.00  0.00    +0.000 A 
BRANCH   6  13
ATOM     12  C   UNL     1       1.356  18.630  20.584  0.00  0.00    +0.000 C 
ATOM     13  C   UNL     1       0.906  18.042  19.251  0.00  0.00    +0.000 C 
ENDBRANCH   6  13
ENDBRANCH   1   9
BRANCH   5  14
ATOM     14  C   UNL     1      -0.853  11.708  20.945  0.00  0.00    +0.000 A 
ATOM     15  C   UNL     1      -2.048  12.228  20.458  0.00  0.00    +0.000 A 
ATOM     16  C   UNL     1      -3.093  12.515  21.350  0.00  0.00    +0.000 A 
ATOM     17  C   UNL     1      -2.970  12.260  22.723  0.00  0.00    +0.000 A 
ATOM     18  C   UNL     1      -1.781  11.736  23.212  0.00  0.00    +0.000 A 
ATOM     19  C   UNL     1      -0.722  11.473  22.330  0.00  0.00    +0.000 A 
BRANCH  17  20
ATOM     20  O   UNL     1      -4.059  12.596  23.480  0.00  0.00    +0.000 OA
ATOM     21  C   UNL     1      -5.166  13.170  22.789  0.00  0.00    +0.000 C 
ENDBRANCH  17  20
ENDBRANCH   5  14
BRANCH   3  22
ATOM     22  C   UNL     1       2.090   8.905  18.320  0.00  0.00    +0.000 C 
ATOM     23  C   UNL     1       2.573   7.874  17.972  0.00  0.00    +0.000 C 
BRANCH  23  24
ATOM     24  C   UNL     1       3.213   6.572  17.545  0.00  0.00    +0.000 C 
ATOM     25  C   UNL     1       4.695   6.780  17.224  0.00  0.00    +0.000 C 
BRANCH  24  26
ATOM     26  N   UNL     1       3.002   5.473  18.529  0.00  0.00    +0.000 N 
ATOM     27  C   UNL     1       2.027   4.500  18.343  0.00  0.00    +0.000 C 
ATOM     28  O   UNL     1       1.271   4.529  17.369  0.00  0.00    +0.000 OA
BRANCH  27  29
ATOM     29  C   UNL     1       1.882   3.399  19.410  0.00  0.00    +0.000 C 
ATOM     30  C   UNL     1       1.025   3.878  20.581  0.00  0.00    +0.000 C 
ATOM     31  C   UNL     1       1.220   2.146  18.808  0.00  0.00    +0.000 C 
ENDBRANCH  27  29
BRANCH  26  32
ATOM     32  O   UNL     1       4.080   5.163  19.381  0.00  0.00    +0.000 OA
ATOM     33  H   UNL     1       3.857   4.270  19.710  0.00  0.00    +0.000 HD
ENDBRANCH  26  32
ENDBRANCH  24  26
ENDBRANCH  23  24
ENDBRANCH   3  22
TORSDOF 9
ENDMDL
