MODEL 1
REMARK VINA RESULT:      -7.6      0.000      0.000
REMARK  Name = 
REMARK  3 active torsions:
REMARK  status: ('A' for Active; 'I' for Inactive)
REMARK    1  A    between atoms: C_2  and  C_3
REMARK    2  A    between atoms: N_15  and  C_16
REMARK    3  A    between atoms: C_16  and  C_17
REMARK                            x       y       z     vdW  Elec       q    Type
REMARK                         _______ _______ _______ _____ _____    ______ ____
ROOT
ATOM      1  O   UNL     1       6.466   5.314  19.373  0.00  0.00    +0.000 OA
ATOM      2  C   UNL     1       5.768   4.709  18.555  0.00  0.00    +0.000 C 
ATOM      3  N   UNL     1       4.367   4.716  18.626  0.00  0.00    +0.000 N 
ATOM      4  C   UNL     1       3.516   3.766  17.901  0.00  0.00    +0.000 C 
ATOM      5  C   UNL     1       2.178   4.363  17.481  0.00  0.00    +0.000 C 
ATOM      6  C   UNL     1       1.486   5.101  18.624  0.00  0.00    +0.000 C 
ATOM      7  C   UNL     1       2.422   6.122  19.299  0.00  0.00    +0.000 C 
ATOM      8  C   UNL     1       1.701   6.784  20.503  0.00  0.00    +0.000 C 
ATOM      9  C   UNL     1       1.806   8.280  20.276  0.00  0.00    +0.000 C 
ATOM     10  N   UNL     1       2.020   8.400  18.865  0.00  0.00    +0.000 N 
ATOM     11  C   UNL     1       2.640   7.289  18.334  0.00  0.00    +0.000 C 
ATOM     12  O   UNL     1       3.179   7.244  17.239  0.00  0.00    +0.000 OA
ATOM     13  C   UNL     1       3.733   5.453  19.718  0.00  0.00    +0.000 C 
ENDROOT
BRANCH   2  14
ATOM     14  C   UNL     1       6.398   3.947  17.365  0.00  0.00    +0.000 C 
ATOM     15  C   UNL     1       5.528   3.870  16.120  0.00  0.00    +0.000 C 
ATOM     16  C   UNL     1       6.116   4.881  15.170  0.00  0.00    +0.000 C 
ATOM     17  C   UNL     1       7.511   5.138  15.688  0.00  0.00    +0.000 C 
ATOM     18  O   UNL     1       7.643   4.533  16.972  0.00  0.00    +0.000 OA
ENDBRANCH   2  14
BRANCH  10  19
ATOM     19  C   UNL     1       1.718   9.595  18.104  0.00  0.00    +0.000 C 
BRANCH  19  20
ATOM     20  C   UNL     1       0.352  10.126  18.469  0.00  0.00    +0.000 A 
ATOM     21  C   UNL     1      -0.796   9.688  17.801  0.00  0.00    +0.000 A 
ATOM     22  C   UNL     1      -2.019  10.244  18.140  0.00  0.00    +0.000 A 
ATOM     23  N   UNL     1      -2.180  11.194  19.085  0.00  0.00    +0.000 NA
ATOM     24  C   UNL     1      -1.062  11.609  19.720  0.00  0.00    +0.000 A 
ATOM     25  C   UNL     1       0.207  11.117  19.449  0.00  0.00    +0.000 A 
ENDBRANCH  19  20
ENDBRANCH  10  19
TORSDOF 3
ENDMDL
MODEL 2
REMARK VINA RESULT:      -7.4      2.877      8.191
REMARK  Name = 
REMARK  3 active torsions:
REMARK  status: ('A' for Active; 'I' for Inactive)
REMARK    1  A    between atoms: C_2  and  C_3
REMARK    2  A    between atoms: N_15  and  C_16
REMARK    3  A    between atoms: C_16  and  C_17
REMARK                            x       y       z     vdW  Elec       q    Type
REMARK                         _______ _______ _______ _____ _____    ______ ____
ROOT
ATOM      1  O   UNL     1      -2.908   9.330  18.336  0.00  0.00    +0.000 OA
ATOM      2  C   UNL     1      -2.256  10.364  18.174  0.00  0.00    +0.000 C 
ATOM      3  N   UNL     1      -1.094  10.632  18.913  0.00  0.00    +0.000 N 
ATOM      4  C   UNL     1      -0.479  11.961  19.001  0.00  0.00    +0.000 C 
ATOM      5  C   UNL     1       1.038  11.911  19.135  0.00  0.00    +0.000 C 
ATOM      6  C   UNL     1       1.495  10.921  20.202  0.00  0.00    +0.000 C 
ATOM      7  C   UNL     1       0.855   9.532  20.011  0.00  0.00    +0.000 C 
ATOM      8  C   UNL     1       1.286   8.590  21.165  0.00  0.00    +0.000 C 
ATOM      9  C   UNL     1       1.862   7.356  20.498  0.00  0.00    +0.000 C 
ATOM     10  N   UNL     1       2.242   7.814  19.195  0.00  0.00    +0.000 N 
ATOM     11  C   UNL     1       1.477   8.881  18.774  0.00  0.00    +0.000 C 
ATOM     12  O   UNL     1       1.401   9.277  17.621  0.00  0.00    +0.000 OA
ATOM     13  C   UNL     1      -0.666   9.652  19.911  0.00  0.00    +0.000 C 
ENDROOT
BRANCH   2  14
ATOM     14  C   UNL     1      -2.653  11.408  17.105  0.00  0.00    +0.000 C 
ATOM     15  C   UNL     1      -2.617  10.904  15.671  0.00  0.00    +0.000 C 
ATOM     16  C   UNL     1      -4.059  10.676  15.300  0.00  0.00    +0.000 C 
ATOM     17  C   UNL     1      -4.852  11.471  16.310  0.00  0.00    +0.000 C 
ATOM     18  O   UNL     1      -3.971  11.918  17.337  0.00  0.00    +0.000 OA
ENDBRANCH   2  14
BRANCH  10  19
ATOM     19  C   UNL     1       3.239   7.162  18.371  0.00  0.00    +0.000 C 
BRANCH  19  20
ATOM     20  C   UNL     1       3.161   5.662  18.530  0.00  0.00    +0.000 A 
ATOM     21  C   UNL     1       4.134   4.959  19.247  0.00  0.00    +0.000 A 
ATOM     22  C   UNL     1       4.043   3.579  19.320  0.00  0.00    +0.000 A 
ATOM     23  N   UNL     1       3.065   2.856  18.736  0.00  0.00    +0.000 NA
ATOM     24  C   UNL     1       2.133   3.548  18.045  0.00  0.00    +0.000 A 
ATOM     25  C   UNL     1       2.140   4.929  17.910  0.00  0.00    +0.000 A 
ENDBRANCH  19  20
ENDBRANCH  10  19
TORSDOF 3
ENDMDL
MODEL 3
REMARK VINA RESULT:      -7.4      0.897      1.268
REMARK  Name = 
REMARK  3 active torsions:
REMARK  status: ('A' for Active; 'I' for Inactive)
REMARK    1  A    between atoms: C_2  and  C_3
REMARK    2  A    between atoms: N_15  and  C_16
REMARK    3  A    between atoms: C_16  and  C_17
REMARK                            x       y       z     vdW  Elec       q    Type
REMARK                         _______ _______ _______ _____ _____    ______ ____
ROOT
ATOM      1  O   UNL     1       6.573   5.584  18.937  0.00  0.00    +0.000 OA
ATOM      2  C   UNL     1       5.834   4.865  18.258  0.00  0.00    +0.000 C 
ATOM      3  N   UNL     1       4.461   4.753  18.523  0.00  0.00    +0.000 N 
ATOM      4  C   UNL     1       3.617   3.685  17.976  0.00  0.00    +0.000 C 
ATOM      5  C   UNL     1       2.184   4.130  17.713  0.00  0.00    +0.000 C 
ATOM      6  C   UNL     1       1.582   4.881  18.897  0.00  0.00    +0.000 C 
ATOM      7  C   UNL     1       2.496   6.025  19.378  0.00  0.00    +0.000 C 
ATOM      8  C   UNL     1       1.880   6.701  20.631  0.00  0.00    +0.000 C 
ATOM      9  C   UNL     1       1.809   8.182  20.308  0.00  0.00    +0.000 C 
ATOM     10  N   UNL     1       1.821   8.224  18.877  0.00  0.00    +0.000 N 
ATOM     11  C   UNL     1       2.469   7.138  18.329  0.00  0.00    +0.000 C 
ATOM     12  O   UNL     1       2.860   7.066  17.174  0.00  0.00    +0.000 OA
ATOM     13  C   UNL     1       3.909   5.504  19.648  0.00  0.00    +0.000 C 
ENDROOT
BRANCH   2  14
ATOM     14  C   UNL     1       6.372   4.082  17.038  0.00  0.00    +0.000 C 
ATOM     15  C   UNL     1       5.463   4.092  15.818  0.00  0.00    +0.000 C 
ATOM     16  C   UNL     1       6.095   5.075  14.868  0.00  0.00    +0.000 C 
ATOM     17  C   UNL     1       7.520   5.220  15.347  0.00  0.00    +0.000 C 
ATOM     18  O   UNL     1       7.645   4.583  16.616  0.00  0.00    +0.000 OA
ENDBRANCH   2  14
BRANCH  10  19
ATOM     19  C   UNL     1       1.306   9.332  18.099  0.00  0.00    +0.000 C 
BRANCH  19  20
ATOM     20  C   UNL     1       0.721  10.390  19.006  0.00  0.00    +0.000 A 
ATOM     21  C   UNL     1       1.412  11.575  19.274  0.00  0.00    +0.000 A 
ATOM     22  C   UNL     1       0.855  12.490  20.153  0.00  0.00    +0.000 A 
ATOM     23  N   UNL     1      -0.329  12.311  20.776  0.00  0.00    +0.000 NA
ATOM     24  C   UNL     1      -0.984  11.160  20.509  0.00  0.00    +0.000 A 
ATOM     25  C   UNL     1      -0.506  10.182  19.649  0.00  0.00    +0.000 A 
ENDBRANCH  19  20
ENDBRANCH  10  19
TORSDOF 3
ENDMDL
MODEL 4
REMARK VINA RESULT:      -7.2      2.430      5.114
REMARK  Name = 
REMARK  3 active torsions:
REMARK  status: ('A' for Active; 'I' for Inactive)
REMARK    1  A    between atoms: C_2  and  C_3
REMARK    2  A    between atoms: N_15  and  C_16
REMARK    3  A    between atoms: C_16  and  C_17
REMARK                            x       y       z     vdW  Elec       q    Type
REMARK                         _______ _______ _______ _____ _____    ______ ____
ROOT
ATOM      1  O   UNL     1       2.784   8.475  17.716  0.00  0.00    +0.000 OA
ATOM      2  C   UNL     1       2.206   8.056  18.722  0.00  0.00    +0.000 C 
ATOM      3  N   UNL     1       1.471   8.906  19.563  0.00  0.00    +0.000 N 
ATOM      4  C   UNL     1       1.052   8.537  20.920  0.00  0.00    +0.000 C 
ATOM      5  C   UNL     1      -0.277   9.161  21.326  0.00  0.00    +0.000 C 
ATOM      6  C   UNL     1      -0.336  10.654  21.020  0.00  0.00    +0.000 C 
ATOM      7  C   UNL     1       0.060  10.960  19.562  0.00  0.00    +0.000 C 
ATOM      8  C   UNL     1       0.064  12.493  19.327  0.00  0.00    +0.000 C 
ATOM      9  C   UNL     1      -0.829  12.729  18.125  0.00  0.00    +0.000 C 
ATOM     10  N   UNL     1      -1.670  11.570  18.086  0.00  0.00    +0.000 N 
ATOM     11  C   UNL     1      -1.061  10.467  18.646  0.00  0.00    +0.000 C 
ATOM     12  O   UNL     1      -1.432   9.312  18.496  0.00  0.00    +0.000 OA
ATOM     13  C   UNL     1       1.412  10.328  19.230  0.00  0.00    +0.000 C 
ENDROOT
BRANCH   2  14
ATOM     14  C   UNL     1       2.213   6.554  19.090  0.00  0.00    +0.000 C 
ATOM     15  C   UNL     1       2.169   5.603  17.904  0.00  0.00    +0.000 C 
ATOM     16  C   UNL     1       3.578   5.089  17.763  0.00  0.00    +0.000 C 
ATOM     17  C   UNL     1       4.232   5.374  19.094  0.00  0.00    +0.000 C 
ATOM     18  O   UNL     1       3.370   6.211  19.860  0.00  0.00    +0.000 OA
ENDBRANCH   2  14
BRANCH  10  19
ATOM     19  C   UNL     1      -2.964  11.536  17.437  0.00  0.00    +0.000 C 
BRANCH  19  20
ATOM     20  C   UNL     1      -4.072  11.621  18.459  0.00  0.00    +0.000 A 
ATOM     21  C   UNL     1      -5.295  10.975  18.255  0.00  0.00    +0.000 A 
ATOM     22  C   UNL     1      -6.298  11.127  19.200  0.00  0.00    +0.000 A 
ATOM     23  N   UNL     1      -6.171  11.869  20.320  0.00  0.00    +0.000 NA
ATOM     24  C   UNL     1      -4.985  12.490  20.502  0.00  0.00    +0.000 A 
ATOM     25  C   UNL     1      -3.924  12.403  19.613  0.00  0.00    +0.000 A 
ENDBRANCH  19  20
ENDBRANCH  10  19
TORSDOF 3
ENDMDL
MODEL 5
REMARK VINA RESULT:      -7.1      3.215      7.940
REMARK  Name = 
REMARK  3 active torsions:
REMARK  status: ('A' for Active; 'I' for Inactive)
REMARK    1  A    between atoms: C_2  and  C_3
REMARK    2  A    between atoms: N_15  and  C_16
REMARK    3  A    between atoms: C_16  and  C_17
REMARK                            x       y       z     vdW  Elec       q    Type
REMARK                         _______ _______ _______ _____ _____    ______ ____
ROOT
ATOM      1  O   UNL     1      -3.027   9.454  18.277  0.00  0.00    +0.000 OA
ATOM      2  C   UNL     1      -2.280  10.371  17.928  0.00  0.00    +0.000 C 
ATOM      3  N   UNL     1      -1.167  10.753  18.691  0.00  0.00    +0.000 N 
ATOM      4  C   UNL     1      -0.454  12.021  18.503  0.00  0.00    +0.000 C 
ATOM      5  C   UNL     1       1.037  11.919  18.802  0.00  0.00    +0.000 C 
ATOM      6  C   UNL     1       1.318  11.215  20.126  0.00  0.00    +0.000 C 
ATOM      7  C   UNL     1       0.584   9.864  20.228  0.00  0.00    +0.000 C 
ATOM      8  C   UNL     1       0.835   9.230  21.620  0.00  0.00    +0.000 C 
ATOM      9  C   UNL     1       1.361   7.834  21.350  0.00  0.00    +0.000 C 
ATOM     10  N   UNL     1       1.887   7.915  20.020  0.00  0.00    +0.000 N 
ATOM     11  C   UNL     1       1.252   8.879  19.267  0.00  0.00    +0.000 C 
ATOM     12  O   UNL     1       1.308   8.965  18.050  0.00  0.00    +0.000 OA
ATOM     13  C   UNL     1      -0.909  10.043  19.943  0.00  0.00    +0.000 C 
ENDROOT
BRANCH   2  14
ATOM     14  C   UNL     1      -2.496  11.123  16.594  0.00  0.00    +0.000 C 
ATOM     15  C   UNL     1      -2.438  10.251  15.349  0.00  0.00    +0.000 C 
ATOM     16  C   UNL     1      -3.874  10.070  14.932  0.00  0.00    +0.000 C 
ATOM     17  C   UNL     1      -4.627  11.178  15.629  0.00  0.00    +0.000 C 
ATOM     18  O   UNL     1      -3.759  11.798  16.575  0.00  0.00    +0.000 OA
ENDBRANCH   2  14
BRANCH  10  19
ATOM     19  C   UNL     1       2.893   7.014  19.496  0.00  0.00    +0.000 C 
BRANCH  19  20
ATOM     20  C   UNL     1       2.307   5.641  19.264  0.00  0.00    +0.000 A 
ATOM     21  C   UNL     1       2.124   5.143  17.971  0.00  0.00    +0.000 A 
ATOM     22  C   UNL     1       1.536   3.898  17.811  0.00  0.00    +0.000 A 
ATOM     23  N   UNL     1       1.122   3.124  18.835  0.00  0.00    +0.000 NA
ATOM     24  C   UNL     1       1.302   3.620  20.079  0.00  0.00    +0.000 A 
ATOM     25  C   UNL     1       1.876   4.856  20.341  0.00  0.00    +0.000 A 
ENDBRANCH  19  20
ENDBRANCH  10  19
TORSDOF 3
ENDMDL
MODEL 6
REMARK VINA RESULT:      -7.0      3.212      8.712
REMARK  Name = 
REMARK  3 active torsions:
REMARK  status: ('A' for Active; 'I' for Inactive)
REMARK    1  A    between atoms: C_2  and  C_3
REMARK    2  A    between atoms: N_15  and  C_16
REMARK    3  A    between atoms: C_16  and  C_17
REMARK                            x       y       z     vdW  Elec       q    Type
REMARK                         _______ _______ _______ _____ _____    ______ ____
ROOT
ATOM      1  O   UNL     1       1.148  13.121  21.220  0.00  0.00    +0.000 OA
ATOM      2  C   UNL     1       0.016  12.763  20.884  0.00  0.00    +0.000 C 
ATOM      3  N   UNL     1      -0.195  11.881  19.813  0.00  0.00    +0.000 N 
ATOM      4  C   UNL     1      -1.500  11.688  19.171  0.00  0.00    +0.000 C 
ATOM      5  C   UNL     1      -1.707  10.270  18.652  0.00  0.00    +0.000 C 
ATOM      6  C   UNL     1      -0.514   9.766  17.846  0.00  0.00    +0.000 C 
ATOM      7  C   UNL     1       0.814   9.948  18.607  0.00  0.00    +0.000 C 
ATOM      8  C   UNL     1       2.000   9.499  17.714  0.00  0.00    +0.000 C 
ATOM      9  C   UNL     1       2.776   8.488  18.536  0.00  0.00    +0.000 C 
ATOM     10  N   UNL     1       1.820   8.011  19.490  0.00  0.00    +0.000 N 
ATOM     11  C   UNL     1       0.847   8.948  19.764  0.00  0.00    +0.000 C 
ATOM     12  O   UNL     1       0.090   8.911  20.723  0.00  0.00    +0.000 OA
ATOM     13  C   UNL     1       0.969  11.396  19.075  0.00  0.00    +0.000 C 
ENDROOT
BRANCH   2  14
ATOM     14  C   UNL     1      -1.240  13.224  21.660  0.00  0.00    +0.000 C 
ATOM     15  C   UNL     1      -1.104  13.197  23.174  0.00  0.00    +0.000 C 
ATOM     16  C   UNL     1      -0.909  14.636  23.575  0.00  0.00    +0.000 C 
ATOM     17  C   UNL     1      -1.397  15.440  22.393  0.00  0.00    +0.000 C 
ATOM     18  O   UNL     1      -1.617  14.557  21.296  0.00  0.00    +0.000 OA
ENDBRANCH   2  14
BRANCH  10  19
ATOM     19  C   UNL     1       1.926   6.736  20.168  0.00  0.00    +0.000 C 
BRANCH  19  20
ATOM     20  C   UNL     1       2.649   5.732  19.301  0.00  0.00    +0.000 A 
ATOM     21  C   UNL     1       1.983   5.044  18.282  0.00  0.00    +0.000 A 
ATOM     22  C   UNL     1       2.679   4.097  17.549  0.00  0.00    +0.000 A 
ATOM     23  N   UNL     1       3.977   3.790  17.755  0.00  0.00    +0.000 NA
ATOM     24  C   UNL     1       4.607   4.461  18.744  0.00  0.00    +0.000 A 
ATOM     25  C   UNL     1       3.995   5.422  19.535  0.00  0.00    +0.000 A 
ENDBRANCH  19  20
ENDBRANCH  10  19
TORSDOF 3
ENDMDL
MODEL 7
REMARK VINA RESULT:      -7.0      1.467      1.673
REMARK  Name = 
REMARK  3 active torsions:
REMARK  status: ('A' for Active; 'I' for Inactive)
REMARK    1  A    between atoms: C_2  and  C_3
REMARK    2  A    between atoms: N_15  and  C_16
REMARK    3  A    between atoms: C_16  and  C_17
REMARK                            x       y       z     vdW  Elec       q    Type
REMARK                         _______ _______ _______ _____ _____    ______ ____
ROOT
ATOM      1  O   UNL     1       6.467   4.821  19.015  0.00  0.00    +0.000 OA
ATOM      2  C   UNL     1       5.695   4.325  18.189  0.00  0.00    +0.000 C 
ATOM      3  N   UNL     1       4.317   4.222  18.431  0.00  0.00    +0.000 N 
ATOM      4  C   UNL     1       3.421   3.361  17.651  0.00  0.00    +0.000 C 
ATOM      5  C   UNL     1       2.014   3.930  17.516  0.00  0.00    +0.000 C 
ATOM      6  C   UNL     1       1.447   4.403  18.851  0.00  0.00    +0.000 C 
ATOM      7  C   UNL     1       2.417   5.349  19.586  0.00  0.00    +0.000 C 
ATOM      8  C   UNL     1       1.832   5.734  20.970  0.00  0.00    +0.000 C 
ATOM      9  C   UNL     1       1.838   7.250  21.014  0.00  0.00    +0.000 C 
ATOM     10  N   UNL     1       1.857   7.635  19.634  0.00  0.00    +0.000 N 
ATOM     11  C   UNL     1       2.451   6.681  18.835  0.00  0.00    +0.000 C 
ATOM     12  O   UNL     1       2.842   6.870  17.693  0.00  0.00    +0.000 OA
ATOM     13  C   UNL     1       3.800   4.707  19.710  0.00  0.00    +0.000 C 
ENDROOT
BRANCH   2  14
ATOM     14  C   UNL     1       6.196   3.833  16.811  0.00  0.00    +0.000 C 
ATOM     15  C   UNL     1       5.256   4.115  15.649  0.00  0.00    +0.000 C 
ATOM     16  C   UNL     1       5.870   5.284  14.925  0.00  0.00    +0.000 C 
ATOM     17  C   UNL     1       7.308   5.318  15.387  0.00  0.00    +0.000 C 
ATOM     18  O   UNL     1       7.461   4.414  16.479  0.00  0.00    +0.000 OA
ENDBRANCH   2  14
BRANCH  10  19
ATOM     19  C   UNL     1       1.403   8.923  19.152  0.00  0.00    +0.000 C 
BRANCH  19  20
ATOM     20  C   UNL     1       0.849   9.750  20.288  0.00  0.00    +0.000 A 
ATOM     21  C   UNL     1       0.196   9.148  21.368  0.00  0.00    +0.000 A 
ATOM     22  C   UNL     1      -0.340   9.956  22.359  0.00  0.00    +0.000 A 
ATOM     23  N   UNL     1      -0.273  11.303  22.351  0.00  0.00    +0.000 NA
ATOM     24  C   UNL     1       0.359  11.870  21.300  0.00  0.00    +0.000 A 
ATOM     25  C   UNL     1       0.922  11.148  20.257  0.00  0.00    +0.000 A 
ENDBRANCH  19  20
ENDBRANCH  10  19
TORSDOF 3
ENDMDL
MODEL 8
REMARK VINA RESULT:      -6.8      3.596      8.315
REMARK  Name = 
REMARK  3 active torsions:
REMARK  status: ('A' for Active; 'I' for Inactive)
REMARK    1  A    between atoms: C_2  and  C_3
REMARK    2  A    between atoms: N_15  and  C_16
REMARK    3  A    between atoms: C_16  and  C_17
REMARK                            x       y       z     vdW  Elec       q    Type
REMARK                         _______ _______ _______ _____ _____    ______ ____
ROOT
ATOM      1  O   UNL     1       1.657  13.151  20.488  0.00  0.00    +0.000 OA
ATOM      2  C   UNL     1       0.506  12.837  20.171  0.00  0.00    +0.000 C 
ATOM      3  N   UNL     1       0.244  11.810  19.252  0.00  0.00    +0.000 N 
ATOM      4  C   UNL     1      -1.057  11.621  18.601  0.00  0.00    +0.000 C 
ATOM      5  C   UNL     1      -1.376  10.159  18.315  0.00  0.00    +0.000 C 
ATOM      6  C   UNL     1      -0.213   9.429  17.650  0.00  0.00    +0.000 C 
ATOM      7  C   UNL     1       1.107   9.624  18.422  0.00  0.00    +0.000 C 
ATOM      8  C   UNL     1       2.269   8.934  17.662  0.00  0.00    +0.000 C 
ATOM      9  C   UNL     1       2.932   8.014  18.669  0.00  0.00    +0.000 C 
ATOM     10  N   UNL     1       1.914   7.785  19.650  0.00  0.00    +0.000 N 
ATOM     11  C   UNL     1       1.022   8.833  19.728  0.00  0.00    +0.000 C 
ATOM     12  O   UNL     1       0.242   9.021  20.650  0.00  0.00    +0.000 OA
ATOM     13  C   UNL     1       1.378  11.112  18.650  0.00  0.00    +0.000 C 
ENDROOT
BRANCH   2  14
ATOM     14  C   UNL     1      -0.722  13.526  20.811  0.00  0.00    +0.000 C 
ATOM     15  C   UNL     1      -1.404  12.728  21.911  0.00  0.00    +0.000 C 
ATOM     16  C   UNL     1      -0.964  13.380  23.196  0.00  0.00    +0.000 C 
ATOM     17  C   UNL     1      -0.463  14.746  22.790  0.00  0.00    +0.000 C 
ATOM     18  O   UNL     1      -0.374  14.798  21.368  0.00  0.00    +0.000 OA
ENDBRANCH   2  14
BRANCH  10  19
ATOM     19  C   UNL     1       1.889   6.637  20.532  0.00  0.00    +0.000 C 
BRANCH  19  20
ATOM     20  C   UNL     1       1.611   5.374  19.751  0.00  0.00    +0.000 A 
ATOM     21  C   UNL     1       1.088   4.238  20.376  0.00  0.00    +0.000 A 
ATOM     22  C   UNL     1       0.899   3.089  19.626  0.00  0.00    +0.000 A 
ATOM     23  N   UNL     1       1.191   2.991  18.312  0.00  0.00    +0.000 NA
ATOM     24  C   UNL     1       1.698   4.095  17.722  0.00  0.00    +0.000 A 
ATOM     25  C   UNL     1       1.928   5.290  18.389  0.00  0.00    +0.000 A 
ENDBRANCH  19  20
ENDBRANCH  10  19
TORSDOF 3
ENDMDL
MODEL 9
REMARK VINA RESULT:      -6.7      3.221      8.394
REMARK  Name = 
REMARK  3 active torsions:
REMARK  status: ('A' for Active; 'I' for Inactive)
REMARK    1  A    between atoms: C_2  and  C_3
REMARK    2  A    between atoms: N_15  and  C_16
REMARK    3  A    between atoms: C_16  and  C_17
REMARK                            x       y       z     vdW  Elec       q    Type
REMARK                         _______ _______ _______ _____ _____    ______ ____
ROOT
ATOM      1  O   UNL     1       2.487  13.193  20.055  0.00  0.00    +0.000 OA
ATOM      2  C   UNL     1       1.267  13.018  20.007  0.00  0.00    +0.000 C 
ATOM      3  N   UNL     1       0.694  11.991  19.243  0.00  0.00    +0.000 N 
ATOM      4  C   UNL     1      -0.729  11.943  18.889  0.00  0.00    +0.000 C 
ATOM      5  C   UNL     1      -1.273  10.524  18.787  0.00  0.00    +0.000 C 
ATOM      6  C   UNL     1      -0.374   9.615  17.954  0.00  0.00    +0.000 C 
ATOM      7  C   UNL     1       1.094   9.672  18.420  0.00  0.00    +0.000 C 
ATOM      8  C   UNL     1       1.977   8.799  17.492  0.00  0.00    +0.000 C 
ATOM      9  C   UNL     1       2.726   7.849  18.408  0.00  0.00    +0.000 C 
ATOM     10  N   UNL     1       1.922   7.806  19.592  0.00  0.00    +0.000 N 
ATOM     11  C   UNL     1       1.197   8.965  19.773  0.00  0.00    +0.000 C 
ATOM     12  O   UNL     1       0.661   9.298  20.818  0.00  0.00    +0.000 OA
ATOM     13  C   UNL     1       1.583  11.121  18.475  0.00  0.00    +0.000 C 
ENDROOT
BRANCH   2  14
ATOM     14  C   UNL     1       0.294  13.893  20.832  0.00  0.00    +0.000 C 
ATOM     15  C   UNL     1       0.915  14.580  22.039  0.00  0.00    +0.000 C 
ATOM     16  C   UNL     1       1.100  16.015  21.620  0.00  0.00    +0.000 C 
ATOM     17  C   UNL     1       0.186  16.195  20.432  0.00  0.00    +0.000 C 
ATOM     18  O   UNL     1      -0.298  14.917  20.026  0.00  0.00    +0.000 OA
ENDBRANCH   2  14
BRANCH  10  19
ATOM     19  C   UNL     1       1.951   6.716  20.545  0.00  0.00    +0.000 C 
BRANCH  19  20
ATOM     20  C   UNL     1       2.397   5.437  19.875  0.00  0.00    +0.000 A 
ATOM     21  C   UNL     1       1.467   4.518  19.379  0.00  0.00    +0.000 A 
ATOM     22  C   UNL     1       1.928   3.337  18.820  0.00  0.00    +0.000 A 
ATOM     23  N   UNL     1       3.233   3.010  18.720  0.00  0.00    +0.000 NA
ATOM     24  C   UNL     1       4.120   3.906  19.206  0.00  0.00    +0.000 A 
ATOM     25  C   UNL     1       3.757   5.112  19.788  0.00  0.00    +0.000 A 
ENDBRANCH  19  20
ENDBRANCH  10  19
TORSDOF 3
ENDMDL
