MODEL 1
REMARK VINA RESULT:      -8.0      0.000      0.000
REMARK  Name = 
REMARK  6 active torsions:
REMARK  status: ('A' for Active; 'I' for Inactive)
REMARK    1  A    between atoms: C_4  and  N_5
REMARK    2  A    between atoms: N_5  and  C_6
REMARK    3  A    between atoms: C_6  and  C_7
REMARK    4  A    between atoms: C_10  and  C_11
REMARK    5  A    between atoms: C_11  and  N_12
REMARK    6  A    between atoms: N_12  and  C_13
REMARK                            x       y       z     vdW  Elec       q    Type
REMARK                         _______ _______ _______ _____ _____    ______ ____
ROOT
ATOM      1  C   UNL     1       6.205   5.219  17.714  0.00  0.00    +0.000 A 
ATOM      2  C   UNL     1       7.269   5.395  18.604  0.00  0.00    +0.000 A 
ATOM      3  C   UNL     1       7.952   6.611  18.642  0.00  0.00    +0.000 A 
ATOM      4  C   UNL     1       7.558   7.636  17.783  0.00  0.00    +0.000 A 
ATOM      5  N   UNL     1       6.543   7.477  16.897  0.00  0.00    +0.000 NA
ATOM      6  C   UNL     1       5.903   6.284  16.877  0.00  0.00    +0.000 A 
ENDROOT
BRANCH   1   7
ATOM      7  C   UNL     1       5.419   3.937  17.670  0.00  0.00    +0.000 C 
BRANCH   7   8
ATOM      8  N   UNL     1       5.062   3.515  19.020  0.00  0.00    +0.000 N 
ATOM      9  H   UNL     1       5.497   2.628  19.265  0.00  0.00    +0.000 HD
BRANCH   8  13
ATOM     10  C   UNL     1       0.999   3.388  20.192  0.00  0.00    +0.000 A 
ATOM     11  C   UNL     1       1.553   2.372  19.421  0.00  0.00    +0.000 A 
ATOM     12  C   UNL     1       2.896   2.436  19.035  0.00  0.00    +0.000 A 
ATOM     13  C   UNL     1       3.705   3.531  19.379  0.00  0.00    +0.000 A 
ATOM     14  C   UNL     1       3.137   4.523  20.190  0.00  0.00    +0.000 A 
ATOM     15  C   UNL     1       1.795   4.459  20.584  0.00  0.00    +0.000 A 
ENDBRANCH   8  13
ENDBRANCH   7   8
ENDBRANCH   1   7
BRANCH   4  16
ATOM     16  C   UNL     1       8.254   8.987  17.821  0.00  0.00    +0.000 C 
BRANCH  16  17
ATOM     17  N   UNL     1       8.886   9.232  19.119  0.00  0.00    +0.000 N 
ATOM     18  H   UNL     1       8.311   8.937  19.902  0.00  0.00    +0.000 HD
BRANCH  17  19
ATOM     19  C   UNL     1       9.519  10.460  19.343  0.00  0.00    +0.000 A 
ATOM     20  C   UNL     1       9.955  11.207  18.239  0.00  0.00    +0.000 A 
ATOM     21  C   UNL     1      10.562  12.459  18.398  0.00  0.00    +0.000 A 
ATOM     22  C   UNL     1      10.711  13.003  19.668  0.00  0.00    +0.000 A 
ATOM     23  C   UNL     1      10.231  12.307  20.773  0.00  0.00    +0.000 A 
ATOM     24  C   UNL     1       9.628  11.054  20.607  0.00  0.00    +0.000 A 
ENDBRANCH  17  19
ENDBRANCH  16  17
ENDBRANCH   4  16
TORSDOF 6
ENDMDL
MODEL 2
REMARK VINA RESULT:      -7.9      0.381      1.089
REMARK  Name = 
REMARK  6 active torsions:
REMARK  status: ('A' for Active; 'I' for Inactive)
REMARK    1  A    between atoms: C_4  and  N_5
REMARK    2  A    between atoms: N_5  and  C_6
REMARK    3  A    between atoms: C_6  and  C_7
REMARK    4  A    between atoms: C_10  and  C_11
REMARK    5  A    between atoms: C_11  and  N_12
REMARK    6  A    between atoms: N_12  and  C_13
REMARK                            x       y       z     vdW  Elec       q    Type
REMARK                         _______ _______ _______ _____ _____    ______ ____
ROOT
ATOM      1  C   UNL     1       6.328   5.216  17.704  0.00  0.00    +0.000 A 
ATOM      2  C   UNL     1       7.349   5.444  18.630  0.00  0.00    +0.000 A 
ATOM      3  C   UNL     1       7.983   6.686  18.681  0.00  0.00    +0.000 A 
ATOM      4  C   UNL     1       7.582   7.686  17.796  0.00  0.00    +0.000 A 
ATOM      5  N   UNL     1       6.608   7.478  16.873  0.00  0.00    +0.000 NA
ATOM      6  C   UNL     1       6.017   6.260  16.843  0.00  0.00    +0.000 A 
ENDROOT
BRANCH   1   7
ATOM      7  C   UNL     1       5.595   3.903  17.644  0.00  0.00    +0.000 C 
BRANCH   7   8
ATOM      8  N   UNL     1       5.112   3.533  18.970  0.00  0.00    +0.000 N 
ATOM      9  H   UNL     1       5.628   2.743  19.352  0.00  0.00    +0.000 HD
BRANCH   8  13
ATOM     10  C   UNL     1       0.976   2.849  19.534  0.00  0.00    +0.000 A 
ATOM     11  C   UNL     1       1.691   2.149  18.569  0.00  0.00    +0.000 A 
ATOM     12  C   UNL     1       3.056   2.396  18.391  0.00  0.00    +0.000 A 
ATOM     13  C   UNL     1       3.728   3.370  19.145  0.00  0.00    +0.000 A 
ATOM     14  C   UNL     1       2.997   4.035  20.139  0.00  0.00    +0.000 A 
ATOM     15  C   UNL     1       1.632   3.785  20.326  0.00  0.00    +0.000 A 
ENDBRANCH   8  13
ENDBRANCH   7   8
ENDBRANCH   1   7
BRANCH   4  16
ATOM     16  C   UNL     1       8.221   9.064  17.845  0.00  0.00    +0.000 C 
BRANCH  16  17
ATOM     17  N   UNL     1       8.966   9.269  19.088  0.00  0.00    +0.000 N 
ATOM     18  H   UNL     1       8.495   8.885  19.901  0.00  0.00    +0.000 HD
BRANCH  17  19
ATOM     19  C   UNL     1       9.539  10.522  19.336  0.00  0.00    +0.000 A 
ATOM     20  C   UNL     1       9.563  11.007  20.651  0.00  0.00    +0.000 A 
ATOM     21  C   UNL     1      10.154  12.236  20.966  0.00  0.00    +0.000 A 
ATOM     22  C   UNL     1      10.768  12.988  19.971  0.00  0.00    +0.000 A 
ATOM     23  C   UNL     1      10.810  12.498  18.670  0.00  0.00    +0.000 A 
ATOM     24  C   UNL     1      10.213  11.270  18.361  0.00  0.00    +0.000 A 
ENDBRANCH  17  19
ENDBRANCH  16  17
ENDBRANCH   4  16
TORSDOF 6
ENDMDL
MODEL 3
REMARK VINA RESULT:      -7.9      0.724      1.227
REMARK  Name = 
REMARK  6 active torsions:
REMARK  status: ('A' for Active; 'I' for Inactive)
REMARK    1  A    between atoms: C_4  and  N_5
REMARK    2  A    between atoms: N_5  and  C_6
REMARK    3  A    between atoms: C_6  and  C_7
REMARK    4  A    between atoms: C_10  and  C_11
REMARK    5  A    between atoms: C_11  and  N_12
REMARK    6  A    between atoms: N_12  and  C_13
REMARK                            x       y       z     vdW  Elec       q    Type
REMARK                         _______ _______ _______ _____ _____    ______ ____
ROOT
ATOM      1  C   UNL     1       5.965   5.291  17.583  0.00  0.00    +0.000 A 
ATOM      2  C   UNL     1       7.036   5.395  18.475  0.00  0.00    +0.000 A 
ATOM      3  C   UNL     1       7.788   6.569  18.530  0.00  0.00    +0.000 A 
ATOM      4  C   UNL     1       7.455   7.625  17.684  0.00  0.00    +0.000 A 
ATOM      5  N   UNL     1       6.434   7.537  16.794  0.00  0.00    +0.000 NA
ATOM      6  C   UNL     1       5.726   6.382  16.758  0.00  0.00    +0.000 A 
ENDROOT
BRANCH   1   7
ATOM      7  C   UNL     1       5.107   4.057  17.521  0.00  0.00    +0.000 C 
BRANCH   7   8
ATOM      8  N   UNL     1       3.702   4.425  17.382  0.00  0.00    +0.000 N 
ATOM      9  H   UNL     1       3.593   5.392  17.085  0.00  0.00    +0.000 HD
BRANCH   8  13
ATOM     10  C   UNL     1       1.013   3.682  20.562  0.00  0.00    +0.000 A 
ATOM     11  C   UNL     1       1.971   4.685  20.656  0.00  0.00    +0.000 A 
ATOM     12  C   UNL     1       2.858   4.909  19.597  0.00  0.00    +0.000 A 
ATOM     13  C   UNL     1       2.831   4.116  18.439  0.00  0.00    +0.000 A 
ATOM     14  C   UNL     1       1.832   3.138  18.350  0.00  0.00    +0.000 A 
ATOM     15  C   UNL     1       0.938   2.914  19.405  0.00  0.00    +0.000 A 
ENDBRANCH   8  13
ENDBRANCH   7   8
ENDBRANCH   1   7
BRANCH   4  16
ATOM     16  C   UNL     1       8.227   8.933  17.740  0.00  0.00    +0.000 C 
BRANCH  16  17
ATOM     17  N   UNL     1       8.823   9.152  19.059  0.00  0.00    +0.000 N 
ATOM     18  H   UNL     1       8.218   8.862  19.820  0.00  0.00    +0.000 HD
BRANCH  17  19
ATOM     19  C   UNL     1       9.474  10.364  19.316  0.00  0.00    +0.000 A 
ATOM     20  C   UNL     1       9.912  11.139  18.233  0.00  0.00    +0.000 A 
ATOM     21  C   UNL     1      10.537  12.378  18.425  0.00  0.00    +0.000 A 
ATOM     22  C   UNL     1      10.701  12.881  19.710  0.00  0.00    +0.000 A 
ATOM     23  C   UNL     1      10.219  12.158  20.796  0.00  0.00    +0.000 A 
ATOM     24  C   UNL     1       9.599  10.918  20.596  0.00  0.00    +0.000 A 
ENDBRANCH  17  19
ENDBRANCH  16  17
ENDBRANCH   4  16
TORSDOF 6
ENDMDL
MODEL 4
REMARK VINA RESULT:      -7.9      0.741      9.092
REMARK  Name = 
REMARK  6 active torsions:
REMARK  status: ('A' for Active; 'I' for Inactive)
REMARK    1  A    between atoms: C_4  and  N_5
REMARK    2  A    between atoms: N_5  and  C_6
REMARK    3  A    between atoms: C_6  and  C_7
REMARK    4  A    between atoms: C_10  and  C_11
REMARK    5  A    between atoms: C_11  and  N_12
REMARK    6  A    between atoms: N_12  and  C_13
REMARK                            x       y       z     vdW  Elec       q    Type
REMARK                         _______ _______ _______ _____ _____    ______ ____
ROOT
ATOM      1  C   UNL     1       7.504   7.630  17.879  0.00  0.00    +0.000 A 
ATOM      2  C   UNL     1       7.977   6.579  18.670  0.00  0.00    +0.000 A 
ATOM      3  C   UNL     1       7.330   5.343  18.647  0.00  0.00    +0.000 A 
ATOM      4  C   UNL     1       6.214   5.179  17.830  0.00  0.00    +0.000 A 
ATOM      5  N   UNL     1       5.725   6.193  17.072  0.00  0.00    +0.000 NA
ATOM      6  C   UNL     1       6.368   7.384  17.119  0.00  0.00    +0.000 A 
ENDROOT
BRANCH   1   7
ATOM      7  C   UNL     1       8.196   8.966  17.846  0.00  0.00    +0.000 C 
BRANCH   7   8
ATOM      8  N   UNL     1       8.897   9.203  19.103  0.00  0.00    +0.000 N 
ATOM      9  H   UNL     1       8.330   8.938  19.906  0.00  0.00    +0.000 HD
BRANCH   8  13
ATOM     10  C   UNL     1      10.830  12.898  19.818  0.00  0.00    +0.000 A 
ATOM     11  C   UNL     1      10.242  12.186  20.857  0.00  0.00    +0.000 A 
ATOM     12  C   UNL     1       9.599  10.970  20.600  0.00  0.00    +0.000 A 
ATOM     13  C   UNL     1       9.497  10.458  19.297  0.00  0.00    +0.000 A 
ATOM     14  C   UNL     1      10.132  11.171  18.271  0.00  0.00    +0.000 A 
ATOM     15  C   UNL     1      10.783  12.385  18.526  0.00  0.00    +0.000 A 
ENDBRANCH   8  13
ENDBRANCH   7   8
ENDBRANCH   1   7
BRANCH   4  16
ATOM     16  C   UNL     1       5.505   3.836  17.750  0.00  0.00    +0.000 C 
BRANCH  16  17
ATOM     17  N   UNL     1       5.089   3.366  19.072  0.00  0.00    +0.000 N 
ATOM     18  H   UNL     1       5.588   2.534  19.371  0.00  0.00    +0.000 HD
BRANCH  17  19
ATOM     19  C   UNL     1       3.724   3.318  19.376  0.00  0.00    +0.000 A 
ATOM     20  C   UNL     1       3.321   2.757  20.596  0.00  0.00    +0.000 A 
ATOM     21  C   UNL     1       1.973   2.714  20.972  0.00  0.00    +0.000 A 
ATOM     22  C   UNL     1       1.003   3.269  20.146  0.00  0.00    +0.000 A 
ATOM     23  C   UNL     1       1.386   3.886  18.959  0.00  0.00    +0.000 A 
ATOM     24  C   UNL     1       2.735   3.922  18.588  0.00  0.00    +0.000 A 
ENDBRANCH  17  19
ENDBRANCH  16  17
ENDBRANCH   4  16
TORSDOF 6
ENDMDL
MODEL 5
REMARK VINA RESULT:      -7.9      0.759      9.042
REMARK  Name = 
REMARK  6 active torsions:
REMARK  status: ('A' for Active; 'I' for Inactive)
REMARK    1  A    between atoms: C_4  and  N_5
REMARK    2  A    between atoms: N_5  and  C_6
REMARK    3  A    between atoms: C_6  and  C_7
REMARK    4  A    between atoms: C_10  and  C_11
REMARK    5  A    between atoms: C_11  and  N_12
REMARK    6  A    between atoms: N_12  and  C_13
REMARK                            x       y       z     vdW  Elec       q    Type
REMARK                         _______ _______ _______ _____ _____    ______ ____
ROOT
ATOM      1  C   UNL     1       7.527   7.696  17.899  0.00  0.00    +0.000 A 
ATOM      2  C   UNL     1       8.000   6.623  18.659  0.00  0.00    +0.000 A 
ATOM      3  C   UNL     1       7.344   5.392  18.612  0.00  0.00    +0.000 A 
ATOM      4  C   UNL     1       6.218   5.257  17.802  0.00  0.00    +0.000 A 
ATOM      5  N   UNL     1       5.729   6.293  17.074  0.00  0.00    +0.000 NA
ATOM      6  C   UNL     1       6.382   7.477  17.145  0.00  0.00    +0.000 A 
ENDROOT
BRANCH   1   7
ATOM      7  C   UNL     1       8.229   9.028  17.893  0.00  0.00    +0.000 C 
BRANCH   7   8
ATOM      8  N   UNL     1       8.957   9.221  19.142  0.00  0.00    +0.000 N 
ATOM      9  H   UNL     1       8.425   8.889  19.944  0.00  0.00    +0.000 HD
BRANCH   8  13
ATOM     10  C   UNL     1      10.750  12.947  20.035  0.00  0.00    +0.000 A 
ATOM     11  C   UNL     1      10.072  12.228  21.012  0.00  0.00    +0.000 A 
ATOM     12  C   UNL     1       9.477  11.002  20.695  0.00  0.00    +0.000 A 
ATOM     13  C   UNL     1       9.515  10.486  19.391  0.00  0.00    +0.000 A 
ATOM     14  C   UNL     1      10.239  11.207  18.432  0.00  0.00    +0.000 A 
ATOM     15  C   UNL     1      10.841  12.431  18.747  0.00  0.00    +0.000 A 
ENDBRANCH   8  13
ENDBRANCH   7   8
ENDBRANCH   1   7
BRANCH   4  16
ATOM     16  C   UNL     1       5.498   3.922  17.695  0.00  0.00    +0.000 C 
BRANCH  16  17
ATOM     17  N   UNL     1       5.096   3.419  19.010  0.00  0.00    +0.000 N 
ATOM     18  H   UNL     1       5.577   2.564  19.271  0.00  0.00    +0.000 HD
BRANCH  17  19
ATOM     19  C   UNL     1       3.736   3.399  19.340  0.00  0.00    +0.000 A 
ATOM     20  C   UNL     1       2.802   3.826  18.386  0.00  0.00    +0.000 A 
ATOM     21  C   UNL     1       1.426   3.796  18.645  0.00  0.00    +0.000 A 
ATOM     22  C   UNL     1       0.958   3.299  19.856  0.00  0.00    +0.000 A 
ATOM     23  C   UNL     1       1.863   2.813  20.793  0.00  0.00    +0.000 A 
ATOM     24  C   UNL     1       3.238   2.850  20.529  0.00  0.00    +0.000 A 
ENDBRANCH  17  19
ENDBRANCH  16  17
ENDBRANCH   4  16
TORSDOF 6
ENDMDL
MODEL 6
REMARK VINA RESULT:      -7.8      0.438      9.020
REMARK  Name = 
REMARK  6 active torsions:
REMARK  status: ('A' for Active; 'I' for Inactive)
REMARK    1  A    between atoms: C_4  and  N_5
REMARK    2  A    between atoms: N_5  and  C_6
REMARK    3  A    between atoms: C_6  and  C_7
REMARK    4  A    between atoms: C_10  and  C_11
REMARK    5  A    between atoms: C_11  and  N_12
REMARK    6  A    between atoms: N_12  and  C_13
REMARK                            x       y       z     vdW  Elec       q    Type
REMARK                         _______ _______ _______ _____ _____    ______ ____
ROOT
ATOM      1  C   UNL     1       7.550   7.619  17.905  0.00  0.00    +0.000 A 
ATOM      2  C   UNL     1       7.998   6.560  18.698  0.00  0.00    +0.000 A 
ATOM      3  C   UNL     1       7.316   5.342  18.688  0.00  0.00    +0.000 A 
ATOM      4  C   UNL     1       6.189   5.206  17.880  0.00  0.00    +0.000 A 
ATOM      5  N   UNL     1       5.723   6.229  17.120  0.00  0.00    +0.000 NA
ATOM      6  C   UNL     1       6.401   7.401  17.156  0.00  0.00    +0.000 A 
ENDROOT
BRANCH   1   7
ATOM      7  C   UNL     1       8.280   8.934  17.859  0.00  0.00    +0.000 C 
BRANCH   7   8
ATOM      8  N   UNL     1       8.922   9.201  19.141  0.00  0.00    +0.000 N 
ATOM      9  H   UNL     1       8.326   8.939  19.923  0.00  0.00    +0.000 HD
BRANCH   8  13
ATOM     10  C   UNL     1      10.507  13.093  19.627  0.00  0.00    +0.000 A 
ATOM     11  C   UNL     1      10.356  12.535  18.362  0.00  0.00    +0.000 A 
ATOM     12  C   UNL     1       9.839  11.243  18.222  0.00  0.00    +0.000 A 
ATOM     13  C   UNL     1       9.496  10.467  19.340  0.00  0.00    +0.000 A 
ATOM     14  C   UNL     1       9.618  11.064  20.602  0.00  0.00    +0.000 A 
ATOM     15  C   UNL     1      10.129  12.360  20.746  0.00  0.00    +0.000 A 
ENDBRANCH   8  13
ENDBRANCH   7   8
ENDBRANCH   1   7
BRANCH   4  16
ATOM     16  C   UNL     1       5.441   3.884  17.813  0.00  0.00    +0.000 C 
BRANCH  16  17
ATOM     17  N   UNL     1       5.055   3.415  19.145  0.00  0.00    +0.000 N 
ATOM     18  H   UNL     1       5.554   2.578  19.431  0.00  0.00    +0.000 HD
BRANCH  17  19
ATOM     19  C   UNL     1       3.697   3.378  19.484  0.00  0.00    +0.000 A 
ATOM     20  C   UNL     1       3.125   4.494  20.110  0.00  0.00    +0.000 A 
ATOM     21  C   UNL     1       1.765   4.531  20.440  0.00  0.00    +0.000 A 
ATOM     22  C   UNL     1       0.941   3.460  20.112  0.00  0.00    +0.000 A 
ATOM     23  C   UNL     1       1.475   2.367  19.436  0.00  0.00    +0.000 A 
ATOM     24  C   UNL     1       2.837   2.336  19.113  0.00  0.00    +0.000 A 
ENDBRANCH  17  19
ENDBRANCH  16  17
ENDBRANCH   4  16
TORSDOF 6
ENDMDL
MODEL 7
REMARK VINA RESULT:      -7.8      1.006      9.043
REMARK  Name = 
REMARK  6 active torsions:
REMARK  status: ('A' for Active; 'I' for Inactive)
REMARK    1  A    between atoms: C_4  and  N_5
REMARK    2  A    between atoms: N_5  and  C_6
REMARK    3  A    between atoms: C_6  and  C_7
REMARK    4  A    between atoms: C_10  and  C_11
REMARK    5  A    between atoms: C_11  and  N_12
REMARK    6  A    between atoms: N_12  and  C_13
REMARK                            x       y       z     vdW  Elec       q    Type
REMARK                         _______ _______ _______ _____ _____    ______ ____
ROOT
ATOM      1  C   UNL     1       7.544   6.879  18.126  0.00  0.00    +0.000 A 
ATOM      2  C   UNL     1       6.582   7.153  17.150  0.00  0.00    +0.000 A 
ATOM      3  C   UNL     1       5.695   6.155  16.745  0.00  0.00    +0.000 A 
ATOM      4  C   UNL     1       5.789   4.891  17.325  0.00  0.00    +0.000 A 
ATOM      5  N   UNL     1       6.731   4.598  18.257  0.00  0.00    +0.000 NA
ATOM      6  C   UNL     1       7.582   5.585  18.626  0.00  0.00    +0.000 A 
ENDROOT
BRANCH   1   7
ATOM      7  C   UNL     1       8.492   7.939  18.618  0.00  0.00    +0.000 C 
BRANCH   7   8
ATOM      8  N   UNL     1       8.163   9.229  18.021  0.00  0.00    +0.000 N 
ATOM      9  H   UNL     1       8.216   9.199  17.005  0.00  0.00    +0.000 HD
BRANCH   8  13
ATOM     10  C   UNL     1      10.241  12.567  19.582  0.00  0.00    +0.000 A 
ATOM     11  C   UNL     1      10.102  11.400  20.325  0.00  0.00    +0.000 A 
ATOM     12  C   UNL     1       9.403  10.310  19.795  0.00  0.00    +0.000 A 
ATOM     13  C   UNL     1       8.798  10.373  18.530  0.00  0.00    +0.000 A 
ATOM     14  C   UNL     1       8.985  11.544  17.783  0.00  0.00    +0.000 A 
ATOM     15  C   UNL     1       9.690  12.635  18.307  0.00  0.00    +0.000 A 
ENDBRANCH   8  13
ENDBRANCH   7   8
ENDBRANCH   1   7
BRANCH   4  16
ATOM     16  C   UNL     1       4.817   3.788  16.937  0.00  0.00    +0.000 C 
BRANCH  16  17
ATOM     17  N   UNL     1       4.522   2.907  18.068  0.00  0.00    +0.000 N 
ATOM     18  H   UNL     1       4.753   1.936  17.885  0.00  0.00    +0.000 HD
BRANCH  17  19
ATOM     19  C   UNL     1       3.305   3.056  18.743  0.00  0.00    +0.000 A 
ATOM     20  C   UNL     1       2.165   2.421  18.232  0.00  0.00    +0.000 A 
ATOM     21  C   UNL     1       0.928   2.504  18.882  0.00  0.00    +0.000 A 
ATOM     22  C   UNL     1       0.819   3.196  20.083  0.00  0.00    +0.000 A 
ATOM     23  C   UNL     1       1.950   3.782  20.641  0.00  0.00    +0.000 A 
ATOM     24  C   UNL     1       3.183   3.699  19.982  0.00  0.00    +0.000 A 
ENDBRANCH  17  19
ENDBRANCH  16  17
ENDBRANCH   4  16
TORSDOF 6
ENDMDL
MODEL 8
REMARK VINA RESULT:      -7.7      0.965      1.683
REMARK  Name = 
REMARK  6 active torsions:
REMARK  status: ('A' for Active; 'I' for Inactive)
REMARK    1  A    between atoms: C_4  and  N_5
REMARK    2  A    between atoms: N_5  and  C_6
REMARK    3  A    between atoms: C_6  and  C_7
REMARK    4  A    between atoms: C_10  and  C_11
REMARK    5  A    between atoms: C_11  and  N_12
REMARK    6  A    between atoms: N_12  and  C_13
REMARK                            x       y       z     vdW  Elec       q    Type
REMARK                         _______ _______ _______ _____ _____    ______ ____
ROOT
ATOM      1  C   UNL     1       5.679   5.058  17.106  0.00  0.00    +0.000 A 
ATOM      2  C   UNL     1       6.645   4.695  18.048  0.00  0.00    +0.000 A 
ATOM      3  C   UNL     1       7.569   5.639  18.500  0.00  0.00    +0.000 A 
ATOM      4  C   UNL     1       7.510   6.937  17.996  0.00  0.00    +0.000 A 
ATOM      5  N   UNL     1       6.594   7.304  17.064  0.00  0.00    +0.000 NA
ATOM      6  C   UNL     1       5.715   6.365  16.639  0.00  0.00    +0.000 A 
ENDROOT
BRANCH   1   7
ATOM      7  C   UNL     1       4.642   4.080  16.623  0.00  0.00    +0.000 C 
BRANCH   7   8
ATOM      8  N   UNL     1       4.475   3.001  17.591  0.00  0.00    +0.000 N 
ATOM      9  H   UNL     1       4.631   2.089  17.168  0.00  0.00    +0.000 HD
BRANCH   8  13
ATOM     10  C   UNL     1       0.992   3.203  19.983  0.00  0.00    +0.000 A 
ATOM     11  C   UNL     1       2.168   3.831  20.378  0.00  0.00    +0.000 A 
ATOM     12  C   UNL     1       3.312   3.745  19.577  0.00  0.00    +0.000 A 
ATOM     13  C   UNL     1       3.318   3.002  18.387  0.00  0.00    +0.000 A 
ATOM     14  C   UNL     1       2.112   2.412  17.988  0.00  0.00    +0.000 A 
ATOM     15  C   UNL     1       0.962   2.502  18.782  0.00  0.00    +0.000 A 
ENDBRANCH   8  13
ENDBRANCH   7   8
ENDBRANCH   1   7
BRANCH   4  16
ATOM     16  C   UNL     1       8.474   8.003  18.491  0.00  0.00    +0.000 C 
BRANCH  16  17
ATOM     17  N   UNL     1       8.234   9.292  17.840  0.00  0.00    +0.000 N 
ATOM     18  H   UNL     1       8.367   9.259  16.834  0.00  0.00    +0.000 HD
BRANCH  17  19
ATOM     19  C   UNL     1       8.761  10.453  18.419  0.00  0.00    +0.000 A 
ATOM     20  C   UNL     1       9.452  10.348  19.634  0.00  0.00    +0.000 A 
ATOM     21  C   UNL     1      10.033  11.466  20.244  0.00  0.00    +0.000 A 
ATOM     22  C   UNL     1       9.964  12.709  19.625  0.00  0.00    +0.000 A 
ATOM     23  C   UNL     1       9.337  12.825  18.389  0.00  0.00    +0.000 A 
ATOM     24  C   UNL     1       8.755  11.703  17.787  0.00  0.00    +0.000 A 
ENDBRANCH  17  19
ENDBRANCH  16  17
ENDBRANCH   4  16
TORSDOF 6
ENDMDL
MODEL 9
REMARK VINA RESULT:      -7.7      0.695      1.466
REMARK  Name = 
REMARK  6 active torsions:
REMARK  status: ('A' for Active; 'I' for Inactive)
REMARK    1  A    between atoms: C_4  and  N_5
REMARK    2  A    between atoms: N_5  and  C_6
REMARK    3  A    between atoms: C_6  and  C_7
REMARK    4  A    between atoms: C_10  and  C_11
REMARK    5  A    between atoms: C_11  and  N_12
REMARK    6  A    between atoms: N_12  and  C_13
REMARK                            x       y       z     vdW  Elec       q    Type
REMARK                         _______ _______ _______ _____ _____    ______ ____
ROOT
ATOM      1  C   UNL     1       6.192   5.440  17.992  0.00  0.00    +0.000 A 
ATOM      2  C   UNL     1       7.349   5.637  18.751  0.00  0.00    +0.000 A 
ATOM      3  C   UNL     1       8.057   6.835  18.645  0.00  0.00    +0.000 A 
ATOM      4  C   UNL     1       7.595   7.820  17.775  0.00  0.00    +0.000 A 
ATOM      5  N   UNL     1       6.487   7.639  17.012  0.00  0.00    +0.000 NA
ATOM      6  C   UNL     1       5.824   6.464  17.130  0.00  0.00    +0.000 A 
ENDROOT
BRANCH   1   7
ATOM      7  C   UNL     1       5.380   4.179  18.106  0.00  0.00    +0.000 C 
BRANCH   7   8
ATOM      8  N   UNL     1       4.741   4.105  19.415  0.00  0.00    +0.000 N 
ATOM      9  H   UNL     1       5.316   3.603  20.087  0.00  0.00    +0.000 HD
BRANCH   8  13
ATOM     10  C   UNL     1       0.666   3.002  19.681  0.00  0.00    +0.000 A 
ATOM     11  C   UNL     1       1.395   3.322  20.821  0.00  0.00    +0.000 A 
ATOM     12  C   UNL     1       2.745   3.676  20.713  0.00  0.00    +0.000 A 
ATOM     13  C   UNL     1       3.403   3.682  19.474  0.00  0.00    +0.000 A 
ATOM     14  C   UNL     1       2.638   3.395  18.335  0.00  0.00    +0.000 A 
ATOM     15  C   UNL     1       1.286   3.048  18.437  0.00  0.00    +0.000 A 
ENDBRANCH   8  13
ENDBRANCH   7   8
ENDBRANCH   1   7
BRANCH   4  16
ATOM     16  C   UNL     1       8.317   9.152  17.660  0.00  0.00    +0.000 C 
BRANCH  16  17
ATOM     17  N   UNL     1       8.748   9.647  18.969  0.00  0.00    +0.000 N 
ATOM     18  H   UNL     1       7.983   9.745  19.627  0.00  0.00    +0.000 HD
BRANCH  17  19
ATOM     19  C   UNL     1       9.653  10.714  19.025  0.00  0.00    +0.000 A 
ATOM     20  C   UNL     1      10.084  11.169  20.279  0.00  0.00    +0.000 A 
ATOM     21  C   UNL     1      11.015  12.208  20.399  0.00  0.00    +0.000 A 
ATOM     22  C   UNL     1      11.561  12.787  19.260  0.00  0.00    +0.000 A 
ATOM     23  C   UNL     1      11.194  12.310  18.006  0.00  0.00    +0.000 A 
ATOM     24  C   UNL     1      10.260  11.273  17.893  0.00  0.00    +0.000 A 
ENDBRANCH  17  19
ENDBRANCH  16  17
ENDBRANCH   4  16
TORSDOF 6
ENDMDL
