MODEL 1
REMARK VINA RESULT:      -8.2      0.000      0.000
REMARK  Name = 
REMARK  5 active torsions:
REMARK  status: ('A' for Active; 'I' for Inactive)
REMARK    1  A    between atoms: O_1  and  C_2
REMARK    2  A    between atoms: C_6  and  C_7
REMARK    3  A    between atoms: N_19  and  C_20
REMARK    4  A    between atoms: N_23  and  C_24
REMARK    5  A    between atoms: C_24  and  C_25
REMARK                            x       y       z     vdW  Elec       q    Type
REMARK                         _______ _______ _______ _____ _____    ______ ____
ROOT
ATOM      1  C   UNL     1       7.289  16.113  19.530  0.00  0.00    +0.000 A 
ATOM      2  N   UNL     1       6.060  16.162  18.952  0.00  0.00    +0.000 NA
ATOM      3  C   UNL     1       4.986  15.637  19.597  0.00  0.00    +0.000 A 
ATOM      4  N   UNL     1       3.733  15.668  19.023  0.00  0.00    +0.000 N 
ATOM      5  C   UNL     1       3.563  15.649  17.570  0.00  0.00    +0.000 C 
ATOM      6  C   UNL     1       2.850  16.918  17.081  0.00  0.00    +0.000 C 
ATOM      7  O   UNL     1       1.634  17.163  17.812  0.00  0.00    +0.000 OA
ATOM      8  C   UNL     1       1.926  17.334  19.206  0.00  0.00    +0.000 C 
ATOM      9  C   UNL     1       2.562  16.071  19.805  0.00  0.00    +0.000 C 
ATOM     10  C   UNL     1       5.225  15.014  20.827  0.00  0.00    +0.000 A 
ATOM     11  C   UNL     1       4.476  14.279  21.764  0.00  0.00    +0.000 A 
ATOM     12  N   UNL     1       5.205  13.843  22.787  0.00  0.00    +0.000 NA
ATOM     13  N   UNL     1       6.450  14.333  22.532  0.00  0.00    +0.000 N 
ATOM     14  C   UNL     1       6.513  15.004  21.327  0.00  0.00    +0.000 A 
ATOM     15  N   UNL     1       7.586  15.548  20.723  0.00  0.00    +0.000 NA
ENDROOT
BRANCH   1  20
ATOM     16  C   UNL     1      10.103  16.645  17.006  0.00  0.00    +0.000 A 
ATOM     17  C   UNL     1      10.539  17.929  17.307  0.00  0.00    +0.000 A 
ATOM     18  C   UNL     1       9.925  18.620  18.346  0.00  0.00    +0.000 A 
ATOM     19  C   UNL     1       8.882  18.028  19.071  0.00  0.00    +0.000 A 
ATOM     20  C   UNL     1       8.413  16.731  18.775  0.00  0.00    +0.000 A 
ATOM     21  C   UNL     1       9.060  16.053  17.721  0.00  0.00    +0.000 A 
BRANCH  16  22
ATOM     22  O   UNL     1      10.678  15.921  16.006  0.00  0.00    +0.000 OA
ATOM     23  H   UNL     1      11.525  15.560  16.328  0.00  0.00    +0.000 HD
ENDBRANCH  16  22
ENDBRANCH   1  20
BRANCH  13  24
ATOM     24  C   UNL     1       7.516  14.000  23.481  0.00  0.00    +0.000 C 
ATOM     25  C   UNL     1       8.921  14.280  22.910  0.00  0.00    +0.000 C 
ATOM     26  C   UNL     1       9.231  13.325  21.757  0.00  0.00    +0.000 C 
ATOM     27  N   UNL     1       9.089  11.913  22.129  0.00  0.00    +0.000 NA
ATOM     28  C   UNL     1       7.857  11.582  22.851  0.00  0.00    +0.000 C 
ATOM     29  C   UNL     1       7.542  12.556  23.986  0.00  0.00    +0.000 C 
BRANCH  27  30
ATOM     30  C   UNL     1       9.317  11.008  20.982  0.00  0.00    +0.000 C 
BRANCH  30  31
ATOM     31  C   UNL     1      10.197  11.539  19.860  0.00  0.00    +0.000 A 
ATOM     32  C   UNL     1      11.530  11.904  20.110  0.00  0.00    +0.000 A 
ATOM     33  C   UNL     1      12.331  12.429  19.095  0.00  0.00    +0.000 A 
ATOM     34  C   UNL     1      11.817  12.583  17.811  0.00  0.00    +0.000 A 
ATOM     35  C   UNL     1      10.499  12.218  17.543  0.00  0.00    +0.000 A 
ATOM     36  C   UNL     1       9.695  11.698  18.561  0.00  0.00    +0.000 A 
ENDBRANCH  30  31
ENDBRANCH  27  30
ENDBRANCH  13  24
TORSDOF 5
ENDMDL
MODEL 2
REMARK VINA RESULT:      -8.0      6.197     10.180
REMARK  Name = 
REMARK  5 active torsions:
REMARK  status: ('A' for Active; 'I' for Inactive)
REMARK    1  A    between atoms: O_1  and  C_2
REMARK    2  A    between atoms: C_6  and  C_7
REMARK    3  A    between atoms: N_19  and  C_20
REMARK    4  A    between atoms: N_23  and  C_24
REMARK    5  A    between atoms: C_24  and  C_25
REMARK                            x       y       z     vdW  Elec       q    Type
REMARK                         _______ _______ _______ _____ _____    ______ ____
ROOT
ATOM      1  C   UNL     1      -1.795  12.474  19.571  0.00  0.00    +0.000 A 
ATOM      2  N   UNL     1      -2.711  13.042  20.399  0.00  0.00    +0.000 NA
ATOM      3  C   UNL     1      -2.299  13.855  21.407  0.00  0.00    +0.000 A 
ATOM      4  N   UNL     1      -3.211  14.434  22.264  0.00  0.00    +0.000 N 
ATOM      5  C   UNL     1      -4.483  13.781  22.572  0.00  0.00    +0.000 C 
ATOM      6  C   UNL     1      -5.670  14.653  22.138  0.00  0.00    +0.000 C 
ATOM      7  O   UNL     1      -5.561  15.996  22.645  0.00  0.00    +0.000 OA
ATOM      8  C   UNL     1      -4.362  16.609  22.151  0.00  0.00    +0.000 C 
ATOM      9  C   UNL     1      -3.111  15.852  22.617  0.00  0.00    +0.000 C 
ATOM     10  C   UNL     1      -0.919  14.022  21.567  0.00  0.00    +0.000 A 
ATOM     11  C   UNL     1      -0.065  14.660  22.485  0.00  0.00    +0.000 A 
ATOM     12  N   UNL     1       1.224  14.474  22.214  0.00  0.00    +0.000 NA
ATOM     13  N   UNL     1       1.213  13.729  21.074  0.00  0.00    +0.000 N 
ATOM     14  C   UNL     1      -0.067  13.392  20.680  0.00  0.00    +0.000 A 
ATOM     15  N   UNL     1      -0.452  12.610  19.654  0.00  0.00    +0.000 NA
ENDROOT
BRANCH   1  20
ATOM     16  C   UNL     1      -4.110  10.981  16.927  0.00  0.00    +0.000 A 
ATOM     17  C   UNL     1      -3.316   9.997  16.352  0.00  0.00    +0.000 A 
ATOM     18  C   UNL     1      -2.026   9.806  16.837  0.00  0.00    +0.000 A 
ATOM     19  C   UNL     1      -1.540  10.600  17.885  0.00  0.00    +0.000 A 
ATOM     20  C   UNL     1      -2.322  11.615  18.475  0.00  0.00    +0.000 A 
ATOM     21  C   UNL     1      -3.628  11.779  17.966  0.00  0.00    +0.000 A 
BRANCH  16  22
ATOM     22  O   UNL     1      -5.383  11.200  16.497  0.00  0.00    +0.000 OA
ATOM     23  H   UNL     1      -5.606  12.138  16.644  0.00  0.00    +0.000 HD
ENDBRANCH  16  22
ENDBRANCH   1  20
BRANCH  13  24
ATOM     24  C   UNL     1       2.506  13.325  20.517  0.00  0.00    +0.000 C 
ATOM     25  C   UNL     1       3.664  14.220  21.006  0.00  0.00    +0.000 C 
ATOM     26  C   UNL     1       3.520  15.635  20.447  0.00  0.00    +0.000 C 
ATOM     27  N   UNL     1       3.417  15.666  18.984  0.00  0.00    +0.000 NA
ATOM     28  C   UNL     1       2.469  14.708  18.408  0.00  0.00    +0.000 C 
ATOM     29  C   UNL     1       2.604  13.301  18.989  0.00  0.00    +0.000 C 
BRANCH  27  30
ATOM     30  C   UNL     1       3.202  17.035  18.468  0.00  0.00    +0.000 C 
BRANCH  30  31
ATOM     31  C   UNL     1       1.769  17.416  18.128  0.00  0.00    +0.000 A 
ATOM     32  C   UNL     1       1.456  17.978  16.879  0.00  0.00    +0.000 A 
ATOM     33  C   UNL     1       0.151  18.367  16.575  0.00  0.00    +0.000 A 
ATOM     34  C   UNL     1      -0.866  18.186  17.509  0.00  0.00    +0.000 A 
ATOM     35  C   UNL     1      -0.575  17.622  18.749  0.00  0.00    +0.000 A 
ATOM     36  C   UNL     1       0.733  17.238  19.057  0.00  0.00    +0.000 A 
ENDBRANCH  30  31
ENDBRANCH  27  30
ENDBRANCH  13  24
TORSDOF 5
ENDMDL
MODEL 3
REMARK VINA RESULT:      -8.0      2.491      5.275
REMARK  Name = 
REMARK  5 active torsions:
REMARK  status: ('A' for Active; 'I' for Inactive)
REMARK    1  A    between atoms: O_1  and  C_2
REMARK    2  A    between atoms: C_6  and  C_7
REMARK    3  A    between atoms: N_19  and  C_20
REMARK    4  A    between atoms: N_23  and  C_24
REMARK    5  A    between atoms: C_24  and  C_25
REMARK                            x       y       z     vdW  Elec       q    Type
REMARK                         _______ _______ _______ _____ _____    ______ ____
ROOT
ATOM      1  C   UNL     1       6.367  14.341  22.014  0.00  0.00    +0.000 A 
ATOM      2  N   UNL     1       5.121  14.159  21.502  0.00  0.00    +0.000 NA
ATOM      3  C   UNL     1       4.716  14.888  20.431  0.00  0.00    +0.000 A 
ATOM      4  N   UNL     1       3.452  14.726  19.903  0.00  0.00    +0.000 N 
ATOM      5  C   UNL     1       2.327  14.313  20.742  0.00  0.00    +0.000 C 
ATOM      6  C   UNL     1       1.739  12.979  20.259  0.00  0.00    +0.000 C 
ATOM      7  O   UNL     1       1.444  13.004  18.850  0.00  0.00    +0.000 OA
ATOM      8  C   UNL     1       2.644  13.251  18.103  0.00  0.00    +0.000 C 
ATOM      9  C   UNL     1       3.255  14.614  18.456  0.00  0.00    +0.000 C 
ATOM     10  C   UNL     1       5.610  15.845  19.936  0.00  0.00    +0.000 A 
ATOM     11  C   UNL     1       5.592  16.851  18.953  0.00  0.00    +0.000 A 
ATOM     12  N   UNL     1       6.722  17.550  18.903  0.00  0.00    +0.000 NA
ATOM     13  N   UNL     1       7.509  16.967  19.850  0.00  0.00    +0.000 N 
ATOM     14  C   UNL     1       6.851  15.963  20.533  0.00  0.00    +0.000 A 
ATOM     15  N   UNL     1       7.288  15.229  21.573  0.00  0.00    +0.000 NA
ENDROOT
BRANCH   1  20
ATOM     16  C   UNL     1       6.286  11.647  24.717  0.00  0.00    +0.000 A 
ATOM     17  C   UNL     1       7.500  11.834  25.366  0.00  0.00    +0.000 A 
ATOM     18  C   UNL     1       8.343  12.851  24.932  0.00  0.00    +0.000 A 
ATOM     19  C   UNL     1       7.971  13.668  23.856  0.00  0.00    +0.000 A 
ATOM     20  C   UNL     1       6.750  13.489  23.173  0.00  0.00    +0.000 A 
ATOM     21  C   UNL     1       5.913  12.453  23.640  0.00  0.00    +0.000 A 
BRANCH  16  22
ATOM     22  O   UNL     1       5.419  10.672  25.110  0.00  0.00    +0.000 OA
ATOM     23  H   UNL     1       4.590  10.769  24.605  0.00  0.00    +0.000 HD
ENDBRANCH  16  22
ENDBRANCH   1  20
BRANCH  13  24
ATOM     24  C   UNL     1       8.842  17.535  20.066  0.00  0.00    +0.000 C 
ATOM     25  C   UNL     1       9.447  18.126  18.776  0.00  0.00    +0.000 C 
ATOM     26  C   UNL     1       9.748  17.017  17.768  0.00  0.00    +0.000 C 
ATOM     27  N   UNL     1      10.610  15.964  18.316  0.00  0.00    +0.000 NA
ATOM     28  C   UNL     1      10.219  15.467  19.638  0.00  0.00    +0.000 C 
ATOM     29  C   UNL     1       9.897  16.581  20.632  0.00  0.00    +0.000 C 
BRANCH  27  30
ATOM     30  C   UNL     1      10.827  14.862  17.353  0.00  0.00    +0.000 C 
BRANCH  30  31
ATOM     31  C   UNL     1      10.556  13.453  17.859  0.00  0.00    +0.000 A 
ATOM     32  C   UNL     1      11.564  12.721  18.508  0.00  0.00    +0.000 A 
ATOM     33  C   UNL     1      11.334  11.414  18.939  0.00  0.00    +0.000 A 
ATOM     34  C   UNL     1      10.090  10.823  18.741  0.00  0.00    +0.000 A 
ATOM     35  C   UNL     1       9.076  11.538  18.107  0.00  0.00    +0.000 A 
ATOM     36  C   UNL     1       9.307  12.845  17.669  0.00  0.00    +0.000 A 
ENDBRANCH  30  31
ENDBRANCH  27  30
ENDBRANCH  13  24
TORSDOF 5
ENDMDL
MODEL 4
REMARK VINA RESULT:      -7.9      3.407      6.157
REMARK  Name = 
REMARK  5 active torsions:
REMARK  status: ('A' for Active; 'I' for Inactive)
REMARK    1  A    between atoms: O_1  and  C_2
REMARK    2  A    between atoms: C_6  and  C_7
REMARK    3  A    between atoms: N_19  and  C_20
REMARK    4  A    between atoms: N_23  and  C_24
REMARK    5  A    between atoms: C_24  and  C_25
REMARK                            x       y       z     vdW  Elec       q    Type
REMARK                         _______ _______ _______ _____ _____    ______ ____
ROOT
ATOM      1  C   UNL     1       7.445  13.754  22.287  0.00  0.00    +0.000 A 
ATOM      2  N   UNL     1       6.797  14.872  21.865  0.00  0.00    +0.000 NA
ATOM      3  C   UNL     1       7.096  15.412  20.655  0.00  0.00    +0.000 A 
ATOM      4  N   UNL     1       6.458  16.551  20.212  0.00  0.00    +0.000 N 
ATOM      5  C   UNL     1       5.960  17.555  21.152  0.00  0.00    +0.000 C 
ATOM      6  C   UNL     1       4.439  17.721  21.030  0.00  0.00    +0.000 C 
ATOM      7  O   UNL     1       4.033  17.940  19.666  0.00  0.00    +0.000 OA
ATOM      8  C   UNL     1       4.420  16.823  18.854  0.00  0.00    +0.000 C 
ATOM      9  C   UNL     1       5.944  16.637  18.843  0.00  0.00    +0.000 C 
ATOM     10  C   UNL     1       8.116  14.798  19.918  0.00  0.00    +0.000 A 
ATOM     11  C   UNL     1       8.802  15.048  18.716  0.00  0.00    +0.000 A 
ATOM     12  N   UNL     1       9.760  14.159  18.469  0.00  0.00    +0.000 NA
ATOM     13  N   UNL     1       9.674  13.289  19.512  0.00  0.00    +0.000 N 
ATOM     14  C   UNL     1       8.723  13.671  20.438  0.00  0.00    +0.000 A 
ATOM     15  N   UNL     1       8.421  13.098  21.618  0.00  0.00    +0.000 NA
ENDROOT
BRANCH   1  20
ATOM     16  C   UNL     1       5.682  13.301  25.642  0.00  0.00    +0.000 A 
ATOM     17  C   UNL     1       6.259  12.136  26.131  0.00  0.00    +0.000 A 
ATOM     18  C   UNL     1       7.238  11.502  25.373  0.00  0.00    +0.000 A 
ATOM     19  C   UNL     1       7.628  12.033  24.136  0.00  0.00    +0.000 A 
ATOM     20  C   UNL     1       7.047  13.206  23.612  0.00  0.00    +0.000 A 
ATOM     21  C   UNL     1       6.062  13.830  24.407  0.00  0.00    +0.000 A 
BRANCH  16  22
ATOM     22  O   UNL     1       4.727  13.966  26.350  0.00  0.00    +0.000 OA
ATOM     23  H   UNL     1       4.571  14.832  25.929  0.00  0.00    +0.000 HD
ENDBRANCH  16  22
ENDBRANCH   1  20
BRANCH  13  24
ATOM     24  C   UNL     1      10.632  12.181  19.551  0.00  0.00    +0.000 C 
ATOM     25  C   UNL     1      10.950  11.628  18.146  0.00  0.00    +0.000 C 
ATOM     26  C   UNL     1       9.720  10.947  17.547  0.00  0.00    +0.000 C 
ATOM     27  N   UNL     1       9.170   9.896  18.410  0.00  0.00    +0.000 NA
ATOM     28  C   UNL     1       9.007  10.271  19.817  0.00  0.00    +0.000 C 
ATOM     29  C   UNL     1      10.232  10.973  20.401  0.00  0.00    +0.000 C 
BRANCH  27  30
ATOM     30  C   UNL     1       7.937   9.302  17.849  0.00  0.00    +0.000 C 
BRANCH  30  31
ATOM     31  C   UNL     1       7.834   7.785  17.890  0.00  0.00    +0.000 A 
ATOM     32  C   UNL     1       7.304   7.076  16.799  0.00  0.00    +0.000 A 
ATOM     33  C   UNL     1       7.169   5.687  16.844  0.00  0.00    +0.000 A 
ATOM     34  C   UNL     1       7.576   4.984  17.975  0.00  0.00    +0.000 A 
ATOM     35  C   UNL     1       8.112   5.671  19.063  0.00  0.00    +0.000 A 
ATOM     36  C   UNL     1       8.241   7.061  19.020  0.00  0.00    +0.000 A 
ENDBRANCH  30  31
ENDBRANCH  27  30
ENDBRANCH  13  24
TORSDOF 5
ENDMDL
MODEL 5
REMARK VINA RESULT:      -7.8      2.550      5.330
REMARK  Name = 
REMARK  5 active torsions:
REMARK  status: ('A' for Active; 'I' for Inactive)
REMARK    1  A    between atoms: O_1  and  C_2
REMARK    2  A    between atoms: C_6  and  C_7
REMARK    3  A    between atoms: N_19  and  C_20
REMARK    4  A    between atoms: N_23  and  C_24
REMARK    5  A    between atoms: C_24  and  C_25
REMARK                            x       y       z     vdW  Elec       q    Type
REMARK                         _______ _______ _______ _____ _____    ______ ____
ROOT
ATOM      1  C   UNL     1       7.246  14.782  21.860  0.00  0.00    +0.000 A 
ATOM      2  N   UNL     1       5.957  14.638  21.454  0.00  0.00    +0.000 NA
ATOM      3  C   UNL     1       5.513  15.308  20.359  0.00  0.00    +0.000 A 
ATOM      4  N   UNL     1       4.206  15.184  19.937  0.00  0.00    +0.000 N 
ATOM      5  C   UNL     1       3.127  14.903  20.883  0.00  0.00    +0.000 C 
ATOM      6  C   UNL     1       2.431  13.576  20.550  0.00  0.00    +0.000 C 
ATOM      7  O   UNL     1       2.033  13.513  19.167  0.00  0.00    +0.000 OA
ATOM      8  C   UNL     1       3.185  13.630  18.320  0.00  0.00    +0.000 C 
ATOM      9  C   UNL     1       3.894  14.976  18.521  0.00  0.00    +0.000 C 
ATOM     10  C   UNL     1       6.419  16.169  19.729  0.00  0.00    +0.000 A 
ATOM     11  C   UNL     1       6.382  17.098  18.673  0.00  0.00    +0.000 A 
ATOM     12  N   UNL     1       7.542  17.722  18.488  0.00  0.00    +0.000 NA
ATOM     13  N   UNL     1       8.364  17.165  19.420  0.00  0.00    +0.000 N 
ATOM     14  C   UNL     1       7.706  16.256  20.225  0.00  0.00    +0.000 A 
ATOM     15  N   UNL     1       8.179  15.576  21.286  0.00  0.00    +0.000 NA
ENDROOT
BRANCH   1  20
ATOM     16  C   UNL     1       8.275  13.867  25.420  0.00  0.00    +0.000 A 
ATOM     17  C   UNL     1       8.438  12.489  25.343  0.00  0.00    +0.000 A 
ATOM     18  C   UNL     1       8.227  11.856  24.122  0.00  0.00    +0.000 A 
ATOM     19  C   UNL     1       7.853  12.600  22.995  0.00  0.00    +0.000 A 
ATOM     20  C   UNL     1       7.668  13.996  23.052  0.00  0.00    +0.000 A 
ATOM     21  C   UNL     1       7.895  14.611  24.302  0.00  0.00    +0.000 A 
BRANCH  16  22
ATOM     22  O   UNL     1       8.480  14.537  26.588  0.00  0.00    +0.000 OA
ATOM     23  H   UNL     1       7.709  15.109  26.760  0.00  0.00    +0.000 HD
ENDBRANCH  16  22
ENDBRANCH   1  20
BRANCH  13  24
ATOM     24  C   UNL     1       9.739  17.666  19.495  0.00  0.00    +0.000 C 
ATOM     25  C   UNL     1      10.284  18.102  18.120  0.00  0.00    +0.000 C 
ATOM     26  C   UNL     1      10.450  16.892  17.201  0.00  0.00    +0.000 C 
ATOM     27  N   UNL     1      11.289  15.840  17.786  0.00  0.00    +0.000 NA
ATOM     28  C   UNL     1      10.965  15.486  19.171  0.00  0.00    +0.000 C 
ATOM     29  C   UNL     1      10.776  16.701  20.077  0.00  0.00    +0.000 C 
BRANCH  27  30
ATOM     30  C   UNL     1      11.375  14.646  16.917  0.00  0.00    +0.000 C 
BRANCH  30  31
ATOM     31  C   UNL     1      10.732  13.372  17.443  0.00  0.00    +0.000 A 
ATOM     32  C   UNL     1       9.334  13.242  17.484  0.00  0.00    +0.000 A 
ATOM     33  C   UNL     1       8.737  12.092  18.003  0.00  0.00    +0.000 A 
ATOM     34  C   UNL     1       9.527  11.049  18.475  0.00  0.00    +0.000 A 
ATOM     35  C   UNL     1      10.916  11.157  18.435  0.00  0.00    +0.000 A 
ATOM     36  C   UNL     1      11.515  12.311  17.921  0.00  0.00    +0.000 A 
ENDBRANCH  30  31
ENDBRANCH  27  30
ENDBRANCH  13  24
TORSDOF 5
ENDMDL
MODEL 6
REMARK VINA RESULT:      -7.8      8.365     10.643
REMARK  Name = 
REMARK  5 active torsions:
REMARK  status: ('A' for Active; 'I' for Inactive)
REMARK    1  A    between atoms: O_1  and  C_2
REMARK    2  A    between atoms: C_6  and  C_7
REMARK    3  A    between atoms: N_19  and  C_20
REMARK    4  A    between atoms: N_23  and  C_24
REMARK    5  A    between atoms: C_24  and  C_25
REMARK                            x       y       z     vdW  Elec       q    Type
REMARK                         _______ _______ _______ _____ _____    ______ ____
ROOT
ATOM      1  C   UNL     1      -2.446  13.274  21.685  0.00  0.00    +0.000 A 
ATOM      2  N   UNL     1      -3.688  13.161  21.144  0.00  0.00    +0.000 NA
ATOM      3  C   UNL     1      -3.853  12.527  19.954  0.00  0.00    +0.000 A 
ATOM      4  N   UNL     1      -5.102  12.411  19.383  0.00  0.00    +0.000 N 
ATOM      5  C   UNL     1      -6.140  13.415  19.617  0.00  0.00    +0.000 C 
ATOM      6  C   UNL     1      -7.366  12.793  20.301  0.00  0.00    +0.000 C 
ATOM      7  O   UNL     1      -7.828  11.621  19.605  0.00  0.00    +0.000 OA
ATOM      8  C   UNL     1      -6.793  10.629  19.575  0.00  0.00    +0.000 C 
ATOM      9  C   UNL     1      -5.553  11.134  18.824  0.00  0.00    +0.000 C 
ATOM     10  C   UNL     1      -2.697  12.061  19.316  0.00  0.00    +0.000 A 
ATOM     11  C   UNL     1      -2.382  11.460  18.083  0.00  0.00    +0.000 A 
ATOM     12  N   UNL     1      -1.078  11.248  17.927  0.00  0.00    +0.000 NA
ATOM     13  N   UNL     1      -0.533  11.687  19.095  0.00  0.00    +0.000 N 
ATOM     14  C   UNL     1      -1.478  12.235  19.941  0.00  0.00    +0.000 A 
ATOM     15  N   UNL     1      -1.293  12.828  21.135  0.00  0.00    +0.000 NA
ENDROOT
BRANCH   1  20
ATOM     16  C   UNL     1      -1.097  15.305  24.622  0.00  0.00    +0.000 A 
ATOM     17  C   UNL     1      -2.168  15.303  25.508  0.00  0.00    +0.000 A 
ATOM     18  C   UNL     1      -3.329  14.624  25.155  0.00  0.00    +0.000 A 
ATOM     19  C   UNL     1      -3.414  13.960  23.924  0.00  0.00    +0.000 A 
ATOM     20  C   UNL     1      -2.346  13.960  23.003  0.00  0.00    +0.000 A 
ATOM     21  C   UNL     1      -1.179  14.651  23.392  0.00  0.00    +0.000 A 
BRANCH  16  22
ATOM     22  O   UNL     1       0.066  15.945  24.925  0.00  0.00    +0.000 OA
ATOM     23  H   UNL     1       0.647  15.327  25.406  0.00  0.00    +0.000 HD
ENDBRANCH  16  22
ENDBRANCH   1  20
BRANCH  13  24
ATOM     24  C   UNL     1       0.923  11.613  19.233  0.00  0.00    +0.000 C 
ATOM     25  C   UNL     1       1.542  10.504  18.358  0.00  0.00    +0.000 C 
ATOM     26  C   UNL     1       1.118   9.125  18.862  0.00  0.00    +0.000 C 
ATOM     27  N   UNL     1       1.433   8.911  20.279  0.00  0.00    +0.000 NA
ATOM     28  C   UNL     1       1.049  10.007  21.173  0.00  0.00    +0.000 C 
ATOM     29  C   UNL     1       1.455  11.384  20.650  0.00  0.00    +0.000 C 
BRANCH  27  30
ATOM     30  C   UNL     1       0.947   7.602  20.768  0.00  0.00    +0.000 C 
BRANCH  30  31
ATOM     31  C   UNL     1       1.769   6.383  20.380  0.00  0.00    +0.000 A 
ATOM     32  C   UNL     1       2.981   6.529  19.685  0.00  0.00    +0.000 A 
ATOM     33  C   UNL     1       3.720   5.413  19.292  0.00  0.00    +0.000 A 
ATOM     34  C   UNL     1       3.267   4.133  19.600  0.00  0.00    +0.000 A 
ATOM     35  C   UNL     1       2.072   3.969  20.296  0.00  0.00    +0.000 A 
ATOM     36  C   UNL     1       1.328   5.086  20.685  0.00  0.00    +0.000 A 
ENDBRANCH  30  31
ENDBRANCH  27  30
ENDBRANCH  13  24
TORSDOF 5
ENDMDL
MODEL 7
REMARK VINA RESULT:      -7.7      6.411      9.693
REMARK  Name = 
REMARK  5 active torsions:
REMARK  status: ('A' for Active; 'I' for Inactive)
REMARK    1  A    between atoms: O_1  and  C_2
REMARK    2  A    between atoms: C_6  and  C_7
REMARK    3  A    between atoms: N_19  and  C_20
REMARK    4  A    between atoms: N_23  and  C_24
REMARK    5  A    between atoms: C_24  and  C_25
REMARK                            x       y       z     vdW  Elec       q    Type
REMARK                         _______ _______ _______ _____ _____    ______ ____
ROOT
ATOM      1  C   UNL     1      -0.107  14.247  22.459  0.00  0.00    +0.000 A 
ATOM      2  N   UNL     1       1.046  14.966  22.486  0.00  0.00    +0.000 NA
ATOM      3  C   UNL     1       1.995  14.759  21.536  0.00  0.00    +0.000 A 
ATOM      4  N   UNL     1       3.176  15.471  21.552  0.00  0.00    +0.000 N 
ATOM      5  C   UNL     1       3.751  15.959  22.805  0.00  0.00    +0.000 C 
ATOM      6  C   UNL     1       3.857  17.491  22.805  0.00  0.00    +0.000 C 
ATOM      7  O   UNL     1       4.518  17.981  21.624  0.00  0.00    +0.000 OA
ATOM      8  C   UNL     1       3.785  17.591  20.454  0.00  0.00    +0.000 C 
ATOM      9  C   UNL     1       3.708  16.064  20.323  0.00  0.00    +0.000 C 
ATOM     10  C   UNL     1       1.744  13.756  20.593  0.00  0.00    +0.000 A 
ATOM     11  C   UNL     1       2.444  13.149  19.534  0.00  0.00    +0.000 A 
ATOM     12  N   UNL     1       1.759  12.169  18.952  0.00  0.00    +0.000 NA
ATOM     13  N   UNL     1       0.573  12.158  19.621  0.00  0.00    +0.000 N 
ATOM     14  C   UNL     1       0.546  13.071  20.656  0.00  0.00    +0.000 A 
ATOM     15  N   UNL     1      -0.424  13.282  21.565  0.00  0.00    +0.000 NA
ENDROOT
BRANCH   1  20
ATOM     16  C   UNL     1      -3.248  14.096  24.623  0.00  0.00    +0.000 A 
ATOM     17  C   UNL     1      -3.016  15.092  25.563  0.00  0.00    +0.000 A 
ATOM     18  C   UNL     1      -1.838  15.828  25.484  0.00  0.00    +0.000 A 
ATOM     19  C   UNL     1      -0.904  15.561  24.473  0.00  0.00    +0.000 A 
ATOM     20  C   UNL     1      -1.111  14.546  23.516  0.00  0.00    +0.000 A 
ATOM     21  C   UNL     1      -2.318  13.822  23.618  0.00  0.00    +0.000 A 
BRANCH  16  22
ATOM     22  O   UNL     1      -4.391  13.355  24.649  0.00  0.00    +0.000 OA
ATOM     23  H   UNL     1      -4.261  12.602  25.256  0.00  0.00    +0.000 HD
ENDBRANCH  16  22
ENDBRANCH   1  20
BRANCH  13  24
ATOM     24  C   UNL     1      -0.416  11.152  19.227  0.00  0.00    +0.000 C 
ATOM     25  C   UNL     1      -0.743  10.168  20.370  0.00  0.00    +0.000 C 
ATOM     26  C   UNL     1       0.470   9.295  20.689  0.00  0.00    +0.000 C 
ATOM     27  N   UNL     1       0.985   8.580  19.516  0.00  0.00    +0.000 NA
ATOM     28  C   UNL     1       1.153   9.401  18.313  0.00  0.00    +0.000 C 
ATOM     29  C   UNL     1      -0.055  10.289  18.015  0.00  0.00    +0.000 C 
BRANCH  27  30
ATOM     30  C   UNL     1       2.204   7.802  19.827  0.00  0.00    +0.000 C 
BRANCH  30  31
ATOM     31  C   UNL     1       2.146   6.307  19.549  0.00  0.00    +0.000 A 
ATOM     32  C   UNL     1       2.394   5.810  18.259  0.00  0.00    +0.000 A 
ATOM     33  C   UNL     1       2.304   4.444  17.989  0.00  0.00    +0.000 A 
ATOM     34  C   UNL     1       1.979   3.552  19.006  0.00  0.00    +0.000 A 
ATOM     35  C   UNL     1       1.738   4.026  20.294  0.00  0.00    +0.000 A 
ATOM     36  C   UNL     1       1.822   5.395  20.564  0.00  0.00    +0.000 A 
ENDBRANCH  30  31
ENDBRANCH  27  30
ENDBRANCH  13  24
TORSDOF 5
ENDMDL
MODEL 8
REMARK VINA RESULT:      -7.7      6.747     11.187
REMARK  Name = 
REMARK  5 active torsions:
REMARK  status: ('A' for Active; 'I' for Inactive)
REMARK    1  A    between atoms: O_1  and  C_2
REMARK    2  A    between atoms: C_6  and  C_7
REMARK    3  A    between atoms: N_19  and  C_20
REMARK    4  A    between atoms: N_23  and  C_24
REMARK    5  A    between atoms: C_24  and  C_25
REMARK                            x       y       z     vdW  Elec       q    Type
REMARK                         _______ _______ _______ _____ _____    ______ ____
ROOT
ATOM      1  C   UNL     1       0.382  12.783  20.863  0.00  0.00    +0.000 A 
ATOM      2  N   UNL     1       1.011  13.816  20.243  0.00  0.00    +0.000 NA
ATOM      3  C   UNL     1       0.764  15.092  20.634  0.00  0.00    +0.000 A 
ATOM      4  N   UNL     1       1.384  16.155  20.012  0.00  0.00    +0.000 N 
ATOM      5  C   UNL     1       1.788  16.081  18.608  0.00  0.00    +0.000 C 
ATOM      6  C   UNL     1       3.307  16.250  18.461  0.00  0.00    +0.000 C 
ATOM      7  O   UNL     1       3.783  17.422  19.149  0.00  0.00    +0.000 OA
ATOM      8  C   UNL     1       3.486  17.323  20.549  0.00  0.00    +0.000 C 
ATOM      9  C   UNL     1       1.974  17.241  20.797  0.00  0.00    +0.000 C 
ATOM     10  C   UNL     1      -0.188  15.275  21.644  0.00  0.00    +0.000 A 
ATOM     11  C   UNL     1      -0.812  16.366  22.276  0.00  0.00    +0.000 A 
ATOM     12  N   UNL     1      -1.720  15.997  23.175  0.00  0.00    +0.000 NA
ATOM     13  N   UNL     1      -1.664  14.637  23.157  0.00  0.00    +0.000 N 
ATOM     14  C   UNL     1      -0.783  14.161  22.205  0.00  0.00    +0.000 A 
ATOM     15  N   UNL     1      -0.529  12.886  21.858  0.00  0.00    +0.000 NA
ENDROOT
BRANCH   1  20
ATOM     16  C   UNL     1       1.458   9.870  18.642  0.00  0.00    +0.000 A 
ATOM     17  C   UNL     1       1.408   8.790  19.515  0.00  0.00    +0.000 A 
ATOM     18  C   UNL     1       1.007   9.008  20.829  0.00  0.00    +0.000 A 
ATOM     19  C   UNL     1       0.665  10.297  21.260  0.00  0.00    +0.000 A 
ATOM     20  C   UNL     1       0.722  11.410  20.397  0.00  0.00    +0.000 A 
ATOM     21  C   UNL     1       1.125  11.157  19.068  0.00  0.00    +0.000 A 
BRANCH  16  22
ATOM     22  O   UNL     1       1.833   9.709  17.343  0.00  0.00    +0.000 OA
ATOM     23  H   UNL     1       2.807   9.681  17.299  0.00  0.00    +0.000 HD
ENDBRANCH  16  22
ENDBRANCH   1  20
BRANCH  13  24
ATOM     24  C   UNL     1      -2.580  13.909  24.037  0.00  0.00    +0.000 C 
ATOM     25  C   UNL     1      -2.986  12.537  23.462  0.00  0.00    +0.000 C 
ATOM     26  C   UNL     1      -3.842  12.713  22.209  0.00  0.00    +0.000 C 
ATOM     27  N   UNL     1      -5.023  13.553  22.435  0.00  0.00    +0.000 NA
ATOM     28  C   UNL     1      -4.764  14.806  23.151  0.00  0.00    +0.000 C 
ATOM     29  C   UNL     1      -3.887  14.625  24.389  0.00  0.00    +0.000 C 
BRANCH  27  30
ATOM     30  C   UNL     1      -5.797  13.776  21.195  0.00  0.00    +0.000 C 
BRANCH  30  31
ATOM     31  C   UNL     1      -6.158  12.538  20.387  0.00  0.00    +0.000 A 
ATOM     32  C   UNL     1      -7.027  11.569  20.915  0.00  0.00    +0.000 A 
ATOM     33  C   UNL     1      -7.331  10.412  20.195  0.00  0.00    +0.000 A 
ATOM     34  C   UNL     1      -6.783  10.213  18.931  0.00  0.00    +0.000 A 
ATOM     35  C   UNL     1      -5.927  11.169  18.388  0.00  0.00    +0.000 A 
ATOM     36  C   UNL     1      -5.617  12.324  19.111  0.00  0.00    +0.000 A 
ENDBRANCH  30  31
ENDBRANCH  27  30
ENDBRANCH  13  24
TORSDOF 5
ENDMDL
MODEL 9
REMARK VINA RESULT:      -7.7      6.372      9.443
REMARK  Name = 
REMARK  5 active torsions:
REMARK  status: ('A' for Active; 'I' for Inactive)
REMARK    1  A    between atoms: O_1  and  C_2
REMARK    2  A    between atoms: C_6  and  C_7
REMARK    3  A    between atoms: N_19  and  C_20
REMARK    4  A    between atoms: N_23  and  C_24
REMARK    5  A    between atoms: C_24  and  C_25
REMARK                            x       y       z     vdW  Elec       q    Type
REMARK                         _______ _______ _______ _____ _____    ______ ____
ROOT
ATOM      1  C   UNL     1      -0.293  13.960  22.376  0.00  0.00    +0.000 A 
ATOM      2  N   UNL     1       0.721  14.850  22.212  0.00  0.00    +0.000 NA
ATOM      3  C   UNL     1       1.612  14.681  21.201  0.00  0.00    +0.000 A 
ATOM      4  N   UNL     1       2.654  15.567  21.023  0.00  0.00    +0.000 N 
ATOM      5  C   UNL     1       3.237  16.289  22.153  0.00  0.00    +0.000 C 
ATOM      6  C   UNL     1       3.082  17.807  21.978  0.00  0.00    +0.000 C 
ATOM      7  O   UNL     1       3.555  18.247  20.691  0.00  0.00    +0.000 OA
ATOM      8  C   UNL     1       2.807  17.607  19.648  0.00  0.00    +0.000 C 
ATOM      9  C   UNL     1       2.978  16.082  19.690  0.00  0.00    +0.000 C 
ATOM     10  C   UNL     1       1.459  13.543  20.400  0.00  0.00    +0.000 A 
ATOM     11  C   UNL     1       2.165  12.930  19.349  0.00  0.00    +0.000 A 
ATOM     12  N   UNL     1       1.611  11.790  18.946  0.00  0.00    +0.000 NA
ATOM     13  N   UNL     1       0.501  11.673  19.726  0.00  0.00    +0.000 N 
ATOM     14  C   UNL     1       0.403  12.690  20.655  0.00  0.00    +0.000 A 
ATOM     15  N   UNL     1      -0.513  12.854  21.628  0.00  0.00    +0.000 NA
ENDROOT
BRANCH   1  20
ATOM     16  C   UNL     1      -1.806  15.311  25.610  0.00  0.00    +0.000 A 
ATOM     17  C   UNL     1      -3.080  14.757  25.602  0.00  0.00    +0.000 A 
ATOM     18  C   UNL     1      -3.444  13.927  24.547  0.00  0.00    +0.000 A 
ATOM     19  C   UNL     1      -2.539  13.661  23.510  0.00  0.00    +0.000 A 
ATOM     20  C   UNL     1      -1.245  14.223  23.490  0.00  0.00    +0.000 A 
ATOM     21  C   UNL     1      -0.903  15.055  24.577  0.00  0.00    +0.000 A 
BRANCH  16  22
ATOM     22  O   UNL     1      -1.397  16.121  26.626  0.00  0.00    +0.000 OA
ATOM     23  H   UNL     1      -1.189  17.001  26.259  0.00  0.00    +0.000 HD
ENDBRANCH  16  22
ENDBRANCH   1  20
BRANCH  13  24
ATOM     24  C   UNL     1      -0.333  10.482  19.543  0.00  0.00    +0.000 C 
ATOM     25  C   UNL     1       0.074   9.328  20.482  0.00  0.00    +0.000 C 
ATOM     26  C   UNL     1       1.456   8.793  20.105  0.00  0.00    +0.000 C 
ATOM     27  N   UNL     1       1.548   8.382  18.700  0.00  0.00    +0.000 NA
ATOM     28  C   UNL     1       1.007   9.344  17.735  0.00  0.00    +0.000 C 
ATOM     29  C   UNL     1      -0.363   9.892  18.132  0.00  0.00    +0.000 C 
BRANCH  27  30
ATOM     30  C   UNL     1       2.911   7.940  18.335  0.00  0.00    +0.000 C 
BRANCH  30  31
ATOM     31  C   UNL     1       3.078   6.471  17.979  0.00  0.00    +0.000 A 
ATOM     32  C   UNL     1       4.294   5.995  17.462  0.00  0.00    +0.000 A 
ATOM     33  C   UNL     1       4.443   4.656  17.097  0.00  0.00    +0.000 A 
ATOM     34  C   UNL     1       3.382   3.769  17.256  0.00  0.00    +0.000 A 
ATOM     35  C   UNL     1       2.171   4.222  17.776  0.00  0.00    +0.000 A 
ATOM     36  C   UNL     1       2.020   5.564  18.136  0.00  0.00    +0.000 A 
ENDBRANCH  30  31
ENDBRANCH  27  30
ENDBRANCH  13  24
TORSDOF 5
ENDMDL
