MODEL 1
REMARK VINA RESULT:      -6.2      0.000      0.000
REMARK  Name = 
REMARK  10 active torsions:
REMARK  status: ('A' for Active; 'I' for Inactive)
REMARK    1  A    between atoms: C_1  and  C_2
REMARK    2  A    between atoms: C_2  and  N_3
REMARK    3  A    between atoms: C_7  and  C_8
REMARK    4  A    between atoms: C_8  and  N_9
REMARK    5  A    between atoms: C_10  and  C_12
REMARK    6  A    between atoms: C_13  and  O_14
REMARK    7  A    between atoms: O_14  and  C_15
REMARK    8  A    between atoms: C_16  and  O_17
REMARK    9  A    between atoms: C_21  and  O_22
REMARK   10  A    between atoms: O_22  and  C_23
REMARK                            x       y       z     vdW  Elec       q    Type
REMARK                         _______ _______ _______ _____ _____    ______ ____
ROOT
ATOM      1  C   UNL     1       2.925   4.403  18.925  0.00  0.00    +0.000 A 
ATOM      2  C   UNL     1       2.791   3.454  19.977  0.00  0.00    +0.000 A 
ATOM      3  C   UNL     1       2.301   3.890  21.211  0.00  0.00    +0.000 A 
ATOM      4  C   UNL     1       1.964   5.217  21.413  0.00  0.00    +0.000 A 
ATOM      5  C   UNL     1       1.984   6.133  20.355  0.00  0.00    +0.000 A 
ATOM      6 BR   UNL     1       1.249   7.829  20.819  0.00  0.00    +0.000 Br
ATOM      7  C   UNL     1       2.436   5.734  19.084  0.00  0.00    +0.000 A 
ENDROOT
BRANCH   1   9
ATOM      8  N   UNL     1       4.952   3.743  17.558  0.00  0.00    +0.000 N 
ATOM      9  C   UNL     1       3.588   3.917  17.661  0.00  0.00    +0.000 C 
ATOM     10  O   UNL     1       2.907   3.562  16.699  0.00  0.00    +0.000 OA
ATOM     11  H   UNL     1       5.203   3.246  16.711  0.00  0.00    +0.000 HD
BRANCH   8  12
ATOM     12  C   UNL     1       6.065   4.220  18.357  0.00  0.00    +0.000 C 
BRANCH  12  17
ATOM     13  N   UNL     1       6.608   5.533  16.360  0.00  0.00    +0.000 NA
ATOM     14  C   UNL     1       6.385   6.947  16.701  0.00  0.00    +0.000 C 
ATOM     15  C   UNL     1       7.566   7.330  17.558  0.00  0.00    +0.000 C 
ATOM     16  C   UNL     1       7.779   6.089  18.402  0.00  0.00    +0.000 C 
ATOM     17  C   UNL     1       7.183   4.925  17.586  0.00  0.00    +0.000 C 
BRANCH  13  19
ATOM     18  C   UNL     1       6.795   4.694  14.020  0.00  0.00    +0.000 C 
ATOM     19  C   UNL     1       7.501   5.319  15.215  0.00  0.00    +0.000 C 
ENDBRANCH  13  19
ENDBRANCH  12  17
ENDBRANCH   8  12
ENDBRANCH   1   9
BRANCH   2  20
ATOM     20  O   UNL     1       3.096   2.149  19.688  0.00  0.00    +0.000 OA
ATOM     21  C   UNL     1       4.326   1.569  20.108  0.00  0.00    +0.000 C 
ENDBRANCH   2  20
BRANCH   3  22
ATOM     22  O   UNL     1       2.043   3.067  22.267  0.00  0.00    +0.000 OA
ATOM     23  H   UNL     1       2.911   2.750  22.575  0.00  0.00    +0.000 HD
ENDBRANCH   3  22
BRANCH   7  24
ATOM     24  O   UNL     1       2.269   6.465  17.931  0.00  0.00    +0.000 OA
ATOM     25  C   UNL     1       3.043   7.649  17.738  0.00  0.00    +0.000 C 
ENDBRANCH   7  24
TORSDOF 7
ENDMDL
MODEL 2
REMARK VINA RESULT:      -5.7      1.116      1.988
REMARK  Name = 
REMARK  10 active torsions:
REMARK  status: ('A' for Active; 'I' for Inactive)
REMARK    1  A    between atoms: C_1  and  C_2
REMARK    2  A    between atoms: C_2  and  N_3
REMARK    3  A    between atoms: C_7  and  C_8
REMARK    4  A    between atoms: C_8  and  N_9
REMARK    5  A    between atoms: C_10  and  C_12
REMARK    6  A    between atoms: C_13  and  O_14
REMARK    7  A    between atoms: O_14  and  C_15
REMARK    8  A    between atoms: C_16  and  O_17
REMARK    9  A    between atoms: C_21  and  O_22
REMARK   10  A    between atoms: O_22  and  C_23
REMARK                            x       y       z     vdW  Elec       q    Type
REMARK                         _______ _______ _______ _____ _____    ______ ____
ROOT
ATOM      1  C   UNL     1       2.814   4.820  18.699  0.00  0.00    +0.000 A 
ATOM      2  C   UNL     1       2.815   3.830  19.721  0.00  0.00    +0.000 A 
ATOM      3  C   UNL     1       2.438   4.204  21.014  0.00  0.00    +0.000 A 
ATOM      4  C   UNL     1       2.083   5.511  21.300  0.00  0.00    +0.000 A 
ATOM      5  C   UNL     1       1.968   6.465  20.281  0.00  0.00    +0.000 A 
ATOM      6 BR   UNL     1       1.233   8.117  20.881  0.00  0.00    +0.000 Br
ATOM      7  C   UNL     1       2.303   6.127  18.957  0.00  0.00    +0.000 A 
ENDROOT
BRANCH   1   9
ATOM      8  N   UNL     1       4.449   5.017  16.776  0.00  0.00    +0.000 N 
ATOM      9  C   UNL     1       3.361   4.402  17.357  0.00  0.00    +0.000 C 
ATOM     10  O   UNL     1       2.904   3.416  16.779  0.00  0.00    +0.000 OA
ATOM     11  H   UNL     1       4.788   4.499  15.972  0.00  0.00    +0.000 HD
BRANCH   8  12
ATOM     12  C   UNL     1       5.109   6.285  17.025  0.00  0.00    +0.000 C 
BRANCH  12  17
ATOM     13  N   UNL     1       7.109   6.623  18.402  0.00  0.00    +0.000 NA
ATOM     14  C   UNL     1       7.386   5.347  19.079  0.00  0.00    +0.000 C 
ATOM     15  C   UNL     1       7.985   4.464  18.013  0.00  0.00    +0.000 C 
ATOM     16  C   UNL     1       7.168   4.822  16.788  0.00  0.00    +0.000 C 
ATOM     17  C   UNL     1       6.639   6.247  17.044  0.00  0.00    +0.000 C 
BRANCH  13  19
ATOM     18  C   UNL     1       7.906   8.893  17.746  0.00  0.00    +0.000 C 
ATOM     19  C   UNL     1       8.264   7.525  18.311  0.00  0.00    +0.000 C 
ENDBRANCH  13  19
ENDBRANCH  12  17
ENDBRANCH   8  12
ENDBRANCH   1   9
BRANCH   2  20
ATOM     20  O   UNL     1       3.129   2.547  19.353  0.00  0.00    +0.000 OA
ATOM     21  C   UNL     1       4.381   1.966  19.700  0.00  0.00    +0.000 C 
ENDBRANCH   2  20
BRANCH   3  22
ATOM     22  O   UNL     1       2.312   3.336  22.057  0.00  0.00    +0.000 OA
ATOM     23  H   UNL     1       2.651   3.810  22.839  0.00  0.00    +0.000 HD
ENDBRANCH   3  22
BRANCH   7  24
ATOM     24  O   UNL     1       1.999   6.892  17.855  0.00  0.00    +0.000 OA
ATOM     25  C   UNL     1       2.434   8.251  17.810  0.00  0.00    +0.000 C 
ENDBRANCH   7  24
TORSDOF 7
ENDMDL
MODEL 3
REMARK VINA RESULT:      -5.7      1.399      3.021
REMARK  Name = 
REMARK  10 active torsions:
REMARK  status: ('A' for Active; 'I' for Inactive)
REMARK    1  A    between atoms: C_1  and  C_2
REMARK    2  A    between atoms: C_2  and  N_3
REMARK    3  A    between atoms: C_7  and  C_8
REMARK    4  A    between atoms: C_8  and  N_9
REMARK    5  A    between atoms: C_10  and  C_12
REMARK    6  A    between atoms: C_13  and  O_14
REMARK    7  A    between atoms: O_14  and  C_15
REMARK    8  A    between atoms: C_16  and  O_17
REMARK    9  A    between atoms: C_21  and  O_22
REMARK   10  A    between atoms: O_22  and  C_23
REMARK                            x       y       z     vdW  Elec       q    Type
REMARK                         _______ _______ _______ _____ _____    ______ ____
ROOT
ATOM      1  C   UNL     1       2.909   4.219  18.696  0.00  0.00    +0.000 A 
ATOM      2  C   UNL     1       2.739   5.598  19.005  0.00  0.00    +0.000 A 
ATOM      3  C   UNL     1       2.082   5.941  20.190  0.00  0.00    +0.000 A 
ATOM      4  C   UNL     1       1.595   4.964  21.041  0.00  0.00    +0.000 A 
ATOM      5  C   UNL     1       1.856   3.609  20.805  0.00  0.00    +0.000 A 
ATOM      6 BR   UNL     1       1.298   2.478  22.233  0.00  0.00    +0.000 Br
ATOM      7  C   UNL     1       2.545   3.215  19.643  0.00  0.00    +0.000 A 
ENDROOT
BRANCH   1   9
ATOM      8  N   UNL     1       4.849   3.739  17.142  0.00  0.00    +0.000 N 
ATOM      9  C   UNL     1       3.495   3.900  17.344  0.00  0.00    +0.000 C 
ATOM     10  O   UNL     1       2.758   3.673  16.385  0.00  0.00    +0.000 OA
ATOM     11  H   UNL     1       5.048   3.355  16.224  0.00  0.00    +0.000 HD
BRANCH   8  12
ATOM     12  C   UNL     1       6.010   4.108  17.930  0.00  0.00    +0.000 C 
BRANCH  12  17
ATOM     13  N   UNL     1       6.449   5.677  16.098  0.00  0.00    +0.000 NA
ATOM     14  C   UNL     1       6.269   7.032  16.641  0.00  0.00    +0.000 C 
ATOM     15  C   UNL     1       7.505   7.288  17.465  0.00  0.00    +0.000 C 
ATOM     16  C   UNL     1       7.752   5.943  18.119  0.00  0.00    +0.000 C 
ATOM     17  C   UNL     1       7.090   4.904  17.193  0.00  0.00    +0.000 C 
BRANCH  13  19
ATOM     18  C   UNL     1       6.818   4.523  13.919  0.00  0.00    +0.000 C 
ATOM     19  C   UNL     1       7.268   5.614  14.882  0.00  0.00    +0.000 C 
ENDBRANCH  13  19
ENDBRANCH  12  17
ENDBRANCH   8  12
ENDBRANCH   1   9
BRANCH   2  20
ATOM     20  O   UNL     1       3.291   6.507  18.141  0.00  0.00    +0.000 OA
ATOM     21  C   UNL     1       2.559   7.646  17.701  0.00  0.00    +0.000 C 
ENDBRANCH   2  20
BRANCH   3  22
ATOM     22  O   UNL     1       1.934   7.218  20.642  0.00  0.00    +0.000 OA
ATOM     23  H   UNL     1       1.007   7.292  20.930  0.00  0.00    +0.000 HD
ENDBRANCH   3  22
BRANCH   7  24
ATOM     24  O   UNL     1       3.066   1.960  19.432  0.00  0.00    +0.000 OA
ATOM     25  C   UNL     1       4.333   1.628  19.999  0.00  0.00    +0.000 C 
ENDBRANCH   7  24
TORSDOF 7
ENDMDL
MODEL 4
REMARK VINA RESULT:      -5.7      2.342      4.722
REMARK  Name = 
REMARK  10 active torsions:
REMARK  status: ('A' for Active; 'I' for Inactive)
REMARK    1  A    between atoms: C_1  and  C_2
REMARK    2  A    between atoms: C_2  and  N_3
REMARK    3  A    between atoms: C_7  and  C_8
REMARK    4  A    between atoms: C_8  and  N_9
REMARK    5  A    between atoms: C_10  and  C_12
REMARK    6  A    between atoms: C_13  and  O_14
REMARK    7  A    between atoms: O_14  and  C_15
REMARK    8  A    between atoms: C_16  and  O_17
REMARK    9  A    between atoms: C_21  and  O_22
REMARK   10  A    between atoms: O_22  and  C_23
REMARK                            x       y       z     vdW  Elec       q    Type
REMARK                         _______ _______ _______ _____ _____    ______ ____
ROOT
ATOM      1  C   UNL     1       5.427   5.091  17.985  0.00  0.00    +0.000 A 
ATOM      2  C   UNL     1       5.112   6.380  17.470  0.00  0.00    +0.000 A 
ATOM      3  C   UNL     1       3.881   6.950  17.805  0.00  0.00    +0.000 A 
ATOM      4  C   UNL     1       2.980   6.274  18.609  0.00  0.00    +0.000 A 
ATOM      5  C   UNL     1       3.325   5.059  19.212  0.00  0.00    +0.000 A 
ATOM      6 BR   UNL     1       2.023   4.445  20.461  0.00  0.00    +0.000 Br
ATOM      7  C   UNL     1       4.568   4.460  18.934  0.00  0.00    +0.000 A 
ENDROOT
BRANCH   1   9
ATOM      8  N   UNL     1       6.804   3.890  16.232  0.00  0.00    +0.000 N 
ATOM      9  C   UNL     1       6.701   4.460  17.483  0.00  0.00    +0.000 C 
ATOM     10  O   UNL     1       7.731   4.524  18.152  0.00  0.00    +0.000 OA
ATOM     11  H   UNL     1       7.767   3.678  15.994  0.00  0.00    +0.000 HD
BRANCH   8  12
ATOM     12  C   UNL     1       5.812   3.450  15.269  0.00  0.00    +0.000 C 
BRANCH  12  17
ATOM     13  N   UNL     1       7.041   4.153  13.268  0.00  0.00    +0.000 NA
ATOM     14  C   UNL     1       6.843   3.107  12.253  0.00  0.00    +0.000 C 
ATOM     15  C   UNL     1       5.438   3.317  11.747  0.00  0.00    +0.000 C 
ATOM     16  C   UNL     1       4.682   3.681  13.009  0.00  0.00    +0.000 C 
ATOM     17  C   UNL     1       5.737   4.260  13.972  0.00  0.00    +0.000 C 
BRANCH  13  19
ATOM     18  C   UNL     1       8.911   5.769  12.944  0.00  0.00    +0.000 C 
ATOM     19  C   UNL     1       7.437   5.458  12.725  0.00  0.00    +0.000 C 
ENDBRANCH  13  19
ENDBRANCH  12  17
ENDBRANCH   8  12
ENDBRANCH   1   9
BRANCH   2  20
ATOM     20  O   UNL     1       6.073   7.010  16.723  0.00  0.00    +0.000 OA
ATOM     21  C   UNL     1       7.086   7.798  17.337  0.00  0.00    +0.000 C 
ENDBRANCH   2  20
BRANCH   3  22
ATOM     22  O   UNL     1       3.498   8.210  17.451  0.00  0.00    +0.000 OA
ATOM     23  H   UNL     1       4.288   8.629  17.064  0.00  0.00    +0.000 HD
ENDBRANCH   3  22
BRANCH   7  24
ATOM     24  O   UNL     1       5.108   3.415  19.645  0.00  0.00    +0.000 OA
ATOM     25  C   UNL     1       4.474   2.137  19.594  0.00  0.00    +0.000 C 
ENDBRANCH   7  24
TORSDOF 7
ENDMDL
MODEL 5
REMARK VINA RESULT:      -5.5      1.445      2.447
REMARK  Name = 
REMARK  10 active torsions:
REMARK  status: ('A' for Active; 'I' for Inactive)
REMARK    1  A    between atoms: C_1  and  C_2
REMARK    2  A    between atoms: C_2  and  N_3
REMARK    3  A    between atoms: C_7  and  C_8
REMARK    4  A    between atoms: C_8  and  N_9
REMARK    5  A    between atoms: C_10  and  C_12
REMARK    6  A    between atoms: C_13  and  O_14
REMARK    7  A    between atoms: O_14  and  C_15
REMARK    8  A    between atoms: C_16  and  O_17
REMARK    9  A    between atoms: C_21  and  O_22
REMARK   10  A    between atoms: O_22  and  C_23
REMARK                            x       y       z     vdW  Elec       q    Type
REMARK                         _______ _______ _______ _____ _____    ______ ____
ROOT
ATOM      1  C   UNL     1       3.461   4.269  19.507  0.00  0.00    +0.000 A 
ATOM      2  C   UNL     1       2.392   3.353  19.714  0.00  0.00    +0.000 A 
ATOM      3  C   UNL     1       1.184   3.840  20.220  0.00  0.00    +0.000 A 
ATOM      4  C   UNL     1       1.031   5.181  20.527  0.00  0.00    +0.000 A 
ATOM      5  C   UNL     1       2.035   6.107  20.222  0.00  0.00    +0.000 A 
ATOM      6 BR   UNL     1       1.501   7.913  20.510  0.00  0.00    +0.000 Br
ATOM      7  C   UNL     1       3.257   5.671  19.678  0.00  0.00    +0.000 A 
ENDROOT
BRANCH   1   9
ATOM      8  N   UNL     1       5.276   3.778  17.810  0.00  0.00    +0.000 N 
ATOM      9  C   UNL     1       4.785   3.676  19.095  0.00  0.00    +0.000 C 
ATOM     10  O   UNL     1       5.522   3.159  19.934  0.00  0.00    +0.000 OA
ATOM     11  H   UNL     1       6.245   3.484  17.755  0.00  0.00    +0.000 HD
BRANCH   8  12
ATOM     12  C   UNL     1       4.651   4.112  16.545  0.00  0.00    +0.000 C 
BRANCH  12  17
ATOM     13  N   UNL     1       6.699   5.432  16.276  0.00  0.00    +0.000 NA
ATOM     14  C   UNL     1       7.583   4.675  15.378  0.00  0.00    +0.000 C 
ATOM     15  C   UNL     1       6.999   4.871  14.001  0.00  0.00    +0.000 C 
ATOM     16  C   UNL     1       5.507   4.815  14.263  0.00  0.00    +0.000 C 
ATOM     17  C   UNL     1       5.330   5.222  15.739  0.00  0.00    +0.000 C 
BRANCH  13  19
ATOM     18  C   UNL     1       7.568   7.277  17.710  0.00  0.00    +0.000 C 
ATOM     19  C   UNL     1       7.000   6.866  16.358  0.00  0.00    +0.000 C 
ENDBRANCH  13  19
ENDBRANCH  12  17
ENDBRANCH   8  12
ENDBRANCH   1   9
BRANCH   2  20
ATOM     20  O   UNL     1       2.600   2.051  19.340  0.00  0.00    +0.000 OA
ATOM     21  C   UNL     1       2.337   1.614  18.011  0.00  0.00    +0.000 C 
ENDBRANCH   2  20
BRANCH   3  22
ATOM     22  O   UNL     1       0.060   3.085  20.379  0.00  0.00    +0.000 OA
ATOM     23  H   UNL     1       0.333   2.308  20.899  0.00  0.00    +0.000 HD
ENDBRANCH   3  22
BRANCH   7  24
ATOM     24  O   UNL     1       4.202   6.498  19.118  0.00  0.00    +0.000 OA
ATOM     25  C   UNL     1       3.828   7.352  18.037  0.00  0.00    +0.000 C 
ENDBRANCH   7  24
TORSDOF 7
ENDMDL
MODEL 6
REMARK VINA RESULT:      -5.4      8.863     12.122
REMARK  Name = 
REMARK  10 active torsions:
REMARK  status: ('A' for Active; 'I' for Inactive)
REMARK    1  A    between atoms: C_1  and  C_2
REMARK    2  A    between atoms: C_2  and  N_3
REMARK    3  A    between atoms: C_7  and  C_8
REMARK    4  A    between atoms: C_8  and  N_9
REMARK    5  A    between atoms: C_10  and  C_12
REMARK    6  A    between atoms: C_13  and  O_14
REMARK    7  A    between atoms: O_14  and  C_15
REMARK    8  A    between atoms: C_16  and  O_17
REMARK    9  A    between atoms: C_21  and  O_22
REMARK   10  A    between atoms: O_22  and  C_23
REMARK                            x       y       z     vdW  Elec       q    Type
REMARK                         _______ _______ _______ _____ _____    ______ ____
ROOT
ATOM      1  C   UNL     1      -0.480  12.680  21.356  0.00  0.00    +0.000 A 
ATOM      2  C   UNL     1      -0.968  13.194  20.122  0.00  0.00    +0.000 A 
ATOM      3  C   UNL     1      -0.696  12.484  18.949  0.00  0.00    +0.000 A 
ATOM      4  C   UNL     1       0.043  11.314  18.981  0.00  0.00    +0.000 A 
ATOM      5  C   UNL     1       0.429  10.741  20.199  0.00  0.00    +0.000 A 
ATOM      6 BR   UNL     1       1.217   9.018  19.999  0.00  0.00    +0.000 Br
ATOM      7  C   UNL     1       0.147  11.399  21.410  0.00  0.00    +0.000 A 
ENDROOT
BRANCH   1   9
ATOM      8  N   UNL     1      -1.726  13.373  23.449  0.00  0.00    +0.000 N 
ATOM      9  C   UNL     1      -0.677  13.550  22.572  0.00  0.00    +0.000 C 
ATOM     10  O   UNL     1       0.165  14.396  22.873  0.00  0.00    +0.000 OA
ATOM     11  H   UNL     1      -1.604  13.921  24.294  0.00  0.00    +0.000 HD
BRANCH   8  12
ATOM     12  C   UNL     1      -2.984  12.658  23.344  0.00  0.00    +0.000 C 
BRANCH  12  17
ATOM     13  N   UNL     1      -5.285  12.489  22.517  0.00  0.00    +0.000 NA
ATOM     14  C   UNL     1      -6.166  12.939  23.605  0.00  0.00    +0.000 C 
ATOM     15  C   UNL     1      -6.035  14.441  23.615  0.00  0.00    +0.000 C 
ATOM     16  C   UNL     1      -4.559  14.646  23.336  0.00  0.00    +0.000 C 
ATOM     17  C   UNL     1      -4.099  13.381  22.585  0.00  0.00    +0.000 C 
BRANCH  13  19
ATOM     18  C   UNL     1      -4.860  12.562  20.062  0.00  0.00    +0.000 C 
ATOM     19  C   UNL     1      -5.891  12.546  21.182  0.00  0.00    +0.000 C 
ENDBRANCH  13  19
ENDBRANCH  12  17
ENDBRANCH   8  12
ENDBRANCH   1   9
BRANCH   2  20
ATOM     20  O   UNL     1      -1.734  14.329  20.173  0.00  0.00    +0.000 OA
ATOM     21  C   UNL     1      -1.187  15.604  19.852  0.00  0.00    +0.000 C 
ENDBRANCH   2  20
BRANCH   3  22
ATOM     22  O   UNL     1      -1.179  12.821  17.720  0.00  0.00    +0.000 OA
ATOM     23  H   UNL     1      -1.481  13.744  17.797  0.00  0.00    +0.000 HD
ENDBRANCH   3  22
BRANCH   7  24
ATOM     24  O   UNL     1       0.255  10.824  22.655  0.00  0.00    +0.000 OA
ATOM     25  C   UNL     1      -0.673   9.810  23.036  0.00  0.00    +0.000 C 
ENDBRANCH   7  24
TORSDOF 7
ENDMDL
MODEL 7
REMARK VINA RESULT:      -5.4      7.529      9.934
REMARK  Name = 
REMARK  10 active torsions:
REMARK  status: ('A' for Active; 'I' for Inactive)
REMARK    1  A    between atoms: C_1  and  C_2
REMARK    2  A    between atoms: C_2  and  N_3
REMARK    3  A    between atoms: C_7  and  C_8
REMARK    4  A    between atoms: C_8  and  N_9
REMARK    5  A    between atoms: C_10  and  C_12
REMARK    6  A    between atoms: C_13  and  O_14
REMARK    7  A    between atoms: O_14  and  C_15
REMARK    8  A    between atoms: C_16  and  O_17
REMARK    9  A    between atoms: C_21  and  O_22
REMARK   10  A    between atoms: O_22  and  C_23
REMARK                            x       y       z     vdW  Elec       q    Type
REMARK                         _______ _______ _______ _____ _____    ______ ____
ROOT
ATOM      1  C   UNL     1      -1.126  12.018  20.673  0.00  0.00    +0.000 A 
ATOM      2  C   UNL     1      -0.233  11.149  21.360  0.00  0.00    +0.000 A 
ATOM      3  C   UNL     1      -0.493  10.849  22.701  0.00  0.00    +0.000 A 
ATOM      4  C   UNL     1      -1.585  11.395  23.352  0.00  0.00    +0.000 A 
ATOM      5  C   UNL     1      -2.530  12.159  22.656  0.00  0.00    +0.000 A 
ATOM      6 BR   UNL     1      -4.061  12.593  23.704  0.00  0.00    +0.000 Br
ATOM      7  C   UNL     1      -2.332  12.459  21.296  0.00  0.00    +0.000 A 
ENDROOT
BRANCH   1   9
ATOM      8  N   UNL     1      -1.063  11.679  18.164  0.00  0.00    +0.000 N 
ATOM      9  C   UNL     1      -0.728  12.423  19.276  0.00  0.00    +0.000 C 
ATOM     10  O   UNL     1      -0.166  13.499  19.077  0.00  0.00    +0.000 OA
ATOM     11  H   UNL     1      -0.874  12.183  17.305  0.00  0.00    +0.000 HD
BRANCH   8  12
ATOM     12  C   UNL     1      -1.517  10.311  17.999  0.00  0.00    +0.000 C 
BRANCH  12  17
ATOM     13  N   UNL     1      -3.369  11.449  16.867  0.00  0.00    +0.000 NA
ATOM     14  C   UNL     1      -3.098  11.380  15.423  0.00  0.00    +0.000 C 
ATOM     15  C   UNL     1      -3.427   9.960  15.034  0.00  0.00    +0.000 C 
ATOM     16  C   UNL     1      -2.911   9.165  16.217  0.00  0.00    +0.000 C 
ATOM     17  C   UNL     1      -2.919  10.142  17.409  0.00  0.00    +0.000 C 
BRANCH  13  19
ATOM     18  C   UNL     1      -5.255  10.837  18.378  0.00  0.00    +0.000 C 
ATOM     19  C   UNL     1      -4.777  11.687  17.209  0.00  0.00    +0.000 C 
ENDBRANCH  13  19
ENDBRANCH  12  17
ENDBRANCH   8  12
ENDBRANCH   1   9
BRANCH   2  20
ATOM     20  O   UNL     1       0.797  10.606  20.637  0.00  0.00    +0.000 OA
ATOM     21  C   UNL     1       0.885   9.203  20.417  0.00  0.00    +0.000 C 
ENDBRANCH   2  20
BRANCH   3  22
ATOM     22  O   UNL     1       0.231   9.964  23.442  0.00  0.00    +0.000 OA
ATOM     23  H   UNL     1      -0.004  10.140  24.371  0.00  0.00    +0.000 HD
ENDBRANCH   3  22
BRANCH   7  24
ATOM     24  O   UNL     1      -3.294  12.979  20.463  0.00  0.00    +0.000 OA
ATOM     25  C   UNL     1      -3.684  14.344  20.616  0.00  0.00    +0.000 C 
ENDBRANCH   7  24
TORSDOF 7
ENDMDL
MODEL 8
REMARK VINA RESULT:      -5.4      8.086     11.321
REMARK  Name = 
REMARK  10 active torsions:
REMARK  status: ('A' for Active; 'I' for Inactive)
REMARK    1  A    between atoms: C_1  and  C_2
REMARK    2  A    between atoms: C_2  and  N_3
REMARK    3  A    between atoms: C_7  and  C_8
REMARK    4  A    between atoms: C_8  and  N_9
REMARK    5  A    between atoms: C_10  and  C_12
REMARK    6  A    between atoms: C_13  and  O_14
REMARK    7  A    between atoms: O_14  and  C_15
REMARK    8  A    between atoms: C_16  and  O_17
REMARK    9  A    between atoms: C_21  and  O_22
REMARK   10  A    between atoms: O_22  and  C_23
REMARK                            x       y       z     vdW  Elec       q    Type
REMARK                         _______ _______ _______ _____ _____    ______ ____
ROOT
ATOM      1  C   UNL     1       0.059  11.596  20.968  0.00  0.00    +0.000 A 
ATOM      2  C   UNL     1      -0.418  11.734  19.634  0.00  0.00    +0.000 A 
ATOM      3  C   UNL     1      -0.166  10.703  18.725  0.00  0.00    +0.000 A 
ATOM      4  C   UNL     1       0.543   9.577  19.106  0.00  0.00    +0.000 A 
ATOM      5  C   UNL     1       0.916   9.380  20.441  0.00  0.00    +0.000 A 
ATOM      6 BR   UNL     1       1.660   7.656  20.764  0.00  0.00    +0.000 Br
ATOM      7  C   UNL     1       0.654  10.374  21.402  0.00  0.00    +0.000 A 
ENDROOT
BRANCH   1   9
ATOM      8  N   UNL     1      -1.206  12.945  22.698  0.00  0.00    +0.000 N 
ATOM      9  C   UNL     1      -0.114  12.792  21.871  0.00  0.00    +0.000 C 
ATOM     10  O   UNL     1       0.781  13.631  21.968  0.00  0.00    +0.000 OA
ATOM     11  H   UNL     1      -1.073  13.704  23.357  0.00  0.00    +0.000 HD
BRANCH   8  12
ATOM     12  C   UNL     1      -2.512  12.315  22.726  0.00  0.00    +0.000 C 
BRANCH  12  17
ATOM     13  N   UNL     1      -4.951  12.491  22.553  0.00  0.00    +0.000 NA
ATOM     14  C   UNL     1      -5.420  13.169  23.771  0.00  0.00    +0.000 C 
ATOM     15  C   UNL     1      -5.068  14.622  23.566  0.00  0.00    +0.000 C 
ATOM     16  C   UNL     1      -3.714  14.542  22.890  0.00  0.00    +0.000 C 
ATOM     17  C   UNL     1      -3.673  13.164  22.203  0.00  0.00    +0.000 C 
BRANCH  13  19
ATOM     18  C   UNL     1      -5.188  12.524  20.072  0.00  0.00    +0.000 C 
ATOM     19  C   UNL     1      -5.887  12.554  21.424  0.00  0.00    +0.000 C 
ENDBRANCH  13  19
ENDBRANCH  12  17
ENDBRANCH   8  12
ENDBRANCH   1   9
BRANCH   2  20
ATOM     20  O   UNL     1      -1.155  12.853  19.344  0.00  0.00    +0.000 OA
ATOM     21  C   UNL     1      -0.588  13.944  18.626  0.00  0.00    +0.000 C 
ENDBRANCH   2  20
BRANCH   3  22
ATOM     22  O   UNL     1      -0.643  10.674  17.449  0.00  0.00    +0.000 OA
ATOM     23  H   UNL     1       0.096  10.363  16.896  0.00  0.00    +0.000 HD
ENDBRANCH   3  22
BRANCH   7  24
ATOM     24  O   UNL     1       0.749  10.190  22.761  0.00  0.00    +0.000 OA
ATOM     25  C   UNL     1      -0.274   9.461  23.439  0.00  0.00    +0.000 C 
ENDBRANCH   7  24
TORSDOF 7
ENDMDL
MODEL 9
REMARK VINA RESULT:      -5.3      8.699     11.540
REMARK  Name = 
REMARK  10 active torsions:
REMARK  status: ('A' for Active; 'I' for Inactive)
REMARK    1  A    between atoms: C_1  and  C_2
REMARK    2  A    between atoms: C_2  and  N_3
REMARK    3  A    between atoms: C_7  and  C_8
REMARK    4  A    between atoms: C_8  and  N_9
REMARK    5  A    between atoms: C_10  and  C_12
REMARK    6  A    between atoms: C_13  and  O_14
REMARK    7  A    between atoms: O_14  and  C_15
REMARK    8  A    between atoms: C_16  and  O_17
REMARK    9  A    between atoms: C_21  and  O_22
REMARK   10  A    between atoms: O_22  and  C_23
REMARK                            x       y       z     vdW  Elec       q    Type
REMARK                         _______ _______ _______ _____ _____    ______ ____
ROOT
ATOM      1  C   UNL     1      -1.141  12.321  20.649  0.00  0.00    +0.000 A 
ATOM      2  C   UNL     1      -1.087  11.823  21.981  0.00  0.00    +0.000 A 
ATOM      3  C   UNL     1      -0.370  10.648  22.226  0.00  0.00    +0.000 A 
ATOM      4  C   UNL     1       0.262   9.974  21.196  0.00  0.00    +0.000 A 
ATOM      5  C   UNL     1       0.311  10.514  19.906  0.00  0.00    +0.000 A 
ATOM      6 BR   UNL     1       1.438   9.533  18.724  0.00  0.00    +0.000 Br
ATOM      7  C   UNL     1      -0.366  11.714  19.617  0.00  0.00    +0.000 A 
ENDROOT
BRANCH   1   9
ATOM      8  N   UNL     1      -3.371  13.377  20.080  0.00  0.00    +0.000 N 
ATOM      9  C   UNL     1      -2.039  13.508  20.411  0.00  0.00    +0.000 C 
ATOM     10  O   UNL     1      -1.624  14.650  20.606  0.00  0.00    +0.000 OA
ATOM     11  H   UNL     1      -3.860  14.264  20.134  0.00  0.00    +0.000 HD
BRANCH   8  12
ATOM     12  C   UNL     1      -4.152  12.262  19.579  0.00  0.00    +0.000 C 
BRANCH  12  17
ATOM     13  N   UNL     1      -6.192  11.727  18.329  0.00  0.00    +0.000 NA
ATOM     14  C   UNL     1      -6.740  10.491  18.909  0.00  0.00    +0.000 C 
ATOM     15  C   UNL     1      -7.371  10.920  20.210  0.00  0.00    +0.000 C 
ATOM     16  C   UNL     1      -6.392  11.954  20.729  0.00  0.00    +0.000 C 
ATOM     17  C   UNL     1      -5.662  12.495  19.485  0.00  0.00    +0.000 C 
BRANCH  13  19
ATOM     18  C   UNL     1      -6.665  13.935  17.273  0.00  0.00    +0.000 C 
ATOM     19  C   UNL     1      -7.168  12.532  17.585  0.00  0.00    +0.000 C 
ENDBRANCH  13  19
ENDBRANCH  12  17
ENDBRANCH   8  12
ENDBRANCH   1   9
BRANCH   2  20
ATOM     20  O   UNL     1      -1.694  12.571  22.956  0.00  0.00    +0.000 OA
ATOM     21  C   UNL     1      -2.951  12.189  23.503  0.00  0.00    +0.000 C 
ENDBRANCH   2  20
BRANCH   3  22
ATOM     22  O   UNL     1      -0.168  10.118  23.466  0.00  0.00    +0.000 OA
ATOM     23  H   UNL     1      -1.050  10.053  23.874  0.00  0.00    +0.000 HD
ENDBRANCH   3  22
BRANCH   7  24
ATOM     24  O   UNL     1      -0.187  12.454  18.472  0.00  0.00    +0.000 OA
ATOM     25  C   UNL     1       0.947  13.314  18.368  0.00  0.00    +0.000 C 
ENDBRANCH   7  24
TORSDOF 7
ENDMDL
