MODEL 1
REMARK VINA RESULT:      -8.0      0.000      0.000
REMARK  Name = 
REMARK  7 active torsions:
REMARK  status: ('A' for Active; 'I' for Inactive)
REMARK    1  A    between atoms: C_1  and  C_2
REMARK    2  A    between atoms: C_5  and  C_6
REMARK    3  A    between atoms: N_7  and  O_8
REMARK    4  A    between atoms: N_9  and  C_10
REMARK    5  A    between atoms: C_10  and  C_11
REMARK    6  A    between atoms: C_14  and  O_15
REMARK    7  A    between atoms: O_15  and  C_16
REMARK                            x       y       z     vdW  Elec       q    Type
REMARK                         _______ _______ _______ _____ _____    ______ ____
ROOT
ATOM      1  C   UNL     1       7.972   8.546  17.469  0.00  0.00    +0.000 C 
ATOM      2  C   UNL     1       7.198   7.315  17.827  0.00  0.00    +0.000 A 
ATOM      3  C   UNL     1       7.762   6.291  18.567  0.00  0.00    +0.000 A 
ATOM      4  C   UNL     1       7.002   5.147  18.809  0.00  0.00    +0.000 A 
ATOM      5  C   UNL     1       5.678   5.051  18.354  0.00  0.00    +0.000 A 
ATOM      6  C   UNL     1       5.160   6.171  17.696  0.00  0.00    +0.000 A 
ATOM      7  N   UNL     1       5.925   7.263  17.394  0.00  0.00    +0.000 NA
ENDROOT
BRANCH   5   8
ATOM      8  C   UNL     1       4.947   3.734  18.536  0.00  0.00    +0.000 C 
ATOM      9  N   UNL     1       5.244   3.060  19.609  0.00  0.00    +0.000 NA
ATOM     10  N   UNL     1       4.003   3.403  17.566  0.00  0.00    +0.000 N 
ATOM     11  H   UNL     1       4.207   3.651  16.610  0.00  0.00    +0.000 HD
BRANCH   9  12
ATOM     12  O   UNL     1       4.563   1.845  19.710  0.00  0.00    +0.000 OA
ATOM     13  H   UNL     1       5.237   1.263  20.101  0.00  0.00    +0.000 HD
ENDBRANCH   9  12
BRANCH  10  14
ATOM     14  C   UNL     1       2.878   2.515  17.751  0.00  0.00    +0.000 C 
BRANCH  14  15
ATOM     15  C   UNL     1       1.653   3.187  18.315  0.00  0.00    +0.000 C 
ATOM     16  C   UNL     1       0.511   2.371  18.869  0.00  0.00    +0.000 C 
ATOM     17  C   UNL     1       1.280   3.296  19.776  0.00  0.00    +0.000 C 
ENDBRANCH  14  15
ENDBRANCH  10  14
ENDBRANCH   5   8
BRANCH   6  18
ATOM     18  O   UNL     1       3.812   6.255  17.362  0.00  0.00    +0.000 OA
BRANCH  18  19
ATOM     19  C   UNL     1       3.031   7.111  18.129  0.00  0.00    +0.000 A 
ATOM     20  C   UNL     1       2.730   6.731  19.439  0.00  0.00    +0.000 A 
ATOM     21  C   UNL     1       1.892   7.544  20.221  0.00  0.00    +0.000 A 
ATOM     22  C   UNL     1       1.373   8.715  19.689  0.00  0.00    +0.000 A 
ATOM     23  F   UNL     1       0.541   9.465  20.425  0.00  0.00    +0.000 F 
ATOM     24  C   UNL     1       1.703   9.125  18.403  0.00  0.00    +0.000 A 
ATOM     25  C   UNL     1       2.558   8.335  17.632  0.00  0.00    +0.000 A 
ENDBRANCH  18  19
ENDBRANCH   6  18
TORSDOF 6
ENDMDL
MODEL 2
REMARK VINA RESULT:      -7.9      0.151      1.019
REMARK  Name = 
REMARK  7 active torsions:
REMARK  status: ('A' for Active; 'I' for Inactive)
REMARK    1  A    between atoms: C_1  and  C_2
REMARK    2  A    between atoms: C_5  and  C_6
REMARK    3  A    between atoms: N_7  and  O_8
REMARK    4  A    between atoms: N_9  and  C_10
REMARK    5  A    between atoms: C_10  and  C_11
REMARK    6  A    between atoms: C_14  and  O_15
REMARK    7  A    between atoms: O_15  and  C_16
REMARK                            x       y       z     vdW  Elec       q    Type
REMARK                         _______ _______ _______ _____ _____    ______ ____
ROOT
ATOM      1  C   UNL     1       7.968   8.599  17.469  0.00  0.00    +0.000 C 
ATOM      2  C   UNL     1       7.215   7.361  17.847  0.00  0.00    +0.000 A 
ATOM      3  C   UNL     1       7.785   6.373  18.630  0.00  0.00    +0.000 A 
ATOM      4  C   UNL     1       7.047   5.219  18.890  0.00  0.00    +0.000 A 
ATOM      5  C   UNL     1       5.735   5.078  18.408  0.00  0.00    +0.000 A 
ATOM      6  C   UNL     1       5.207   6.165  17.704  0.00  0.00    +0.000 A 
ATOM      7  N   UNL     1       5.954   7.265  17.386  0.00  0.00    +0.000 NA
ENDROOT
BRANCH   5   8
ATOM      8  C   UNL     1       5.032   3.750  18.613  0.00  0.00    +0.000 C 
ATOM      9  N   UNL     1       5.277   3.142  19.737  0.00  0.00    +0.000 NA
ATOM     10  N   UNL     1       4.162   3.341  17.604  0.00  0.00    +0.000 N 
ATOM     11  H   UNL     1       4.421   3.545  16.651  0.00  0.00    +0.000 HD
BRANCH   9  12
ATOM     12  O   UNL     1       4.625   1.913  19.860  0.00  0.00    +0.000 OA
ATOM     13  H   UNL     1       3.879   2.013  19.242  0.00  0.00    +0.000 HD
ENDBRANCH   9  12
BRANCH  10  14
ATOM     14  C   UNL     1       3.052   2.428  17.764  0.00  0.00    +0.000 C 
BRANCH  14  15
ATOM     15  C   UNL     1       1.751   3.103  18.111  0.00  0.00    +0.000 C 
ATOM     16  C   UNL     1       0.647   2.341  18.805  0.00  0.00    +0.000 C 
ATOM     17  C   UNL     1       1.292   3.516  19.492  0.00  0.00    +0.000 C 
ENDBRANCH  14  15
ENDBRANCH  10  14
ENDBRANCH   5   8
BRANCH   6  18
ATOM     18  O   UNL     1       3.866   6.207  17.337  0.00  0.00    +0.000 OA
BRANCH  18  19
ATOM     19  C   UNL     1       3.031   7.001  18.114  0.00  0.00    +0.000 A 
ATOM     20  C   UNL     1       2.497   8.156  17.538  0.00  0.00    +0.000 A 
ATOM     21  C   UNL     1       1.698   9.012  18.315  0.00  0.00    +0.000 A 
ATOM     22  C   UNL     1       1.446   8.704  19.643  0.00  0.00    +0.000 A 
ATOM     23  F   UNL     1       0.719   9.546  20.390  0.00  0.00    +0.000 F 
ATOM     24  C   UNL     1       1.934   7.535  20.212  0.00  0.00    +0.000 A 
ATOM     25  C   UNL     1       2.705   6.667  19.437  0.00  0.00    +0.000 A 
ENDBRANCH  18  19
ENDBRANCH   6  18
TORSDOF 6
ENDMDL
MODEL 3
REMARK VINA RESULT:      -7.4      2.174      4.741
REMARK  Name = 
REMARK  7 active torsions:
REMARK  status: ('A' for Active; 'I' for Inactive)
REMARK    1  A    between atoms: C_1  and  C_2
REMARK    2  A    between atoms: C_5  and  C_6
REMARK    3  A    between atoms: N_7  and  O_8
REMARK    4  A    between atoms: N_9  and  C_10
REMARK    5  A    between atoms: C_10  and  C_11
REMARK    6  A    between atoms: C_14  and  O_15
REMARK    7  A    between atoms: O_15  and  C_16
REMARK                            x       y       z     vdW  Elec       q    Type
REMARK                         _______ _______ _______ _____ _____    ______ ____
ROOT
ATOM      1  C   UNL     1       0.205   2.589  19.110  0.00  0.00    +0.000 C 
ATOM      2  C   UNL     1       1.539   3.165  18.753  0.00  0.00    +0.000 A 
ATOM      3  C   UNL     1       2.324   2.620  17.753  0.00  0.00    +0.000 A 
ATOM      4  C   UNL     1       3.583   3.171  17.517  0.00  0.00    +0.000 A 
ATOM      5  C   UNL     1       4.030   4.285  18.244  0.00  0.00    +0.000 A 
ATOM      6  C   UNL     1       3.134   4.828  19.171  0.00  0.00    +0.000 A 
ATOM      7  N   UNL     1       1.930   4.245  19.455  0.00  0.00    +0.000 NA
ENDROOT
BRANCH   5   8
ATOM      8  C   UNL     1       5.456   4.758  18.033  0.00  0.00    +0.000 C 
ATOM      9  N   UNL     1       6.336   4.319  18.886  0.00  0.00    +0.000 NA
ATOM     10  N   UNL     1       5.687   5.570  16.925  0.00  0.00    +0.000 N 
ATOM     11  H   UNL     1       4.974   6.239  16.676  0.00  0.00    +0.000 HD
BRANCH   9  12
ATOM     12  O   UNL     1       7.624   4.807  18.659  0.00  0.00    +0.000 OA
ATOM     13  H   UNL     1       8.168   4.219  19.210  0.00  0.00    +0.000 HD
ENDBRANCH   9  12
BRANCH  10  14
ATOM     14  C   UNL     1       6.953   5.733  16.246  0.00  0.00    +0.000 C 
BRANCH  14  15
ATOM     15  C   UNL     1       7.216   4.697  15.184  0.00  0.00    +0.000 C 
ATOM     16  C   UNL     1       6.074   4.036  14.452  0.00  0.00    +0.000 C 
ATOM     17  C   UNL     1       7.061   4.881  13.691  0.00  0.00    +0.000 C 
ENDBRANCH  14  15
ENDBRANCH  10  14
ENDBRANCH   5   8
BRANCH   6  18
ATOM     18  O   UNL     1       3.400   6.031  19.816  0.00  0.00    +0.000 OA
BRANCH  18  19
ATOM     19  C   UNL     1       2.614   7.119  19.458  0.00  0.00    +0.000 A 
ATOM     20  C   UNL     1       2.628   7.531  18.123  0.00  0.00    +0.000 A 
ATOM     21  C   UNL     1       1.891   8.665  17.740  0.00  0.00    +0.000 A 
ATOM     22  C   UNL     1       1.157   9.363  18.687  0.00  0.00    +0.000 A 
ATOM     23  F   UNL     1       0.491  10.468  18.324  0.00  0.00    +0.000 F 
ATOM     24  C   UNL     1       1.100   8.935  20.007  0.00  0.00    +0.000 A 
ATOM     25  C   UNL     1       1.807   7.793  20.387  0.00  0.00    +0.000 A 
ENDBRANCH  18  19
ENDBRANCH   6  18
TORSDOF 6
ENDMDL
MODEL 4
REMARK VINA RESULT:      -7.3      1.119      1.756
REMARK  Name = 
REMARK  7 active torsions:
REMARK  status: ('A' for Active; 'I' for Inactive)
REMARK    1  A    between atoms: C_1  and  C_2
REMARK    2  A    between atoms: C_5  and  C_6
REMARK    3  A    between atoms: N_7  and  O_8
REMARK    4  A    between atoms: N_9  and  C_10
REMARK    5  A    between atoms: C_10  and  C_11
REMARK    6  A    between atoms: C_14  and  O_15
REMARK    7  A    between atoms: O_15  and  C_16
REMARK                            x       y       z     vdW  Elec       q    Type
REMARK                         _______ _______ _______ _____ _____    ______ ____
ROOT
ATOM      1  C   UNL     1       7.625   7.688  17.569  0.00  0.00    +0.000 C 
ATOM      2  C   UNL     1       6.587   6.645  17.841  0.00  0.00    +0.000 A 
ATOM      3  C   UNL     1       6.894   5.465  18.496  0.00  0.00    +0.000 A 
ATOM      4  C   UNL     1       5.890   4.511  18.659  0.00  0.00    +0.000 A 
ATOM      5  C   UNL     1       4.582   4.758  18.214  0.00  0.00    +0.000 A 
ATOM      6  C   UNL     1       4.340   6.014  17.648  0.00  0.00    +0.000 A 
ATOM      7  N   UNL     1       5.338   6.920  17.420  0.00  0.00    +0.000 NA
ENDROOT
BRANCH   5   8
ATOM      8  C   UNL     1       3.567   3.634  18.305  0.00  0.00    +0.000 C 
ATOM      9  N   UNL     1       4.047   2.425  18.249  0.00  0.00    +0.000 NA
ATOM     10  N   UNL     1       2.237   4.006  18.486  0.00  0.00    +0.000 N 
ATOM     11  H   UNL     1       1.913   4.838  18.013  0.00  0.00    +0.000 HD
BRANCH   9  12
ATOM     12  O   UNL     1       3.066   1.434  18.309  0.00  0.00    +0.000 OA
ATOM     13  H   UNL     1       2.265   1.948  18.511  0.00  0.00    +0.000 HD
ENDBRANCH   9  12
BRANCH  10  14
ATOM     14  C   UNL     1       1.202   3.186  19.074  0.00  0.00    +0.000 C 
BRANCH  14  15
ATOM     15  C   UNL     1       0.993   3.427  20.546  0.00  0.00    +0.000 C 
ATOM     16  C   UNL     1       1.511   2.448  21.571  0.00  0.00    +0.000 C 
ATOM     17  C   UNL     1       2.043   3.856  21.545  0.00  0.00    +0.000 C 
ENDBRANCH  14  15
ENDBRANCH  10  14
ENDBRANCH   5   8
BRANCH   6  18
ATOM     18  O   UNL     1       3.050   6.431  17.337  0.00  0.00    +0.000 OA
BRANCH  18  19
ATOM     19  C   UNL     1       2.451   7.321  18.220  0.00  0.00    +0.000 A 
ATOM     20  C   UNL     1       1.974   8.531  17.713  0.00  0.00    +0.000 A 
ATOM     21  C   UNL     1       1.419   9.479  18.589  0.00  0.00    +0.000 A 
ATOM     22  C   UNL     1       1.348   9.205  19.947  0.00  0.00    +0.000 A 
ATOM     23  F   UNL     1       0.856  10.130  20.783  0.00  0.00    +0.000 F 
ATOM     24  C   UNL     1       1.778   7.986  20.455  0.00  0.00    +0.000 A 
ATOM     25  C   UNL     1       2.304   7.030  19.585  0.00  0.00    +0.000 A 
ENDBRANCH  18  19
ENDBRANCH   6  18
TORSDOF 6
ENDMDL
MODEL 5
REMARK VINA RESULT:      -7.3      3.083      6.021
REMARK  Name = 
REMARK  7 active torsions:
REMARK  status: ('A' for Active; 'I' for Inactive)
REMARK    1  A    between atoms: C_1  and  C_2
REMARK    2  A    between atoms: C_5  and  C_6
REMARK    3  A    between atoms: N_7  and  O_8
REMARK    4  A    between atoms: N_9  and  C_10
REMARK    5  A    between atoms: C_10  and  C_11
REMARK    6  A    between atoms: C_14  and  O_15
REMARK    7  A    between atoms: O_15  and  C_16
REMARK                            x       y       z     vdW  Elec       q    Type
REMARK                         _______ _______ _______ _____ _____    ______ ____
ROOT
ATOM      1  C   UNL     1       5.075   3.532  12.957  0.00  0.00    +0.000 C 
ATOM      2  C   UNL     1       5.672   4.236  14.136  0.00  0.00    +0.000 A 
ATOM      3  C   UNL     1       7.009   4.588  14.173  0.00  0.00    +0.000 A 
ATOM      4  C   UNL     1       7.510   5.185  15.329  0.00  0.00    +0.000 A 
ATOM      5  C   UNL     1       6.669   5.469  16.417  0.00  0.00    +0.000 A 
ATOM      6  C   UNL     1       5.314   5.164  16.256  0.00  0.00    +0.000 A 
ATOM      7  N   UNL     1       4.835   4.512  15.154  0.00  0.00    +0.000 NA
ENDROOT
BRANCH   5   8
ATOM      8  C   UNL     1       7.296   6.000  17.692  0.00  0.00    +0.000 C 
ATOM      9  N   UNL     1       7.574   5.114  18.604  0.00  0.00    +0.000 NA
ATOM     10  N   UNL     1       7.553   7.369  17.739  0.00  0.00    +0.000 N 
ATOM     11  H   UNL     1       6.887   7.987  17.301  0.00  0.00    +0.000 HD
BRANCH   9  12
ATOM     12  O   UNL     1       8.124   5.662  19.764  0.00  0.00    +0.000 OA
ATOM     13  H   UNL     1       7.987   4.950  20.413  0.00  0.00    +0.000 HD
ENDBRANCH   9  12
BRANCH  10  14
ATOM     14  C   UNL     1       8.543   8.014  18.573  0.00  0.00    +0.000 C 
BRANCH  14  15
ATOM     15  C   UNL     1       8.466   9.519  18.560  0.00  0.00    +0.000 C 
ATOM     16  C   UNL     1       9.304  10.342  19.508  0.00  0.00    +0.000 C 
ATOM     17  C   UNL     1       9.513  10.468  18.022  0.00  0.00    +0.000 C 
ENDBRANCH  14  15
ENDBRANCH  10  14
ENDBRANCH   5   8
BRANCH   6  18
ATOM     18  O   UNL     1       4.366   5.564  17.192  0.00  0.00    +0.000 OA
BRANCH  18  19
ATOM     19  C   UNL     1       3.641   4.556  17.816  0.00  0.00    +0.000 A 
ATOM     20  C   UNL     1       2.248   4.607  17.746  0.00  0.00    +0.000 A 
ATOM     21  C   UNL     1       1.484   3.637  18.418  0.00  0.00    +0.000 A 
ATOM     22  C   UNL     1       2.119   2.639  19.143  0.00  0.00    +0.000 A 
ATOM     23  F   UNL     1       1.385   1.743  19.816  0.00  0.00    +0.000 F 
ATOM     24  C   UNL     1       3.505   2.553  19.181  0.00  0.00    +0.000 A 
ATOM     25  C   UNL     1       4.268   3.498  18.492  0.00  0.00    +0.000 A 
ENDBRANCH  18  19
ENDBRANCH   6  18
TORSDOF 6
ENDMDL
MODEL 6
REMARK VINA RESULT:      -7.1      1.061      1.731
REMARK  Name = 
REMARK  7 active torsions:
REMARK  status: ('A' for Active; 'I' for Inactive)
REMARK    1  A    between atoms: C_1  and  C_2
REMARK    2  A    between atoms: C_5  and  C_6
REMARK    3  A    between atoms: N_7  and  O_8
REMARK    4  A    between atoms: N_9  and  C_10
REMARK    5  A    between atoms: C_10  and  C_11
REMARK    6  A    between atoms: C_14  and  O_15
REMARK    7  A    between atoms: O_15  and  C_16
REMARK                            x       y       z     vdW  Elec       q    Type
REMARK                         _______ _______ _______ _____ _____    ______ ____
ROOT
ATOM      1  C   UNL     1       8.090   8.561  17.496  0.00  0.00    +0.000 C 
ATOM      2  C   UNL     1       7.233   7.380  17.829  0.00  0.00    +0.000 A 
ATOM      3  C   UNL     1       7.703   6.334  18.603  0.00  0.00    +0.000 A 
ATOM      4  C   UNL     1       6.870   5.238  18.821  0.00  0.00    +0.000 A 
ATOM      5  C   UNL     1       5.564   5.212  18.308  0.00  0.00    +0.000 A 
ATOM      6  C   UNL     1       5.140   6.351  17.617  0.00  0.00    +0.000 A 
ATOM      7  N   UNL     1       5.979   7.394  17.339  0.00  0.00    +0.000 NA
ENDROOT
BRANCH   5   8
ATOM      8  C   UNL     1       4.753   3.940  18.469  0.00  0.00    +0.000 C 
ATOM      9  N   UNL     1       4.679   3.172  17.421  0.00  0.00    +0.000 NA
ATOM     10  N   UNL     1       4.211   3.699  19.730  0.00  0.00    +0.000 N 
ATOM     11  H   UNL     1       3.872   4.492  20.254  0.00  0.00    +0.000 HD
BRANCH   9  12
ATOM     12  O   UNL     1       3.899   2.031  17.619  0.00  0.00    +0.000 OA
ATOM     13  H   UNL     1       3.031   2.411  17.839  0.00  0.00    +0.000 HD
ENDBRANCH   9  12
BRANCH  10  14
ATOM     14  C   UNL     1       3.850   2.404  20.262  0.00  0.00    +0.000 C 
BRANCH  14  15
ATOM     15  C   UNL     1       2.665   2.433  21.192  0.00  0.00    +0.000 C 
ATOM     16  C   UNL     1       2.049   3.744  21.617  0.00  0.00    +0.000 C 
ATOM     17  C   UNL     1       1.236   2.759  20.819  0.00  0.00    +0.000 C 
ENDBRANCH  14  15
ENDBRANCH  10  14
ENDBRANCH   5   8
BRANCH   6  18
ATOM     18  O   UNL     1       3.816   6.507  17.221  0.00  0.00    +0.000 OA
BRANCH  18  19
ATOM     19  C   UNL     1       2.989   7.223  18.078  0.00  0.00    +0.000 A 
ATOM     20  C   UNL     1       2.464   8.436  17.625  0.00  0.00    +0.000 A 
ATOM     21  C   UNL     1       1.674   9.214  18.488  0.00  0.00    +0.000 A 
ATOM     22  C   UNL     1       1.421   8.773  19.778  0.00  0.00    +0.000 A 
ATOM     23  F   UNL     1       0.702   9.540  20.610  0.00  0.00    +0.000 F 
ATOM     24  C   UNL     1       1.900   7.547  20.223  0.00  0.00    +0.000 A 
ATOM     25  C   UNL     1       2.662   6.757  19.361  0.00  0.00    +0.000 A 
ENDBRANCH  18  19
ENDBRANCH   6  18
TORSDOF 6
ENDMDL
MODEL 7
REMARK VINA RESULT:      -7.0      2.723      4.773
REMARK  Name = 
REMARK  7 active torsions:
REMARK  status: ('A' for Active; 'I' for Inactive)
REMARK    1  A    between atoms: C_1  and  C_2
REMARK    2  A    between atoms: C_5  and  C_6
REMARK    3  A    between atoms: N_7  and  O_8
REMARK    4  A    between atoms: N_9  and  C_10
REMARK    5  A    between atoms: C_10  and  C_11
REMARK    6  A    between atoms: C_14  and  O_15
REMARK    7  A    between atoms: O_15  and  C_16
REMARK                            x       y       z     vdW  Elec       q    Type
REMARK                         _______ _______ _______ _____ _____    ______ ____
ROOT
ATOM      1  C   UNL     1       0.627   3.279  19.726  0.00  0.00    +0.000 C 
ATOM      2  C   UNL     1       1.810   3.616  18.872  0.00  0.00    +0.000 A 
ATOM      3  C   UNL     1       2.342   2.706  17.976  0.00  0.00    +0.000 A 
ATOM      4  C   UNL     1       3.482   3.066  17.258  0.00  0.00    +0.000 A 
ATOM      5  C   UNL     1       4.054   4.340  17.404  0.00  0.00    +0.000 A 
ATOM      6  C   UNL     1       3.395   5.227  18.261  0.00  0.00    +0.000 A 
ATOM      7  N   UNL     1       2.321   4.852  19.020  0.00  0.00    +0.000 NA
ENDROOT
BRANCH   5   8
ATOM      8  C   UNL     1       5.364   4.626  16.695  0.00  0.00    +0.000 C 
ATOM      9  N   UNL     1       6.446   4.388  17.378  0.00  0.00    +0.000 NA
ATOM     10  N   UNL     1       5.278   5.066  15.376  0.00  0.00    +0.000 N 
ATOM     11  H   UNL     1       4.518   5.685  15.136  0.00  0.00    +0.000 HD
BRANCH   9  12
ATOM     12  O   UNL     1       7.620   4.695  16.686  0.00  0.00    +0.000 OA
ATOM     13  H   UNL     1       8.145   3.885  16.802  0.00  0.00    +0.000 HD
ENDBRANCH   9  12
BRANCH  10  14
ATOM     14  C   UNL     1       6.310   4.933  14.372  0.00  0.00    +0.000 C 
BRANCH  14  15
ATOM     15  C   UNL     1       6.203   3.677  13.547  0.00  0.00    +0.000 C 
ATOM     16  C   UNL     1       5.179   3.563  12.444  0.00  0.00    +0.000 C 
ATOM     17  C   UNL     1       6.647   3.504  12.112  0.00  0.00    +0.000 C 
ENDBRANCH  14  15
ENDBRANCH  10  14
ENDBRANCH   5   8
BRANCH   6  18
ATOM     18  O   UNL     1       3.767   6.565  18.344  0.00  0.00    +0.000 OA
BRANCH  18  19
ATOM     19  C   UNL     1       2.767   7.472  18.671  0.00  0.00    +0.000 A 
ATOM     20  C   UNL     1       2.321   8.347  17.678  0.00  0.00    +0.000 A 
ATOM     21  C   UNL     1       1.355   9.317  17.993  0.00  0.00    +0.000 A 
ATOM     22  C   UNL     1       0.852   9.398  19.283  0.00  0.00    +0.000 A 
ATOM     23  F   UNL     1      -0.038  10.352  19.587  0.00  0.00    +0.000 F 
ATOM     24  C   UNL     1       1.255   8.503  20.266  0.00  0.00    +0.000 A 
ATOM     25  C   UNL     1       2.194   7.519  19.951  0.00  0.00    +0.000 A 
ENDBRANCH  18  19
ENDBRANCH   6  18
TORSDOF 6
ENDMDL
MODEL 8
REMARK VINA RESULT:      -7.0      2.642      4.752
REMARK  Name = 
REMARK  7 active torsions:
REMARK  status: ('A' for Active; 'I' for Inactive)
REMARK    1  A    between atoms: C_1  and  C_2
REMARK    2  A    between atoms: C_5  and  C_6
REMARK    3  A    between atoms: N_7  and  O_8
REMARK    4  A    between atoms: N_9  and  C_10
REMARK    5  A    between atoms: C_10  and  C_11
REMARK    6  A    between atoms: C_14  and  O_15
REMARK    7  A    between atoms: O_15  and  C_16
REMARK                            x       y       z     vdW  Elec       q    Type
REMARK                         _______ _______ _______ _____ _____    ______ ____
ROOT
ATOM      1  C   UNL     1       0.824   2.397  19.871  0.00  0.00    +0.000 C 
ATOM      2  C   UNL     1       1.945   2.947  19.046  0.00  0.00    +0.000 A 
ATOM      3  C   UNL     1       2.353   2.339  17.873  0.00  0.00    +0.000 A 
ATOM      4  C   UNL     1       3.445   2.872  17.188  0.00  0.00    +0.000 A 
ATOM      5  C   UNL     1       4.091   4.029  17.651  0.00  0.00    +0.000 A 
ATOM      6  C   UNL     1       3.553   4.630  18.794  0.00  0.00    +0.000 A 
ATOM      7  N   UNL     1       2.531   4.069  19.506  0.00  0.00    +0.000 NA
ENDROOT
BRANCH   5   8
ATOM      8  C   UNL     1       5.349   4.485  16.938  0.00  0.00    +0.000 C 
ATOM      9  N   UNL     1       6.464   4.327  17.589  0.00  0.00    +0.000 NA
ATOM     10  N   UNL     1       5.190   4.980  15.645  0.00  0.00    +0.000 N 
ATOM     11  H   UNL     1       4.365   5.528  15.450  0.00  0.00    +0.000 HD
BRANCH   9  12
ATOM     12  O   UNL     1       7.585   4.789  16.896  0.00  0.00    +0.000 OA
ATOM     13  H   UNL     1       8.052   3.962  16.686  0.00  0.00    +0.000 HD
ENDBRANCH   9  12
BRANCH  10  14
ATOM     14  C   UNL     1       6.208   5.006  14.619  0.00  0.00    +0.000 C 
BRANCH  14  15
ATOM     15  C   UNL     1       6.228   3.779  13.745  0.00  0.00    +0.000 C 
ATOM     16  C   UNL     1       5.232   3.613  12.623  0.00  0.00    +0.000 C 
ATOM     17  C   UNL     1       6.702   3.703  12.311  0.00  0.00    +0.000 C 
ENDBRANCH  14  15
ENDBRANCH  10  14
ENDBRANCH   5   8
BRANCH   6  18
ATOM     18  O   UNL     1       4.000   5.872  19.236  0.00  0.00    +0.000 OA
BRANCH  18  19
ATOM     19  C   UNL     1       3.140   6.947  19.049  0.00  0.00    +0.000 A 
ATOM     20  C   UNL     1       2.292   7.302  20.101  0.00  0.00    +0.000 A 
ATOM     21  C   UNL     1       1.367   8.345  19.923  0.00  0.00    +0.000 A 
ATOM     22  C   UNL     1       1.305   9.014  18.709  0.00  0.00    +0.000 A 
ATOM     23  F   UNL     1       0.393   9.979  18.532  0.00  0.00    +0.000 F 
ATOM     24  C   UNL     1       2.176   8.699  17.673  0.00  0.00    +0.000 A 
ATOM     25  C   UNL     1       3.115   7.682  17.854  0.00  0.00    +0.000 A 
ENDBRANCH  18  19
ENDBRANCH   6  18
TORSDOF 6
ENDMDL
MODEL 9
REMARK VINA RESULT:      -7.0      1.219      1.641
REMARK  Name = 
REMARK  7 active torsions:
REMARK  status: ('A' for Active; 'I' for Inactive)
REMARK    1  A    between atoms: C_1  and  C_2
REMARK    2  A    between atoms: C_5  and  C_6
REMARK    3  A    between atoms: N_7  and  O_8
REMARK    4  A    between atoms: N_9  and  C_10
REMARK    5  A    between atoms: C_10  and  C_11
REMARK    6  A    between atoms: C_14  and  O_15
REMARK    7  A    between atoms: O_15  and  C_16
REMARK                            x       y       z     vdW  Elec       q    Type
REMARK                         _______ _______ _______ _____ _____    ______ ____
ROOT
ATOM      1  C   UNL     1       7.651   7.454  17.759  0.00  0.00    +0.000 C 
ATOM      2  C   UNL     1       6.541   6.467  17.944  0.00  0.00    +0.000 A 
ATOM      3  C   UNL     1       6.748   5.244  18.555  0.00  0.00    +0.000 A 
ATOM      4  C   UNL     1       5.682   4.349  18.637  0.00  0.00    +0.000 A 
ATOM      5  C   UNL     1       4.410   4.697  18.155  0.00  0.00    +0.000 A 
ATOM      6  C   UNL     1       4.269   5.989  17.638  0.00  0.00    +0.000 A 
ATOM      7  N   UNL     1       5.330   6.839  17.489  0.00  0.00    +0.000 NA
ENDROOT
BRANCH   5   8
ATOM      8  C   UNL     1       3.325   3.637  18.155  0.00  0.00    +0.000 C 
ATOM      9  N   UNL     1       3.672   2.465  17.710  0.00  0.00    +0.000 NA
ATOM     10  N   UNL     1       2.087   4.010  18.675  0.00  0.00    +0.000 N 
ATOM     11  H   UNL     1       1.767   4.950  18.496  0.00  0.00    +0.000 HD
BRANCH   9  12
ATOM     12  O   UNL     1       2.627   1.538  17.708  0.00  0.00    +0.000 OA
ATOM     13  H   UNL     1       1.961   1.979  18.263  0.00  0.00    +0.000 HD
ENDBRANCH   9  12
BRANCH  10  14
ATOM     14  C   UNL     1       1.098   3.113  19.228  0.00  0.00    +0.000 C 
BRANCH  14  15
ATOM     15  C   UNL     1       1.331   2.760  20.674  0.00  0.00    +0.000 C 
ATOM     16  C   UNL     1       2.730   2.547  21.201  0.00  0.00    +0.000 C 
ATOM     17  C   UNL     1       1.889   3.672  21.743  0.00  0.00    +0.000 C 
ENDBRANCH  14  15
ENDBRANCH  10  14
ENDBRANCH   5   8
BRANCH   6  18
ATOM     18  O   UNL     1       3.021   6.500  17.297  0.00  0.00    +0.000 OA
BRANCH  18  19
ATOM     19  C   UNL     1       2.452   7.402  18.188  0.00  0.00    +0.000 A 
ATOM     20  C   UNL     1       2.397   7.049  19.538  0.00  0.00    +0.000 A 
ATOM     21  C   UNL     1       1.773   7.912  20.455  0.00  0.00    +0.000 A 
ATOM     22  C   UNL     1       1.219   9.105  20.014  0.00  0.00    +0.000 A 
ATOM     23  F   UNL     1       0.588   9.903  20.885  0.00  0.00    +0.000 F 
ATOM     24  C   UNL     1       1.309   9.486  18.681  0.00  0.00    +0.000 A 
ATOM     25  C   UNL     1       1.953   8.646  17.771  0.00  0.00    +0.000 A 
ENDBRANCH  18  19
ENDBRANCH   6  18
TORSDOF 6
ENDMDL
