MODEL 1
REMARK VINA RESULT:      -5.4      0.000      0.000
REMARK  Name = 
REMARK  10 active torsions:
REMARK  status: ('A' for Active; 'I' for Inactive)
REMARK    1  A    between atoms: C_2  and  O_3
REMARK    2  A    between atoms: C_2  and  C_4
REMARK    3  A    between atoms: C_4  and  C_5
REMARK    4  A    between atoms: C_5  and  C_6
REMARK    5  A    between atoms: C_6  and  C_7
REMARK    6  A    between atoms: C_7  and  C_8
REMARK    7  A    between atoms: C_8  and  C_9
REMARK    8  A    between atoms: C_9  and  C_10
REMARK    9  A    between atoms: C_10  and  C_11
REMARK   10  A    between atoms: C_11  and  O_13
REMARK                            x       y       z     vdW  Elec       q    Type
REMARK                         _______ _______ _______ _____ _____    ______ ____
ROOT
ATOM      1  C   UNL     1       3.478   3.526  17.790  0.00  0.00    +0.000 C 
ENDROOT
BRANCH   1   2
ATOM      2  C   UNL     1       3.862   4.993  17.603  0.00  0.00    +0.000 C 
BRANCH   2   3
ATOM      3  C   UNL     1       4.742   5.169  16.366  0.00  0.00    +0.000 C 
BRANCH   3   4
ATOM      4  C   UNL     1       5.912   4.181  16.361  0.00  0.00    +0.000 C 
BRANCH   4   6
ATOM      5  O   UNL     1       7.518   5.999  16.204  0.00  0.00    +0.000 OA
ATOM      6  C   UNL     1       7.231   4.881  16.599  0.00  0.00    +0.000 C 
BRANCH   6   7
ATOM      7  O   UNL     1       8.097   4.128  17.317  0.00  0.00    +0.000 OA
ATOM      8  H   UNL     1       7.729   3.786  18.154  0.00  0.00    +0.000 HD
ENDBRANCH   6   7
ENDBRANCH   4   6
ENDBRANCH   3   4
ENDBRANCH   2   3
ENDBRANCH   1   2
BRANCH   1   9
ATOM      9  C   UNL     1       1.962   3.341  17.825  0.00  0.00    +0.000 C 
BRANCH   9  10
ATOM     10  C   UNL     1       1.539   2.645  19.118  0.00  0.00    +0.000 C 
BRANCH  10  11
ATOM     11  C   UNL     1       0.977   3.624  20.147  0.00  0.00    +0.000 C 
BRANCH  11  12
ATOM     12  C   UNL     1       1.985   3.890  21.243  0.00  0.00    +0.000 C 
ATOM     13  O   UNL     1       2.281   3.111  22.134  0.00  0.00    +0.000 OA
BRANCH  12  14
ATOM     14  O   UNL     1       2.549   5.116  21.140  0.00  0.00    +0.000 OA
ATOM     15  H   UNL     1       3.465   5.156  21.469  0.00  0.00    +0.000 HD
ENDBRANCH  12  14
ENDBRANCH  11  12
ENDBRANCH  10  11
ENDBRANCH   9  10
ENDBRANCH   1   9
TORSDOF 10
ENDMDL
MODEL 2
REMARK VINA RESULT:      -5.3      2.908      3.414
REMARK  Name = 
REMARK  10 active torsions:
REMARK  status: ('A' for Active; 'I' for Inactive)
REMARK    1  A    between atoms: C_2  and  O_3
REMARK    2  A    between atoms: C_2  and  C_4
REMARK    3  A    between atoms: C_4  and  C_5
REMARK    4  A    between atoms: C_5  and  C_6
REMARK    5  A    between atoms: C_6  and  C_7
REMARK    6  A    between atoms: C_7  and  C_8
REMARK    7  A    between atoms: C_8  and  C_9
REMARK    8  A    between atoms: C_9  and  C_10
REMARK    9  A    between atoms: C_10  and  C_11
REMARK   10  A    between atoms: C_11  and  O_13
REMARK                            x       y       z     vdW  Elec       q    Type
REMARK                         _______ _______ _______ _____ _____    ______ ____
ROOT
ATOM      1  C   UNL     1       2.683   5.713  17.965  0.00  0.00    +0.000 C 
ENDROOT
BRANCH   1   2
ATOM      2  C   UNL     1       1.755   4.529  17.700  0.00  0.00    +0.000 C 
BRANCH   2   3
ATOM      3  C   UNL     1       2.528   3.361  17.089  0.00  0.00    +0.000 C 
BRANCH   3   4
ATOM      4  C   UNL     1       2.516   2.135  18.006  0.00  0.00    +0.000 C 
BRANCH   4   6
ATOM      5  O   UNL     1       4.477   2.807  19.276  0.00  0.00    +0.000 OA
ATOM      6  C   UNL     1       3.852   1.939  18.689  0.00  0.00    +0.000 C 
BRANCH   6   7
ATOM      7  O   UNL     1       4.306   0.669  18.585  0.00  0.00    +0.000 OA
ATOM      8  H   UNL     1       3.704   0.067  18.107  0.00  0.00    +0.000 HD
ENDBRANCH   6   7
ENDBRANCH   4   6
ENDBRANCH   3   4
ENDBRANCH   2   3
ENDBRANCH   1   2
BRANCH   1   9
ATOM      9  C   UNL     1       2.623   6.160  19.425  0.00  0.00    +0.000 C 
BRANCH   9  10
ATOM     10  C   UNL     1       1.658   5.277  20.214  0.00  0.00    +0.000 C 
BRANCH  10  11
ATOM     11  C   UNL     1       2.322   4.633  21.430  0.00  0.00    +0.000 C 
BRANCH  11  12
ATOM     12  C   UNL     1       1.918   3.182  21.559  0.00  0.00    +0.000 C 
ATOM     13  O   UNL     1       2.572   2.313  22.114  0.00  0.00    +0.000 OA
BRANCH  12  14
ATOM     14  O   UNL     1       0.721   2.925  20.983  0.00  0.00    +0.000 OA
ATOM     15  H   UNL     1       0.042   2.616  21.609  0.00  0.00    +0.000 HD
ENDBRANCH  12  14
ENDBRANCH  11  12
ENDBRANCH  10  11
ENDBRANCH   9  10
ENDBRANCH   1   9
TORSDOF 10
ENDMDL
MODEL 3
REMARK VINA RESULT:      -5.2      0.795      1.256
REMARK  Name = 
REMARK  10 active torsions:
REMARK  status: ('A' for Active; 'I' for Inactive)
REMARK    1  A    between atoms: C_2  and  O_3
REMARK    2  A    between atoms: C_2  and  C_4
REMARK    3  A    between atoms: C_4  and  C_5
REMARK    4  A    between atoms: C_5  and  C_6
REMARK    5  A    between atoms: C_6  and  C_7
REMARK    6  A    between atoms: C_7  and  C_8
REMARK    7  A    between atoms: C_8  and  C_9
REMARK    8  A    between atoms: C_9  and  C_10
REMARK    9  A    between atoms: C_10  and  C_11
REMARK   10  A    between atoms: C_11  and  O_13
REMARK                            x       y       z     vdW  Elec       q    Type
REMARK                         _______ _______ _______ _____ _____    ______ ____
ROOT
ATOM      1  C   UNL     1       3.978   2.899  18.361  0.00  0.00    +0.000 C 
ENDROOT
BRANCH   1   2
ATOM      2  C   UNL     1       3.567   3.972  17.353  0.00  0.00    +0.000 C 
BRANCH   2   3
ATOM      3  C   UNL     1       4.779   4.466  16.565  0.00  0.00    +0.000 C 
BRANCH   3   4
ATOM      4  C   UNL     1       5.947   4.823  17.489  0.00  0.00    +0.000 C 
BRANCH   4   6
ATOM      5  O   UNL     1       7.536   4.767  15.650  0.00  0.00    +0.000 OA
ATOM      6  C   UNL     1       7.281   4.561  16.825  0.00  0.00    +0.000 C 
BRANCH   6   7
ATOM      7  O   UNL     1       8.199   4.061  17.684  0.00  0.00    +0.000 OA
ATOM      8  H   UNL     1       8.142   4.427  18.587  0.00  0.00    +0.000 HD
ENDBRANCH   6   7
ENDBRANCH   4   6
ENDBRANCH   3   4
ENDBRANCH   2   3
ENDBRANCH   1   2
BRANCH   1   9
ATOM      9  C   UNL     1       2.771   2.116  18.874  0.00  0.00    +0.000 C 
BRANCH   9  10
ATOM     10  C   UNL     1       1.506   2.970  18.791  0.00  0.00    +0.000 C 
BRANCH  10  11
ATOM     11  C   UNL     1       0.853   3.173  20.157  0.00  0.00    +0.000 C 
BRANCH  11  12
ATOM     12  C   UNL     1       1.810   3.842  21.118  0.00  0.00    +0.000 C 
ATOM     13  O   UNL     1       2.295   4.952  20.973  0.00  0.00    +0.000 OA
BRANCH  12  14
ATOM     14  O   UNL     1       2.089   3.068  22.192  0.00  0.00    +0.000 OA
ATOM     15  H   UNL     1       2.718   2.348  22.006  0.00  0.00    +0.000 HD
ENDBRANCH  12  14
ENDBRANCH  11  12
ENDBRANCH  10  11
ENDBRANCH   9  10
ENDBRANCH   1   9
TORSDOF 10
ENDMDL
MODEL 4
REMARK VINA RESULT:      -5.1      0.871      6.225
REMARK  Name = 
REMARK  10 active torsions:
REMARK  status: ('A' for Active; 'I' for Inactive)
REMARK    1  A    between atoms: C_2  and  O_3
REMARK    2  A    between atoms: C_2  and  C_4
REMARK    3  A    between atoms: C_4  and  C_5
REMARK    4  A    between atoms: C_5  and  C_6
REMARK    5  A    between atoms: C_6  and  C_7
REMARK    6  A    between atoms: C_7  and  C_8
REMARK    7  A    between atoms: C_8  and  C_9
REMARK    8  A    between atoms: C_9  and  C_10
REMARK    9  A    between atoms: C_10  and  C_11
REMARK   10  A    between atoms: C_11  and  O_13
REMARK                            x       y       z     vdW  Elec       q    Type
REMARK                         _______ _______ _______ _____ _____    ______ ____
ROOT
ATOM      1  C   UNL     1       2.900   3.139  17.552  0.00  0.00    +0.000 C 
ENDROOT
BRANCH   1   2
ATOM      2  C   UNL     1       2.621   2.040  18.575  0.00  0.00    +0.000 C 
BRANCH   2   3
ATOM      3  C   UNL     1       1.285   2.282  19.277  0.00  0.00    +0.000 C 
BRANCH   3   4
ATOM      4  C   UNL     1       1.188   3.705  19.833  0.00  0.00    +0.000 C 
BRANCH   4   6
ATOM      5  O   UNL     1       2.008   2.953  21.994  0.00  0.00    +0.000 OA
ATOM      6  C   UNL     1       1.908   3.835  21.157  0.00  0.00    +0.000 C 
BRANCH   6   7
ATOM      7  O   UNL     1       2.449   5.062  21.335  0.00  0.00    +0.000 OA
ATOM      8  H   UNL     1       1.821   5.730  21.670  0.00  0.00    +0.000 HD
ENDBRANCH   6   7
ENDBRANCH   4   6
ENDBRANCH   3   4
ENDBRANCH   2   3
ENDBRANCH   1   2
BRANCH   1   9
ATOM      9  C   UNL     1       4.345   3.631  17.633  0.00  0.00    +0.000 C 
BRANCH   9  10
ATOM     10  C   UNL     1       4.787   4.211  16.290  0.00  0.00    +0.000 C 
BRANCH  10  11
ATOM     11  C   UNL     1       5.762   5.376  16.454  0.00  0.00    +0.000 C 
BRANCH  11  12
ATOM     12  C   UNL     1       7.127   5.017  15.912  0.00  0.00    +0.000 C 
ATOM     13  O   UNL     1       7.513   5.228  14.773  0.00  0.00    +0.000 OA
BRANCH  12  14
ATOM     14  O   UNL     1       7.911   4.419  16.839  0.00  0.00    +0.000 OA
ATOM     15  H   UNL     1       7.693   3.482  16.994  0.00  0.00    +0.000 HD
ENDBRANCH  12  14
ENDBRANCH  11  12
ENDBRANCH  10  11
ENDBRANCH   9  10
ENDBRANCH   1   9
TORSDOF 10
ENDMDL
MODEL 5
REMARK VINA RESULT:      -5.1      1.148      1.346
REMARK  Name = 
REMARK  10 active torsions:
REMARK  status: ('A' for Active; 'I' for Inactive)
REMARK    1  A    between atoms: C_2  and  O_3
REMARK    2  A    between atoms: C_2  and  C_4
REMARK    3  A    between atoms: C_4  and  C_5
REMARK    4  A    between atoms: C_5  and  C_6
REMARK    5  A    between atoms: C_6  and  C_7
REMARK    6  A    between atoms: C_7  and  C_8
REMARK    7  A    between atoms: C_8  and  C_9
REMARK    8  A    between atoms: C_9  and  C_10
REMARK    9  A    between atoms: C_10  and  C_11
REMARK   10  A    between atoms: C_11  and  O_13
REMARK                            x       y       z     vdW  Elec       q    Type
REMARK                         _______ _______ _______ _____ _____    ______ ____
ROOT
ATOM      1  C   UNL     1       3.792   4.036  17.378  0.00  0.00    +0.000 C 
ENDROOT
BRANCH   1   2
ATOM      2  C   UNL     1       4.763   3.952  18.554  0.00  0.00    +0.000 C 
BRANCH   2   3
ATOM      3  C   UNL     1       5.277   5.340  18.932  0.00  0.00    +0.000 C 
BRANCH   3   4
ATOM      4  C   UNL     1       6.800   5.357  19.083  0.00  0.00    +0.000 C 
BRANCH   4   6
ATOM      5  O   UNL     1       7.426   5.952  16.811  0.00  0.00    +0.000 OA
ATOM      6  C   UNL     1       7.493   5.177  17.750  0.00  0.00    +0.000 C 
BRANCH   6   7
ATOM      7  O   UNL     1       8.220   4.037  17.693  0.00  0.00    +0.000 OA
ATOM      8  H   UNL     1       9.126   4.123  18.047  0.00  0.00    +0.000 HD
ENDBRANCH   6   7
ENDBRANCH   4   6
ENDBRANCH   3   4
ENDBRANCH   2   3
ENDBRANCH   1   2
BRANCH   1   9
ATOM      9  C   UNL     1       2.522   3.225  17.636  0.00  0.00    +0.000 C 
BRANCH   9  10
ATOM     10  C   UNL     1       2.512   2.691  19.067  0.00  0.00    +0.000 C 
BRANCH  10  11
ATOM     11  C   UNL     1       1.445   3.363  19.929  0.00  0.00    +0.000 C 
BRANCH  11  12
ATOM     12  C   UNL     1       2.037   3.857  21.231  0.00  0.00    +0.000 C 
ATOM     13  O   UNL     1       2.153   3.194  22.250  0.00  0.00    +0.000 OA
BRANCH  12  14
ATOM     14  O   UNL     1       2.442   5.146  21.159  0.00  0.00    +0.000 OA
ATOM     15  H   UNL     1       2.643   5.543  22.026  0.00  0.00    +0.000 HD
ENDBRANCH  12  14
ENDBRANCH  11  12
ENDBRANCH  10  11
ENDBRANCH   9  10
ENDBRANCH   1   9
TORSDOF 10
ENDMDL
MODEL 6
REMARK VINA RESULT:      -5.1      2.127      2.695
REMARK  Name = 
REMARK  10 active torsions:
REMARK  status: ('A' for Active; 'I' for Inactive)
REMARK    1  A    between atoms: C_2  and  O_3
REMARK    2  A    between atoms: C_2  and  C_4
REMARK    3  A    between atoms: C_4  and  C_5
REMARK    4  A    between atoms: C_5  and  C_6
REMARK    5  A    between atoms: C_6  and  C_7
REMARK    6  A    between atoms: C_7  and  C_8
REMARK    7  A    between atoms: C_8  and  C_9
REMARK    8  A    between atoms: C_9  and  C_10
REMARK    9  A    between atoms: C_10  and  C_11
REMARK   10  A    between atoms: C_11  and  O_13
REMARK                            x       y       z     vdW  Elec       q    Type
REMARK                         _______ _______ _______ _____ _____    ______ ____
ROOT
ATOM      1  C   UNL     1       3.631   5.554  18.434  0.00  0.00    +0.000 C 
ENDROOT
BRANCH   1   2
ATOM      2  C   UNL     1       3.801   6.791  17.552  0.00  0.00    +0.000 C 
BRANCH   2   3
ATOM      3  C   UNL     1       4.933   6.587  16.547  0.00  0.00    +0.000 C 
BRANCH   3   4
ATOM      4  C   UNL     1       5.612   5.227  16.728  0.00  0.00    +0.000 C 
BRANCH   4   6
ATOM      5  O   UNL     1       7.902   4.411  16.731  0.00  0.00    +0.000 OA
ATOM      6  C   UNL     1       7.118   5.342  16.646  0.00  0.00    +0.000 C 
BRANCH   6   7
ATOM      7  O   UNL     1       7.532   6.617  16.465  0.00  0.00    +0.000 OA
ATOM      8  H   UNL     1       7.271   7.003  15.607  0.00  0.00    +0.000 HD
ENDBRANCH   6   7
ENDBRANCH   4   6
ENDBRANCH   3   4
ENDBRANCH   2   3
ENDBRANCH   1   2
BRANCH   1   9
ATOM      9  C   UNL     1       2.160   5.278  18.741  0.00  0.00    +0.000 C 
BRANCH   9  10
ATOM     10  C   UNL     1       1.583   4.282  17.735  0.00  0.00    +0.000 C 
BRANCH  10  11
ATOM     11  C   UNL     1       2.627   3.279  17.248  0.00  0.00    +0.000 C 
BRANCH  11  12
ATOM     12  C   UNL     1       2.614   2.031  18.101  0.00  0.00    +0.000 C 
ATOM     13  O   UNL     1       3.594   1.366  18.395  0.00  0.00    +0.000 OA
BRANCH  12  14
ATOM     14  O   UNL     1       1.370   1.708  18.527  0.00  0.00    +0.000 OA
ATOM     15  H   UNL     1       0.705   1.688  17.816  0.00  0.00    +0.000 HD
ENDBRANCH  12  14
ENDBRANCH  11  12
ENDBRANCH  10  11
ENDBRANCH   9  10
ENDBRANCH   1   9
TORSDOF 10
ENDMDL
MODEL 7
REMARK VINA RESULT:      -5.1      1.049      6.138
REMARK  Name = 
REMARK  10 active torsions:
REMARK  status: ('A' for Active; 'I' for Inactive)
REMARK    1  A    between atoms: C_2  and  O_3
REMARK    2  A    between atoms: C_2  and  C_4
REMARK    3  A    between atoms: C_4  and  C_5
REMARK    4  A    between atoms: C_5  and  C_6
REMARK    5  A    between atoms: C_6  and  C_7
REMARK    6  A    between atoms: C_7  and  C_8
REMARK    7  A    between atoms: C_8  and  C_9
REMARK    8  A    between atoms: C_9  and  C_10
REMARK    9  A    between atoms: C_10  and  C_11
REMARK   10  A    between atoms: C_11  and  O_13
REMARK                            x       y       z     vdW  Elec       q    Type
REMARK                         _______ _______ _______ _____ _____    ______ ____
ROOT
ATOM      1  C   UNL     1       3.448   4.583  17.701  0.00  0.00    +0.000 C 
ENDROOT
BRANCH   1   2
ATOM      2  C   UNL     1       2.073   3.926  17.815  0.00  0.00    +0.000 C 
BRANCH   2   3
ATOM      3  C   UNL     1       1.443   4.221  19.175  0.00  0.00    +0.000 C 
BRANCH   3   4
ATOM      4  C   UNL     1       1.033   2.936  19.898  0.00  0.00    +0.000 C 
BRANCH   4   6
ATOM      5  O   UNL     1       1.456   2.485  22.249  0.00  0.00    +0.000 OA
ATOM      6  C   UNL     1       1.883   2.693  21.125  0.00  0.00    +0.000 C 
BRANCH   6   7
ATOM      7  O   UNL     1       3.208   2.728  20.854  0.00  0.00    +0.000 OA
ATOM      8  H   UNL     1       3.499   2.066  20.198  0.00  0.00    +0.000 HD
ENDBRANCH   6   7
ENDBRANCH   4   6
ENDBRANCH   3   4
ENDBRANCH   2   3
ENDBRANCH   1   2
BRANCH   1   9
ATOM      9  C   UNL     1       4.413   3.732  16.876  0.00  0.00    +0.000 C 
BRANCH   9  10
ATOM     10  C   UNL     1       4.985   4.547  15.717  0.00  0.00    +0.000 C 
BRANCH  10  11
ATOM     11  C   UNL     1       6.427   4.161  15.393  0.00  0.00    +0.000 C 
BRANCH  11  12
ATOM     12  C   UNL     1       7.389   4.809  16.364  0.00  0.00    +0.000 C 
ATOM     13  O   UNL     1       8.057   4.217  17.197  0.00  0.00    +0.000 OA
BRANCH  12  14
ATOM     14  O   UNL     1       7.444   6.153  16.218  0.00  0.00    +0.000 OA
ATOM     15  H   UNL     1       7.756   6.622  17.013  0.00  0.00    +0.000 HD
ENDBRANCH  12  14
ENDBRANCH  11  12
ENDBRANCH  10  11
ENDBRANCH   9  10
ENDBRANCH   1   9
TORSDOF 10
ENDMDL
MODEL 8
REMARK VINA RESULT:      -5.1      1.189      5.951
REMARK  Name = 
REMARK  10 active torsions:
REMARK  status: ('A' for Active; 'I' for Inactive)
REMARK    1  A    between atoms: C_2  and  O_3
REMARK    2  A    between atoms: C_2  and  C_4
REMARK    3  A    between atoms: C_4  and  C_5
REMARK    4  A    between atoms: C_5  and  C_6
REMARK    5  A    between atoms: C_6  and  C_7
REMARK    6  A    between atoms: C_7  and  C_8
REMARK    7  A    between atoms: C_8  and  C_9
REMARK    8  A    between atoms: C_9  and  C_10
REMARK    9  A    between atoms: C_10  and  C_11
REMARK   10  A    between atoms: C_11  and  O_13
REMARK                            x       y       z     vdW  Elec       q    Type
REMARK                         _______ _______ _______ _____ _____    ______ ____
ROOT
ATOM      1  C   UNL     1       2.848   5.466  18.636  0.00  0.00    +0.000 C 
ENDROOT
BRANCH   1   2
ATOM      2  C   UNL     1       2.166   4.413  17.764  0.00  0.00    +0.000 C 
BRANCH   2   3
ATOM      3  C   UNL     1       1.561   3.306  18.627  0.00  0.00    +0.000 C 
BRANCH   3   4
ATOM      4  C   UNL     1       2.579   2.745  19.622  0.00  0.00    +0.000 C 
BRANCH   4   6
ATOM      5  O   UNL     1       2.679   2.516  22.040  0.00  0.00    +0.000 OA
ATOM      6  C   UNL     1       2.026   2.719  21.029  0.00  0.00    +0.000 C 
BRANCH   6   7
ATOM      7  O   UNL     1       0.694   2.951  21.068  0.00  0.00    +0.000 OA
ATOM      8  H   UNL     1       0.344   3.400  20.275  0.00  0.00    +0.000 HD
ENDBRANCH   6   7
ENDBRANCH   4   6
ENDBRANCH   3   4
ENDBRANCH   2   3
ENDBRANCH   1   2
BRANCH   1   9
ATOM      9  C   UNL     1       4.304   5.683  18.223  0.00  0.00    +0.000 C 
BRANCH   9  10
ATOM     10  C   UNL     1       4.514   5.260  16.769  0.00  0.00    +0.000 C 
BRANCH  10  11
ATOM     11  C   UNL     1       5.649   4.249  16.618  0.00  0.00    +0.000 C 
BRANCH  11  12
ATOM     12  C   UNL     1       6.990   4.904  16.862  0.00  0.00    +0.000 C 
ATOM     13  O   UNL     1       7.452   5.829  16.214  0.00  0.00    +0.000 OA
BRANCH  12  14
ATOM     14  O   UNL     1       7.653   4.352  17.904  0.00  0.00    +0.000 OA
ATOM     15  H   UNL     1       8.562   4.686  18.013  0.00  0.00    +0.000 HD
ENDBRANCH  12  14
ENDBRANCH  11  12
ENDBRANCH  10  11
ENDBRANCH   9  10
ENDBRANCH   1   9
TORSDOF 10
ENDMDL
MODEL 9
REMARK VINA RESULT:      -5.1      1.255      6.458
REMARK  Name = 
REMARK  10 active torsions:
REMARK  status: ('A' for Active; 'I' for Inactive)
REMARK    1  A    between atoms: C_2  and  O_3
REMARK    2  A    between atoms: C_2  and  C_4
REMARK    3  A    between atoms: C_4  and  C_5
REMARK    4  A    between atoms: C_5  and  C_6
REMARK    5  A    between atoms: C_6  and  C_7
REMARK    6  A    between atoms: C_7  and  C_8
REMARK    7  A    between atoms: C_8  and  C_9
REMARK    8  A    between atoms: C_9  and  C_10
REMARK    9  A    between atoms: C_10  and  C_11
REMARK   10  A    between atoms: C_11  and  O_13
REMARK                            x       y       z     vdW  Elec       q    Type
REMARK                         _______ _______ _______ _____ _____    ______ ____
ROOT
ATOM      1  C   UNL     1       3.235   4.825  18.008  0.00  0.00    +0.000 C 
ENDROOT
BRANCH   1   2
ATOM      2  C   UNL     1       2.247   3.858  17.358  0.00  0.00    +0.000 C 
BRANCH   2   3
ATOM      3  C   UNL     1       2.197   2.538  18.127  0.00  0.00    +0.000 C 
BRANCH   3   4
ATOM      4  C   UNL     1       0.901   2.401  18.929  0.00  0.00    +0.000 C 
BRANCH   4   6
ATOM      5  O   UNL     1       1.592   2.349  21.260  0.00  0.00    +0.000 OA
ATOM      6  C   UNL     1       1.057   2.938  20.335  0.00  0.00    +0.000 C 
BRANCH   6   7
ATOM      7  O   UNL     1       0.531   4.176  20.478  0.00  0.00    +0.000 OA
ATOM      8  H   UNL     1       1.194   4.892  20.499  0.00  0.00    +0.000 HD
ENDBRANCH   6   7
ENDBRANCH   4   6
ENDBRANCH   3   4
ENDBRANCH   2   3
ENDBRANCH   1   2
BRANCH   1   9
ATOM      9  C   UNL     1       4.321   5.265  17.027  0.00  0.00    +0.000 C 
BRANCH   9  10
ATOM     10  C   UNL     1       5.156   4.065  16.582  0.00  0.00    +0.000 C 
BRANCH  10  11
ATOM     11  C   UNL     1       5.726   4.245  15.176  0.00  0.00    +0.000 C 
BRANCH  11  12
ATOM     12  C   UNL     1       7.136   4.789  15.232  0.00  0.00    +0.000 C 
ATOM     13  O   UNL     1       7.670   5.457  14.361  0.00  0.00    +0.000 OA
BRANCH  12  14
ATOM     14  O   UNL     1       7.773   4.458  16.379  0.00  0.00    +0.000 OA
ATOM     15  H   UNL     1       7.739   5.152  17.062  0.00  0.00    +0.000 HD
ENDBRANCH  12  14
ENDBRANCH  11  12
ENDBRANCH  10  11
ENDBRANCH   9  10
ENDBRANCH   1   9
TORSDOF 10
ENDMDL
