MODEL 1
REMARK VINA RESULT:      -9.0      0.000      0.000
REMARK  Name = 
REMARK  6 active torsions:
REMARK  status: ('A' for Active; 'I' for Inactive)
REMARK    1  A    between atoms: C_1  and  C_2
REMARK    2  A    between atoms: C_2  and  N_3
REMARK    3  A    between atoms: C_8  and  C_9
REMARK    4  A    between atoms: C_16  and  C_17
REMARK    5  A    between atoms: C_18  and  C_19
REMARK    6  A    between atoms: N_22  and  C_23
REMARK                            x       y       z     vdW  Elec       q    Type
REMARK                         _______ _______ _______ _____ _____    ______ ____
ROOT
ATOM      1  C   UNL     1       1.995   6.464  20.304  0.00  0.00    +0.000 A 
ATOM      2  C   UNL     1       1.374   5.345  20.720  0.00  0.00    +0.000 A 
ATOM      3  C   UNL     1       1.992   4.024  20.425  0.00  0.00    +0.000 A 
ATOM      4  O   UNL     1       1.477   2.958  20.736  0.00  0.00    +0.000 OA
ATOM      5  N   UNL     1       3.225   4.098  19.752  0.00  0.00    +0.000 N 
ATOM      6  N   UNL     1       3.939   3.004  19.371  0.00  0.00    +0.000 NA
ATOM      7  C   UNL     1       5.019   3.524  18.780  0.00  0.00    +0.000 A 
ATOM      8  C   UNL     1       5.027   4.938  18.766  0.00  0.00    +0.000 A 
ATOM      9  C   UNL     1       3.841   5.279  19.371  0.00  0.00    +0.000 A 
ATOM     10  N   UNL     1       3.187   6.440  19.614  0.00  0.00    +0.000 N 
ATOM     11  H   UNL     1       3.527   7.332  19.262  0.00  0.00    +0.000 HD
ENDROOT
BRANCH   1  17
ATOM     12  N   UNL     1      -0.118  11.452  21.657  0.00  0.00    +0.000 N 
ATOM     13  N   UNL     1      -0.587  11.267  22.908  0.00  0.00    +0.000 NA
ATOM     14  C   UNL     1      -0.318   9.984  23.159  0.00  0.00    +0.000 A 
ATOM     15  C   UNL     1       0.320   9.339  22.076  0.00  0.00    +0.000 A 
ATOM     16  C   UNL     1       0.824   8.050  21.823  0.00  0.00    +0.000 A 
ATOM     17  C   UNL     1       1.412   7.784  20.575  0.00  0.00    +0.000 A 
ATOM     18  C   UNL     1       1.484   8.782  19.598  0.00  0.00    +0.000 A 
ATOM     19  C   UNL     1       0.988  10.068  19.837  0.00  0.00    +0.000 A 
ATOM     20  C   UNL     1       0.421  10.319  21.092  0.00  0.00    +0.000 A 
BRANCH  12  22
ATOM     21  C   UNL     1      -1.346  12.970  20.146  0.00  0.00    +0.000 C 
ATOM     22  C   UNL     1      -0.161  12.780  21.074  0.00  0.00    +0.000 C 
ENDBRANCH  12  22
ENDBRANCH   1  17
BRANCH   8  23
ATOM     23  C   UNL     1       6.058   5.860  18.212  0.00  0.00    +0.000 A 
ATOM     24  C   UNL     1       7.321   6.142  18.717  0.00  0.00    +0.000 A 
ATOM     25  C   UNL     1       8.069   5.575  19.867  0.00  0.00    +0.000 C 
ATOM     26  C   UNL     1       7.847   7.099  17.817  0.00  0.00    +0.000 A 
ATOM     27  N   UNL     1       7.019   7.379  16.815  0.00  0.00    +0.000 NA
ATOM     28  N   UNL     1       5.950   6.598  17.054  0.00  0.00    +0.000 N 
ATOM     29  C   UNL     1       4.804   6.726  16.183  0.00  0.00    +0.000 C 
ENDBRANCH   8  23
TORSDOF 3
ENDMDL
MODEL 2
REMARK VINA RESULT:      -8.9      1.538      2.172
REMARK  Name = 
REMARK  6 active torsions:
REMARK  status: ('A' for Active; 'I' for Inactive)
REMARK    1  A    between atoms: C_1  and  C_2
REMARK    2  A    between atoms: C_2  and  N_3
REMARK    3  A    between atoms: C_8  and  C_9
REMARK    4  A    between atoms: C_16  and  C_17
REMARK    5  A    between atoms: C_18  and  C_19
REMARK    6  A    between atoms: N_22  and  C_23
REMARK                            x       y       z     vdW  Elec       q    Type
REMARK                         _______ _______ _______ _____ _____    ______ ____
ROOT
ATOM      1  C   UNL     1       2.208   6.385  19.920  0.00  0.00    +0.000 A 
ATOM      2  C   UNL     1       1.571   5.571  20.782  0.00  0.00    +0.000 A 
ATOM      3  C   UNL     1       2.044   4.168  20.935  0.00  0.00    +0.000 A 
ATOM      4  O   UNL     1       1.501   3.354  21.669  0.00  0.00    +0.000 OA
ATOM      5  N   UNL     1       3.174   3.850  20.160  0.00  0.00    +0.000 N 
ATOM      6  N   UNL     1       3.747   2.616  20.140  0.00  0.00    +0.000 NA
ATOM      7  C   UNL     1       4.770   2.757  19.292  0.00  0.00    +0.000 A 
ATOM      8  C   UNL     1       4.879   4.061  18.756  0.00  0.00    +0.000 A 
ATOM      9  C   UNL     1       3.817   4.735  19.309  0.00  0.00    +0.000 A 
ATOM     10  N   UNL     1       3.289   5.975  19.171  0.00  0.00    +0.000 N 
ATOM     11  H   UNL     1       3.641   6.634  18.481  0.00  0.00    +0.000 HD
ENDROOT
BRANCH   1  17
ATOM     12  N   UNL     1       0.628  11.728  19.560  0.00  0.00    +0.000 N 
ATOM     13  N   UNL     1       0.144  11.998  20.790  0.00  0.00    +0.000 NA
ATOM     14  C   UNL     1       0.279  10.841  21.442  0.00  0.00    +0.000 A 
ATOM     15  C   UNL     1       0.844   9.825  20.639  0.00  0.00    +0.000 A 
ATOM     16  C   UNL     1       1.211   8.479  20.823  0.00  0.00    +0.000 A 
ATOM     17  C   UNL     1       1.767   7.774  19.742  0.00  0.00    +0.000 A 
ATOM     18  C   UNL     1       1.941   8.398  18.502  0.00  0.00    +0.000 A 
ATOM     19  C   UNL     1       1.582   9.736  18.306  0.00  0.00    +0.000 A 
ATOM     20  C   UNL     1       1.046  10.427  19.400  0.00  0.00    +0.000 A 
BRANCH  12  22
ATOM     21  C   UNL     1       2.124  13.376  18.492  0.00  0.00    +0.000 C 
ATOM     22  C   UNL     1       0.724  12.799  18.586  0.00  0.00    +0.000 C 
ENDBRANCH  12  22
ENDBRANCH   1  17
BRANCH   8  23
ATOM     23  C   UNL     1       5.888   4.595  17.799  0.00  0.00    +0.000 A 
ATOM     24  C   UNL     1       5.899   4.496  16.413  0.00  0.00    +0.000 A 
ATOM     25  C   UNL     1       4.907   3.936  15.461  0.00  0.00    +0.000 C 
ATOM     26  C   UNL     1       7.095   5.147  16.028  0.00  0.00    +0.000 A 
ATOM     27  N   UNL     1       7.769   5.646  17.061  0.00  0.00    +0.000 NA
ATOM     28  N   UNL     1       7.010   5.327  18.125  0.00  0.00    +0.000 N 
ATOM     29  C   UNL     1       7.510   5.651  19.441  0.00  0.00    +0.000 C 
ENDBRANCH   8  23
TORSDOF 3
ENDMDL
MODEL 3
REMARK VINA RESULT:      -8.7      0.766      1.517
REMARK  Name = 
REMARK  6 active torsions:
REMARK  status: ('A' for Active; 'I' for Inactive)
REMARK    1  A    between atoms: C_1  and  C_2
REMARK    2  A    between atoms: C_2  and  N_3
REMARK    3  A    between atoms: C_8  and  C_9
REMARK    4  A    between atoms: C_16  and  C_17
REMARK    5  A    between atoms: C_18  and  C_19
REMARK    6  A    between atoms: N_22  and  C_23
REMARK                            x       y       z     vdW  Elec       q    Type
REMARK                         _______ _______ _______ _____ _____    ______ ____
ROOT
ATOM      1  C   UNL     1       2.019   6.729  20.330  0.00  0.00    +0.000 A 
ATOM      2  C   UNL     1       1.347   5.657  20.788  0.00  0.00    +0.000 A 
ATOM      3  C   UNL     1       1.894   4.298  20.531  0.00  0.00    +0.000 A 
ATOM      4  O   UNL     1       1.329   3.270  20.881  0.00  0.00    +0.000 OA
ATOM      5  N   UNL     1       3.122   4.287  19.845  0.00  0.00    +0.000 N 
ATOM      6  N   UNL     1       3.775   3.147  19.493  0.00  0.00    +0.000 NA
ATOM      7  C   UNL     1       4.874   3.591  18.876  0.00  0.00    +0.000 A 
ATOM      8  C   UNL     1       4.954   5.001  18.816  0.00  0.00    +0.000 A 
ATOM      9  C   UNL     1       3.793   5.422  19.421  0.00  0.00    +0.000 A 
ATOM     10  N   UNL     1       3.201   6.623  19.631  0.00  0.00    +0.000 N 
ATOM     11  H   UNL     1       3.583   7.484  19.248  0.00  0.00    +0.000 HD
ENDROOT
BRANCH   1  17
ATOM     12  N   UNL     1      -0.086  11.867  20.918  0.00  0.00    +0.000 N 
ATOM     13  N   UNL     1      -0.055  12.367  19.666  0.00  0.00    +0.000 NA
ATOM     14  C   UNL     1       0.481  11.378  18.946  0.00  0.00    +0.000 A 
ATOM     15  C   UNL     1       0.798  10.245  19.728  0.00  0.00    +0.000 A 
ATOM     16  C   UNL     1       1.340   8.969  19.484  0.00  0.00    +0.000 A 
ATOM     17  C   UNL     1       1.508   8.085  20.563  0.00  0.00    +0.000 A 
ATOM     18  C   UNL     1       1.152   8.474  21.859  0.00  0.00    +0.000 A 
ATOM     19  C   UNL     1       0.612   9.739  22.116  0.00  0.00    +0.000 A 
ATOM     20  C   UNL     1       0.436  10.599  21.024  0.00  0.00    +0.000 A 
BRANCH  12  22
ATOM     21  C   UNL     1      -2.144  12.258  22.223  0.00  0.00    +0.000 C 
ATOM     22  C   UNL     1      -0.699  12.648  21.977  0.00  0.00    +0.000 C 
ENDBRANCH  12  22
ENDBRANCH   1  17
BRANCH   8  23
ATOM     23  C   UNL     1       6.024   5.851  18.224  0.00  0.00    +0.000 A 
ATOM     24  C   UNL     1       7.301   6.096  18.715  0.00  0.00    +0.000 A 
ATOM     25  C   UNL     1       8.025   5.542  19.886  0.00  0.00    +0.000 C 
ATOM     26  C   UNL     1       7.868   6.990  17.776  0.00  0.00    +0.000 A 
ATOM     27  N   UNL     1       7.050   7.266  16.764  0.00  0.00    +0.000 NA
ATOM     28  N   UNL     1       5.947   6.546  17.036  0.00  0.00    +0.000 N 
ATOM     29  C   UNL     1       4.805   6.690  16.163  0.00  0.00    +0.000 C 
ENDBRANCH   8  23
TORSDOF 3
ENDMDL
MODEL 4
REMARK VINA RESULT:      -8.7      1.169      1.252
REMARK  Name = 
REMARK  6 active torsions:
REMARK  status: ('A' for Active; 'I' for Inactive)
REMARK    1  A    between atoms: C_1  and  C_2
REMARK    2  A    between atoms: C_2  and  N_3
REMARK    3  A    between atoms: C_8  and  C_9
REMARK    4  A    between atoms: C_16  and  C_17
REMARK    5  A    between atoms: C_18  and  C_19
REMARK    6  A    between atoms: N_22  and  C_23
REMARK                            x       y       z     vdW  Elec       q    Type
REMARK                         _______ _______ _______ _____ _____    ______ ____
ROOT
ATOM      1  C   UNL     1       2.154   6.414  20.022  0.00  0.00    +0.000 A 
ATOM      2  C   UNL     1       1.513   5.514  20.790  0.00  0.00    +0.000 A 
ATOM      3  C   UNL     1       2.020   4.116  20.843  0.00  0.00    +0.000 A 
ATOM      4  O   UNL     1       1.477   3.229  21.487  0.00  0.00    +0.000 OA
ATOM      5  N   UNL     1       3.184   3.893  20.084  0.00  0.00    +0.000 N 
ATOM      6  N   UNL     1       3.792   2.681  19.982  0.00  0.00    +0.000 NA
ATOM      7  C   UNL     1       4.838   2.919  19.185  0.00  0.00    +0.000 A 
ATOM      8  C   UNL     1       4.927   4.265  18.762  0.00  0.00    +0.000 A 
ATOM      9  C   UNL     1       3.828   4.862  19.333  0.00  0.00    +0.000 A 
ATOM     10  N   UNL     1       3.269   6.096  19.279  0.00  0.00    +0.000 N 
ATOM     11  H   UNL     1       3.625   6.820  18.659  0.00  0.00    +0.000 HD
ENDROOT
BRANCH   1  17
ATOM     12  N   UNL     1       0.444  11.729  20.048  0.00  0.00    +0.000 N 
ATOM     13  N   UNL     1      -0.052  11.895  21.292  0.00  0.00    +0.000 NA
ATOM     14  C   UNL     1       0.108  10.696  21.857  0.00  0.00    +0.000 A 
ATOM     15  C   UNL     1       0.702   9.757  20.985  0.00  0.00    +0.000 A 
ATOM     16  C   UNL     1       1.101   8.410  21.071  0.00  0.00    +0.000 A 
ATOM     17  C   UNL     1       1.679   7.801  19.944  0.00  0.00    +0.000 A 
ATOM     18  C   UNL     1       1.843   8.519  18.755  0.00  0.00    +0.000 A 
ATOM     19  C   UNL     1       1.451   9.858  18.656  0.00  0.00    +0.000 A 
ATOM     20  C   UNL     1       0.894  10.454  19.795  0.00  0.00    +0.000 A 
BRANCH  12  22
ATOM     21  C   UNL     1      -0.681  12.963  18.230  0.00  0.00    +0.000 C 
ATOM     22  C   UNL     1       0.517  12.871  19.157  0.00  0.00    +0.000 C 
ENDBRANCH  12  22
ENDBRANCH   1  17
BRANCH   8  23
ATOM     23  C   UNL     1       5.951   4.903  17.889  0.00  0.00    +0.000 A 
ATOM     24  C   UNL     1       7.094   5.596  18.265  0.00  0.00    +0.000 A 
ATOM     25  C   UNL     1       7.701   5.838  19.599  0.00  0.00    +0.000 C 
ATOM     26  C   UNL     1       7.672   6.005  17.040  0.00  0.00    +0.000 A 
ATOM     27  N   UNL     1       6.986   5.588  15.979  0.00  0.00    +0.000 NA
ATOM     28  N   UNL     1       5.961   4.897  16.510  0.00  0.00    +0.000 N 
ATOM     29  C   UNL     1       4.955   4.373  15.615  0.00  0.00    +0.000 C 
ENDBRANCH   8  23
TORSDOF 3
ENDMDL
MODEL 5
REMARK VINA RESULT:      -8.6      0.634      1.520
REMARK  Name = 
REMARK  6 active torsions:
REMARK  status: ('A' for Active; 'I' for Inactive)
REMARK    1  A    between atoms: C_1  and  C_2
REMARK    2  A    between atoms: C_2  and  N_3
REMARK    3  A    between atoms: C_8  and  C_9
REMARK    4  A    between atoms: C_16  and  C_17
REMARK    5  A    between atoms: C_18  and  C_19
REMARK    6  A    between atoms: N_22  and  C_23
REMARK                            x       y       z     vdW  Elec       q    Type
REMARK                         _______ _______ _______ _____ _____    ______ ____
ROOT
ATOM      1  C   UNL     1       1.965   6.440  20.350  0.00  0.00    +0.000 A 
ATOM      2  C   UNL     1       1.334   5.327  20.766  0.00  0.00    +0.000 A 
ATOM      3  C   UNL     1       1.945   4.000  20.481  0.00  0.00    +0.000 A 
ATOM      4  O   UNL     1       1.421   2.939  20.792  0.00  0.00    +0.000 OA
ATOM      5  N   UNL     1       3.184   4.064  19.817  0.00  0.00    +0.000 N 
ATOM      6  N   UNL     1       3.894   2.964  19.446  0.00  0.00    +0.000 NA
ATOM      7  C   UNL     1       4.982   3.474  18.862  0.00  0.00    +0.000 A 
ATOM      8  C   UNL     1       4.999   4.888  18.842  0.00  0.00    +0.000 A 
ATOM      9  C   UNL     1       3.811   5.239  19.437  0.00  0.00    +0.000 A 
ATOM     10  N   UNL     1       3.162   6.406  19.670  0.00  0.00    +0.000 N 
ATOM     11  H   UNL     1       3.511   7.294  19.317  0.00  0.00    +0.000 HD
ENDROOT
BRANCH   1  17
ATOM     12  N   UNL     1      -0.125  11.448  21.667  0.00  0.00    +0.000 N 
ATOM     13  N   UNL     1      -0.604  11.271  22.916  0.00  0.00    +0.000 NA
ATOM     14  C   UNL     1      -0.344   9.988  23.174  0.00  0.00    +0.000 A 
ATOM     15  C   UNL     1       0.297   9.334  22.098  0.00  0.00    +0.000 A 
ATOM     16  C   UNL     1       0.794   8.040  21.855  0.00  0.00    +0.000 A 
ATOM     17  C   UNL     1       1.389   7.765  20.612  0.00  0.00    +0.000 A 
ATOM     18  C   UNL     1       1.474   8.758  19.631  0.00  0.00    +0.000 A 
ATOM     19  C   UNL     1       0.984  10.049  19.860  0.00  0.00    +0.000 A 
ATOM     20  C   UNL     1       0.411  10.309  21.111  0.00  0.00    +0.000 A 
BRANCH  12  22
ATOM     21  C   UNL     1      -1.350  12.976  20.164  0.00  0.00    +0.000 C 
ATOM     22  C   UNL     1      -0.155  12.773  21.077  0.00  0.00    +0.000 C 
ENDBRANCH  12  22
ENDBRANCH   1  17
BRANCH   8  23
ATOM     23  C   UNL     1       6.040   5.801  18.293  0.00  0.00    +0.000 A 
ATOM     24  C   UNL     1       5.990   6.570  17.138  0.00  0.00    +0.000 A 
ATOM     25  C   UNL     1       4.897   6.803  16.160  0.00  0.00    +0.000 C 
ATOM     26  C   UNL     1       7.252   7.209  17.090  0.00  0.00    +0.000 A 
ATOM     27  N   UNL     1       8.025   6.907  18.130  0.00  0.00    +0.000 NA
ATOM     28  N   UNL     1       7.265   6.074  18.865  0.00  0.00    +0.000 N 
ATOM     29  C   UNL     1       7.850   5.478  20.043  0.00  0.00    +0.000 C 
ENDBRANCH   8  23
TORSDOF 3
ENDMDL
MODEL 6
REMARK VINA RESULT:      -8.5      1.349      2.392
REMARK  Name = 
REMARK  6 active torsions:
REMARK  status: ('A' for Active; 'I' for Inactive)
REMARK    1  A    between atoms: C_1  and  C_2
REMARK    2  A    between atoms: C_2  and  N_3
REMARK    3  A    between atoms: C_8  and  C_9
REMARK    4  A    between atoms: C_16  and  C_17
REMARK    5  A    between atoms: C_18  and  C_19
REMARK    6  A    between atoms: N_22  and  C_23
REMARK                            x       y       z     vdW  Elec       q    Type
REMARK                         _______ _______ _______ _____ _____    ______ ____
ROOT
ATOM      1  C   UNL     1       2.137   6.186  20.152  0.00  0.00    +0.000 A 
ATOM      2  C   UNL     1       1.477   5.266  20.878  0.00  0.00    +0.000 A 
ATOM      3  C   UNL     1       1.922   3.847  20.823  0.00  0.00    +0.000 A 
ATOM      4  O   UNL     1       1.357   2.943  21.423  0.00  0.00    +0.000 OA
ATOM      5  N   UNL     1       3.055   3.626  20.018  0.00  0.00    +0.000 N 
ATOM      6  N   UNL     1       3.605   2.397  19.819  0.00  0.00    +0.000 NA
ATOM      7  C   UNL     1       4.639   2.644  19.009  0.00  0.00    +0.000 A 
ATOM      8  C   UNL     1       4.778   4.010  18.674  0.00  0.00    +0.000 A 
ATOM      9  C   UNL     1       3.722   4.614  19.314  0.00  0.00    +0.000 A 
ATOM     10  N   UNL     1       3.218   5.871  19.358  0.00  0.00    +0.000 N 
ATOM     11  H   UNL     1       3.590   6.619  18.777  0.00  0.00    +0.000 HD
ENDROOT
BRANCH   1  17
ATOM     12  N   UNL     1       0.479  11.513  19.929  0.00  0.00    +0.000 N 
ATOM     13  N   UNL     1       0.861  11.912  18.698  0.00  0.00    +0.000 NA
ATOM     14  C   UNL     1       1.452  10.829  18.186  0.00  0.00    +0.000 A 
ATOM     15  C   UNL     1       1.456   9.737  19.081  0.00  0.00    +0.000 A 
ATOM     16  C   UNL     1       1.910   8.405  19.046  0.00  0.00    +0.000 A 
ATOM     17  C   UNL     1       1.723   7.595  20.179  0.00  0.00    +0.000 A 
ATOM     18  C   UNL     1       1.107   8.109  21.325  0.00  0.00    +0.000 A 
ATOM     19  C   UNL     1       0.651   9.431  21.372  0.00  0.00    +0.000 A 
ATOM     20  C   UNL     1       0.830  10.217  20.227  0.00  0.00    +0.000 A 
BRANCH  12  22
ATOM     21  C   UNL     1      -1.786  12.254  20.574  0.00  0.00    +0.000 C 
ATOM     22  C   UNL     1      -0.289  12.421  20.760  0.00  0.00    +0.000 C 
ENDBRANCH  12  22
ENDBRANCH   1  17
BRANCH   8  23
ATOM     23  C   UNL     1       5.806   4.661  17.815  0.00  0.00    +0.000 A 
ATOM     24  C   UNL     1       5.876   4.693  16.428  0.00  0.00    +0.000 A 
ATOM     25  C   UNL     1       4.941   4.197  15.386  0.00  0.00    +0.000 C 
ATOM     26  C   UNL     1       7.064   5.412  16.157  0.00  0.00    +0.000 A 
ATOM     27  N   UNL     1       7.680   5.830  17.260  0.00  0.00    +0.000 NA
ATOM     28  N   UNL     1       6.889   5.391  18.256  0.00  0.00    +0.000 N 
ATOM     29  C   UNL     1       7.325   5.603  19.616  0.00  0.00    +0.000 C 
ENDBRANCH   8  23
TORSDOF 3
ENDMDL
MODEL 7
REMARK VINA RESULT:      -8.4      1.158      1.833
REMARK  Name = 
REMARK  6 active torsions:
REMARK  status: ('A' for Active; 'I' for Inactive)
REMARK    1  A    between atoms: C_1  and  C_2
REMARK    2  A    between atoms: C_2  and  N_3
REMARK    3  A    between atoms: C_8  and  C_9
REMARK    4  A    between atoms: C_16  and  C_17
REMARK    5  A    between atoms: C_18  and  C_19
REMARK    6  A    between atoms: N_22  and  C_23
REMARK                            x       y       z     vdW  Elec       q    Type
REMARK                         _______ _______ _______ _____ _____    ______ ____
ROOT
ATOM      1  C   UNL     1       2.155   6.226  20.149  0.00  0.00    +0.000 A 
ATOM      2  C   UNL     1       1.497   5.260  20.816  0.00  0.00    +0.000 A 
ATOM      3  C   UNL     1       1.977   3.855  20.714  0.00  0.00    +0.000 A 
ATOM      4  O   UNL     1       1.418   2.914  21.260  0.00  0.00    +0.000 OA
ATOM      5  N   UNL     1       3.136   3.694  19.932  0.00  0.00    +0.000 N 
ATOM      6  N   UNL     1       3.720   2.489  19.696  0.00  0.00    +0.000 NA
ATOM      7  C   UNL     1       4.769   2.793  18.926  0.00  0.00    +0.000 A 
ATOM      8  C   UNL     1       4.884   4.175  18.653  0.00  0.00    +0.000 A 
ATOM      9  C   UNL     1       3.797   4.727  19.289  0.00  0.00    +0.000 A 
ATOM     10  N   UNL     1       3.263   5.970  19.372  0.00  0.00    +0.000 N 
ATOM     11  H   UNL     1       3.632   6.750  18.834  0.00  0.00    +0.000 HD
ENDROOT
BRANCH   1  17
ATOM     12  N   UNL     1       0.361  11.513  20.111  0.00  0.00    +0.000 N 
ATOM     13  N   UNL     1       0.705  11.955  18.883  0.00  0.00    +0.000 NA
ATOM     14  C   UNL     1       1.310  10.902  18.329  0.00  0.00    +0.000 A 
ATOM     15  C   UNL     1       1.362   9.786  19.192  0.00  0.00    +0.000 A 
ATOM     16  C   UNL     1       1.848   8.467  19.111  0.00  0.00    +0.000 A 
ATOM     17  C   UNL     1       1.707   7.622  20.224  0.00  0.00    +0.000 A 
ATOM     18  C   UNL     1       1.104   8.089  21.397  0.00  0.00    +0.000 A 
ATOM     19  C   UNL     1       0.617   9.397  21.492  0.00  0.00    +0.000 A 
ATOM     20  C   UNL     1       0.750  10.218  20.365  0.00  0.00    +0.000 A 
BRANCH  12  22
ATOM     21  C   UNL     1      -1.899  12.312  20.699  0.00  0.00    +0.000 C 
ATOM     22  C   UNL     1      -0.410  12.378  20.984  0.00  0.00    +0.000 C 
ENDBRANCH  12  22
ENDBRANCH   1  17
BRANCH   8  23
ATOM     23  C   UNL     1       5.919   4.885  17.851  0.00  0.00    +0.000 A 
ATOM     24  C   UNL     1       7.028   5.589  18.304  0.00  0.00    +0.000 A 
ATOM     25  C   UNL     1       7.580   5.778  19.669  0.00  0.00    +0.000 C 
ATOM     26  C   UNL     1       7.636   6.076  17.123  0.00  0.00    +0.000 A 
ATOM     27  N   UNL     1       7.001   5.696  16.018  0.00  0.00    +0.000 NA
ATOM     28  N   UNL     1       5.978   4.951  16.475  0.00  0.00    +0.000 N 
ATOM     29  C   UNL     1       5.020   4.447  15.519  0.00  0.00    +0.000 C 
ENDBRANCH   8  23
TORSDOF 3
ENDMDL
MODEL 8
REMARK VINA RESULT:      -8.3      0.972      2.146
REMARK  Name = 
REMARK  6 active torsions:
REMARK  status: ('A' for Active; 'I' for Inactive)
REMARK    1  A    between atoms: C_1  and  C_2
REMARK    2  A    between atoms: C_2  and  N_3
REMARK    3  A    between atoms: C_8  and  C_9
REMARK    4  A    between atoms: C_16  and  C_17
REMARK    5  A    between atoms: C_18  and  C_19
REMARK    6  A    between atoms: N_22  and  C_23
REMARK                            x       y       z     vdW  Elec       q    Type
REMARK                         _______ _______ _______ _____ _____    ______ ____
ROOT
ATOM      1  C   UNL     1       1.983   6.691  20.358  0.00  0.00    +0.000 A 
ATOM      2  C   UNL     1       1.298   5.629  20.823  0.00  0.00    +0.000 A 
ATOM      3  C   UNL     1       1.835   4.262  20.585  0.00  0.00    +0.000 A 
ATOM      4  O   UNL     1       1.259   3.243  20.942  0.00  0.00    +0.000 OA
ATOM      5  N   UNL     1       3.069   4.234  19.908  0.00  0.00    +0.000 N 
ATOM      6  N   UNL     1       3.715   3.084  19.575  0.00  0.00    +0.000 NA
ATOM      7  C   UNL     1       4.822   3.512  18.961  0.00  0.00    +0.000 A 
ATOM      8  C   UNL     1       4.914   4.921  18.886  0.00  0.00    +0.000 A 
ATOM      9  C   UNL     1       3.752   5.358  19.477  0.00  0.00    +0.000 A 
ATOM     10  N   UNL     1       3.169   6.566  19.670  0.00  0.00    +0.000 N 
ATOM     11  H   UNL     1       3.561   7.420  19.279  0.00  0.00    +0.000 HD
ENDROOT
BRANCH   1  17
ATOM     12  N   UNL     1      -0.071  11.858  20.868  0.00  0.00    +0.000 N 
ATOM     13  N   UNL     1       0.025  12.360  19.619  0.00  0.00    +0.000 NA
ATOM     14  C   UNL     1       0.578  11.365  18.922  0.00  0.00    +0.000 A 
ATOM     15  C   UNL     1       0.842  10.226  19.713  0.00  0.00    +0.000 A 
ATOM     16  C   UNL     1       1.376   8.943  19.490  0.00  0.00    +0.000 A 
ATOM     17  C   UNL     1       1.481   8.053  20.573  0.00  0.00    +0.000 A 
ATOM     18  C   UNL     1       1.072   8.443  21.852  0.00  0.00    +0.000 A 
ATOM     19  C   UNL     1       0.540   9.715  22.088  0.00  0.00    +0.000 A 
ATOM     20  C   UNL     1       0.426  10.581  20.993  0.00  0.00    +0.000 A 
BRANCH  12  22
ATOM     21  C   UNL     1      -2.207  12.357  21.999  0.00  0.00    +0.000 C 
ATOM     22  C   UNL     1      -0.721  12.644  21.900  0.00  0.00    +0.000 C 
ENDBRANCH  12  22
ENDBRANCH   1  17
BRANCH   8  23
ATOM     23  C   UNL     1       5.996   5.756  18.293  0.00  0.00    +0.000 A 
ATOM     24  C   UNL     1       5.983   6.459  17.095  0.00  0.00    +0.000 A 
ATOM     25  C   UNL     1       4.905   6.683  16.099  0.00  0.00    +0.000 C 
ATOM     26  C   UNL     1       7.272   7.038  17.020  0.00  0.00    +0.000 A 
ATOM     27  N   UNL     1       8.027   6.763  18.079  0.00  0.00    +0.000 NA
ATOM     28  N   UNL     1       7.229   6.008  18.855  0.00  0.00    +0.000 N 
ATOM     29  C   UNL     1       7.783   5.454  20.069  0.00  0.00    +0.000 C 
ENDBRANCH   8  23
TORSDOF 3
ENDMDL
MODEL 9
REMARK VINA RESULT:      -8.2      1.563      2.179
REMARK  Name = 
REMARK  6 active torsions:
REMARK  status: ('A' for Active; 'I' for Inactive)
REMARK    1  A    between atoms: C_1  and  C_2
REMARK    2  A    between atoms: C_2  and  N_3
REMARK    3  A    between atoms: C_8  and  C_9
REMARK    4  A    between atoms: C_16  and  C_17
REMARK    5  A    between atoms: C_18  and  C_19
REMARK    6  A    between atoms: N_22  and  C_23
REMARK                            x       y       z     vdW  Elec       q    Type
REMARK                         _______ _______ _______ _____ _____    ______ ____
ROOT
ATOM      1  C   UNL     1       2.210   5.900  19.300  0.00  0.00    +0.000 A 
ATOM      2  C   UNL     1       1.556   4.921  19.952  0.00  0.00    +0.000 A 
ATOM      3  C   UNL     1       1.962   3.508  19.728  0.00  0.00    +0.000 A 
ATOM      4  O   UNL     1       1.399   2.556  20.252  0.00  0.00    +0.000 OA
ATOM      5  N   UNL     1       3.056   3.350  18.856  0.00  0.00    +0.000 N 
ATOM      6  N   UNL     1       3.566   2.139  18.504  0.00  0.00    +0.000 NA
ATOM      7  C   UNL     1       4.573   2.449  17.682  0.00  0.00    +0.000 A 
ATOM      8  C   UNL     1       4.732   3.840  17.488  0.00  0.00    +0.000 A 
ATOM      9  C   UNL     1       3.718   4.394  18.233  0.00  0.00    +0.000 A 
ATOM     10  N   UNL     1       3.249   5.650  18.432  0.00  0.00    +0.000 N 
ATOM     11  H   UNL     1       3.616   6.447  17.918  0.00  0.00    +0.000 HD
ENDROOT
BRANCH   1  17
ATOM     12  N   UNL     1       0.900  11.225  20.354  0.00  0.00    +0.000 N 
ATOM     13  N   UNL     1       0.519  11.206  21.648  0.00  0.00    +0.000 NA
ATOM     14  C   UNL     1       0.637   9.922  21.992  0.00  0.00    +0.000 A 
ATOM     15  C   UNL     1       1.088   9.111  20.927  0.00  0.00    +0.000 A 
ATOM     16  C   UNL     1       1.393   7.748  20.754  0.00  0.00    +0.000 A 
ATOM     17  C   UNL     1       1.833   7.306  19.494  0.00  0.00    +0.000 A 
ATOM     18  C   UNL     1       1.953   8.205  18.429  0.00  0.00    +0.000 A 
ATOM     19  C   UNL     1       1.653   9.562  18.588  0.00  0.00    +0.000 A 
ATOM     20  C   UNL     1       1.235   9.987  19.855  0.00  0.00    +0.000 A 
BRANCH  12  22
ATOM     21  C   UNL     1      -0.252  12.789  18.831  0.00  0.00    +0.000 C 
ATOM     22  C   UNL     1       0.985  12.496  19.659  0.00  0.00    +0.000 C 
ENDBRANCH  12  22
ENDBRANCH   1  17
BRANCH   8  23
ATOM     23  C   UNL     1       5.741   4.558  16.659  0.00  0.00    +0.000 A 
ATOM     24  C   UNL     1       5.920   4.506  15.283  0.00  0.00    +0.000 A 
ATOM     25  C   UNL     1       5.141   3.828  14.216  0.00  0.00    +0.000 C 
ATOM     26  C   UNL     1       7.031   5.350  15.046  0.00  0.00    +0.000 A 
ATOM     27  N   UNL     1       7.498   5.915  16.155  0.00  0.00    +0.000 NA
ATOM     28  N   UNL     1       6.688   5.446  17.121  0.00  0.00    +0.000 N 
ATOM     29  C   UNL     1       6.982   5.802  18.490  0.00  0.00    +0.000 C 
ENDBRANCH   8  23
TORSDOF 3
ENDMDL
