MODEL 1
REMARK VINA RESULT:      -7.0      0.000      0.000
REMARK  Name = 
REMARK  2 active torsions:
REMARK  status: ('A' for Active; 'I' for Inactive)
REMARK    1  A    between atoms: N_1  and  C_2
REMARK    2  A    between atoms: C_9  and  N_10
REMARK                            x       y       z     vdW  Elec       q    Type
REMARK                         _______ _______ _______ _____ _____    ______ ____
ROOT
ATOM      1  C   UNL     1       3.525   2.099  19.386  0.00  0.00    +0.000 C 
ATOM      2  C   UNL     1       2.410   2.684  20.265  0.00  0.00    +0.000 C 
ATOM      3  C   UNL     1       2.404   4.215  20.243  0.00  0.00    +0.000 C 
ATOM      4  C   UNL     1       2.337   4.758  18.819  0.00  0.00    +0.000 C 
ATOM      5  N   UNL     1       3.335   4.122  17.972  0.00  0.00    +0.000 N 
ATOM      6  C   UNL     1       4.287   4.886  17.325  0.00  0.00    +0.000 A 
ATOM      7  C   UNL     1       4.781   4.487  16.098  0.00  0.00    +0.000 A 
ATOM      8  C   UNL     1       5.786   5.217  15.493  0.00  0.00    +0.000 A 
ATOM      9  N   UNL     1       6.296   6.304  16.088  0.00  0.00    +0.000 NA
ATOM     10  C   UNL     1       5.724   6.658  17.249  0.00  0.00    +0.000 A 
ATOM     11  N   UNL     1       4.736   6.013  17.893  0.00  0.00    +0.000 NA
ATOM     12  C   UNL     1       3.394   2.654  17.947  0.00  0.00    +0.000 C 
ENDROOT
BRANCH   8  13
ATOM     13  N   UNL     1       6.314   4.747  14.312  0.00  0.00    +0.000 N 
ATOM     14  C   UNL     1       5.950   3.431  13.794  0.00  0.00    +0.000 C 
ATOM     15  C   UNL     1       5.982   3.540  12.255  0.00  0.00    +0.000 C 
ATOM     16  O   UNL     1       7.271   3.979  11.773  0.00  0.00    +0.000 OA
ATOM     17  C   UNL     1       7.627   5.252  12.342  0.00  0.00    +0.000 C 
ATOM     18  C   UNL     1       7.641   5.196  13.877  0.00  0.00    +0.000 C 
ENDBRANCH   8  13
BRANCH   1  19
ATOM     19  N   UNL     1       4.853   2.398  19.948  0.00  0.00    +0.000 NA
ATOM     20  H   UNL     1       4.922   3.388  20.175  0.00  0.00    +0.000 HD
ATOM     21  H   UNL     1       5.551   2.224  19.217  0.00  0.00    +0.000 HD
ENDBRANCH   1  19
TORSDOF 2
ENDMDL
MODEL 2
REMARK VINA RESULT:      -7.0      1.282      1.700
REMARK  Name = 
REMARK  2 active torsions:
REMARK  status: ('A' for Active; 'I' for Inactive)
REMARK    1  A    between atoms: N_1  and  C_2
REMARK    2  A    between atoms: C_9  and  N_10
REMARK                            x       y       z     vdW  Elec       q    Type
REMARK                         _______ _______ _______ _____ _____    ______ ____
ROOT
ATOM      1  C   UNL     1       2.270   2.119  18.461  0.00  0.00    +0.000 C 
ATOM      2  C   UNL     1       1.758   2.697  19.789  0.00  0.00    +0.000 C 
ATOM      3  C   UNL     1       2.790   3.610  20.455  0.00  0.00    +0.000 C 
ATOM      4  C   UNL     1       3.263   4.711  19.511  0.00  0.00    +0.000 C 
ATOM      5  N   UNL     1       3.652   4.159  18.222  0.00  0.00    +0.000 N 
ATOM      6  C   UNL     1       4.933   4.352  17.740  0.00  0.00    +0.000 A 
ATOM      7  C   UNL     1       5.156   4.450  16.381  0.00  0.00    +0.000 A 
ATOM      8  C   UNL     1       6.448   4.569  15.905  0.00  0.00    +0.000 A 
ATOM      9  N   UNL     1       7.490   4.581  16.748  0.00  0.00    +0.000 NA
ATOM     10  C   UNL     1       7.186   4.538  18.054  0.00  0.00    +0.000 A 
ATOM     11  N   UNL     1       5.960   4.439  18.596  0.00  0.00    +0.000 NA
ATOM     12  C   UNL     1       2.706   3.275  17.528  0.00  0.00    +0.000 C 
ENDROOT
BRANCH   8  13
ATOM     13  N   UNL     1       6.644   4.580  14.543  0.00  0.00    +0.000 N 
ATOM     14  C   UNL     1       7.446   5.621  13.905  0.00  0.00    +0.000 C 
ATOM     15  C   UNL     1       8.133   4.964  12.690  0.00  0.00    +0.000 C 
ATOM     16  O   UNL     1       7.176   4.380  11.780  0.00  0.00    +0.000 OA
ATOM     17  C   UNL     1       6.363   3.397  12.450  0.00  0.00    +0.000 C 
ATOM     18  C   UNL     1       5.629   4.004  13.655  0.00  0.00    +0.000 C 
ENDBRANCH   8  13
BRANCH   1  19
ATOM     19  N   UNL     1       3.380   1.178  18.688  0.00  0.00    +0.000 NA
ATOM     20  H   UNL     1       3.739   1.281  19.636  0.00  0.00    +0.000 HD
ATOM     21  H   UNL     1       4.148   1.439  18.062  0.00  0.00    +0.000 HD
ENDBRANCH   1  19
TORSDOF 2
ENDMDL
MODEL 3
REMARK VINA RESULT:      -6.7      5.504      8.130
REMARK  Name = 
REMARK  2 active torsions:
REMARK  status: ('A' for Active; 'I' for Inactive)
REMARK    1  A    between atoms: N_1  and  C_2
REMARK    2  A    between atoms: C_9  and  N_10
REMARK                            x       y       z     vdW  Elec       q    Type
REMARK                         _______ _______ _______ _____ _____    ______ ____
ROOT
ATOM      1  C   UNL     1       2.127   3.863  18.677  0.00  0.00    +0.000 C 
ATOM      2  C   UNL     1       3.463   3.471  18.028  0.00  0.00    +0.000 C 
ATOM      3  C   UNL     1       4.158   4.670  17.375  0.00  0.00    +0.000 C 
ATOM      4  C   UNL     1       4.329   5.825  18.356  0.00  0.00    +0.000 C 
ATOM      5  N   UNL     1       3.077   6.120  19.036  0.00  0.00    +0.000 N 
ATOM      6  C   UNL     1       2.517   7.380  18.947  0.00  0.00    +0.000 A 
ATOM      7  C   UNL     1       1.785   7.890  20.000  0.00  0.00    +0.000 A 
ATOM      8  C   UNL     1       1.166   9.120  19.874  0.00  0.00    +0.000 A 
ATOM      9  N   UNL     1       1.261   9.820  18.735  0.00  0.00    +0.000 NA
ATOM     10  C   UNL     1       2.036   9.283  17.781  0.00  0.00    +0.000 A 
ATOM     11  N   UNL     1       2.682   8.105  17.832  0.00  0.00    +0.000 NA
ATOM     12  C   UNL     1       2.360   5.015  19.684  0.00  0.00    +0.000 C 
ENDROOT
BRANCH   8  13
ATOM     13  N   UNL     1       0.374   9.563  20.909  0.00  0.00    +0.000 N 
ATOM     14  C   UNL     1      -0.075   8.650  21.957  0.00  0.00    +0.000 C 
ATOM     15  C   UNL     1      -0.167   9.483  23.254  0.00  0.00    +0.000 C 
ATOM     16  O   UNL     1      -1.047  10.618  23.104  0.00  0.00    +0.000 OA
ATOM     17  C   UNL     1      -0.611  11.469  22.028  0.00  0.00    +0.000 C 
ATOM     18  C   UNL     1      -0.529  10.699  20.702  0.00  0.00    +0.000 C 
ENDBRANCH   8  13
BRANCH   1  19
ATOM     19  N   UNL     1       1.137   4.247  17.656  0.00  0.00    +0.000 NA
ATOM     20  H   UNL     1       1.597   4.727  16.885  0.00  0.00    +0.000 HD
ATOM     21  H   UNL     1       0.499   4.930  18.078  0.00  0.00    +0.000 HD
ENDBRANCH   1  19
TORSDOF 2
ENDMDL
MODEL 4
REMARK VINA RESULT:      -6.7      5.384      7.971
REMARK  Name = 
REMARK  2 active torsions:
REMARK  status: ('A' for Active; 'I' for Inactive)
REMARK    1  A    between atoms: N_1  and  C_2
REMARK    2  A    between atoms: C_9  and  N_10
REMARK                            x       y       z     vdW  Elec       q    Type
REMARK                         _______ _______ _______ _____ _____    ______ ____
ROOT
ATOM      1  C   UNL     1       1.681   3.252  20.498  0.00  0.00    +0.000 C 
ATOM      2  C   UNL     1       2.835   2.497  19.823  0.00  0.00    +0.000 C 
ATOM      3  C   UNL     1       3.518   3.338  18.741  0.00  0.00    +0.000 C 
ATOM      4  C   UNL     1       3.972   4.690  19.281  0.00  0.00    +0.000 C 
ATOM      5  N   UNL     1       2.896   5.351  20.003  0.00  0.00    +0.000 N 
ATOM      6  C   UNL     1       2.455   6.599  19.606  0.00  0.00    +0.000 A 
ATOM      7  C   UNL     1       1.975   7.494  20.540  0.00  0.00    +0.000 A 
ATOM      8  C   UNL     1       1.467   8.711  20.126  0.00  0.00    +0.000 A 
ATOM      9  N   UNL     1       1.427   9.029  18.825  0.00  0.00    +0.000 NA
ATOM     10  C   UNL     1       1.964   8.130  17.987  0.00  0.00    +0.000 A 
ATOM     11  N   UNL     1       2.490   6.936  18.310  0.00  0.00    +0.000 NA
ATOM     12  C   UNL     1       2.200   4.599  21.056  0.00  0.00    +0.000 C 
ENDROOT
BRANCH   8  13
ATOM     13  N   UNL     1       0.919   9.547  21.073  0.00  0.00    +0.000 N 
ATOM     14  C   UNL     1       0.768  10.977  20.818  0.00  0.00    +0.000 C 
ATOM     15  C   UNL     1      -0.503  11.426  21.570  0.00  0.00    +0.000 C 
ATOM     16  O   UNL     1      -0.426  11.128  22.981  0.00  0.00    +0.000 OA
ATOM     17  C   UNL     1      -0.222   9.720  23.200  0.00  0.00    +0.000 C 
ATOM     18  C   UNL     1       1.049   9.222  22.496  0.00  0.00    +0.000 C 
ENDBRANCH   8  13
BRANCH   1  19
ATOM     19  N   UNL     1       0.568   3.465  19.557  0.00  0.00    +0.000 NA
ATOM     20  H   UNL     1       0.875   4.039  18.775  0.00  0.00    +0.000 HD
ATOM     21  H   UNL     1      -0.156   4.006  20.042  0.00  0.00    +0.000 HD
ENDBRANCH   1  19
TORSDOF 2
ENDMDL
MODEL 5
REMARK VINA RESULT:      -6.6      1.014      1.156
REMARK  Name = 
REMARK  2 active torsions:
REMARK  status: ('A' for Active; 'I' for Inactive)
REMARK    1  A    between atoms: N_1  and  C_2
REMARK    2  A    between atoms: C_9  and  N_10
REMARK                            x       y       z     vdW  Elec       q    Type
REMARK                         _______ _______ _______ _____ _____    ______ ____
ROOT
ATOM      1  C   UNL     1       2.479   3.572  19.055  0.00  0.00    +0.000 C 
ATOM      2  C   UNL     1       1.713   4.568  19.939  0.00  0.00    +0.000 C 
ATOM      3  C   UNL     1       2.438   5.912  20.053  0.00  0.00    +0.000 C 
ATOM      4  C   UNL     1       2.749   6.503  18.682  0.00  0.00    +0.000 C 
ATOM      5  N   UNL     1       3.386   5.517  17.822  0.00  0.00    +0.000 N 
ATOM      6  C   UNL     1       4.634   5.766  17.284  0.00  0.00    +0.000 A 
ATOM      7  C   UNL     1       4.973   5.253  16.048  0.00  0.00    +0.000 A 
ATOM      8  C   UNL     1       6.248   5.444  15.552  0.00  0.00    +0.000 A 
ATOM      9  N   UNL     1       7.166   6.115  16.261  0.00  0.00    +0.000 NA
ATOM     10  C   UNL     1       6.743   6.630  17.425  0.00  0.00    +0.000 A 
ATOM     11  N   UNL     1       5.520   6.503  17.969  0.00  0.00    +0.000 NA
ATOM     12  C   UNL     1       2.741   4.207  17.668  0.00  0.00    +0.000 C 
ENDROOT
BRANCH   8  13
ATOM     13  N   UNL     1       6.580   4.849  14.355  0.00  0.00    +0.000 N 
ATOM     14  C   UNL     1       6.114   3.505  14.028  0.00  0.00    +0.000 C 
ATOM     15  C   UNL     1       5.912   3.470  12.498  0.00  0.00    +0.000 C 
ATOM     16  O   UNL     1       7.120   3.817  11.787  0.00  0.00    +0.000 OA
ATOM     17  C   UNL     1       7.586   5.124  12.171  0.00  0.00    +0.000 C 
ATOM     18  C   UNL     1       7.833   5.209  13.685  0.00  0.00    +0.000 C 
ENDBRANCH   8  13
BRANCH   1  19
ATOM     19  N   UNL     1       3.741   3.163  19.695  0.00  0.00    +0.000 NA
ATOM     20  H   UNL     1       4.387   2.803  18.996  0.00  0.00    +0.000 HD
ATOM     21  H   UNL     1       3.536   2.379  20.324  0.00  0.00    +0.000 HD
ENDBRANCH   1  19
TORSDOF 2
ENDMDL
MODEL 6
REMARK VINA RESULT:      -6.5      1.193      1.195
REMARK  Name = 
REMARK  2 active torsions:
REMARK  status: ('A' for Active; 'I' for Inactive)
REMARK    1  A    between atoms: N_1  and  C_2
REMARK    2  A    between atoms: C_9  and  N_10
REMARK                            x       y       z     vdW  Elec       q    Type
REMARK                         _______ _______ _______ _____ _____    ______ ____
ROOT
ATOM      1  C   UNL     1       2.173   2.262  18.261  0.00  0.00    +0.000 C 
ATOM      2  C   UNL     1       1.559   2.971  19.477  0.00  0.00    +0.000 C 
ATOM      3  C   UNL     1       2.521   3.991  20.094  0.00  0.00    +0.000 C 
ATOM      4  C   UNL     1       3.025   4.990  19.058  0.00  0.00    +0.000 C 
ATOM      5  N   UNL     1       3.514   4.306  17.870  0.00  0.00    +0.000 N 
ATOM      6  C   UNL     1       4.818   4.487  17.451  0.00  0.00    +0.000 A 
ATOM      7  C   UNL     1       5.127   4.434  16.106  0.00  0.00    +0.000 A 
ATOM      8  C   UNL     1       6.444   4.541  15.701  0.00  0.00    +0.000 A 
ATOM      9  N   UNL     1       7.428   4.686  16.600  0.00  0.00    +0.000 NA
ATOM     10  C   UNL     1       7.040   4.784  17.880  0.00  0.00    +0.000 A 
ATOM     11  N   UNL     1       5.783   4.707  18.353  0.00  0.00    +0.000 NA
ATOM     12  C   UNL     1       2.639   3.316  17.228  0.00  0.00    +0.000 C 
ENDROOT
BRANCH   8  13
ATOM     13  N   UNL     1       6.730   4.401  14.362  0.00  0.00    +0.000 N 
ATOM     14  C   UNL     1       6.218   3.267  13.597  0.00  0.00    +0.000 C 
ATOM     15  C   UNL     1       5.978   3.779  12.160  0.00  0.00    +0.000 C 
ATOM     16  O   UNL     1       7.178   4.333  11.578  0.00  0.00    +0.000 OA
ATOM     17  C   UNL     1       7.690   5.411  12.383  0.00  0.00    +0.000 C 
ATOM     18  C   UNL     1       7.976   4.952  13.820  0.00  0.00    +0.000 C 
ENDBRANCH   8  13
BRANCH   1  19
ATOM     19  N   UNL     1       3.290   1.392  18.666  0.00  0.00    +0.000 NA
ATOM     20  H   UNL     1       2.933   0.548  19.109  0.00  0.00    +0.000 HD
ATOM     21  H   UNL     1       3.830   1.886  19.385  0.00  0.00    +0.000 HD
ENDBRANCH   1  19
TORSDOF 2
ENDMDL
MODEL 7
REMARK VINA RESULT:      -6.3      4.187      7.214
REMARK  Name = 
REMARK  2 active torsions:
REMARK  status: ('A' for Active; 'I' for Inactive)
REMARK    1  A    between atoms: N_1  and  C_2
REMARK    2  A    between atoms: C_9  and  N_10
REMARK                            x       y       z     vdW  Elec       q    Type
REMARK                         _______ _______ _______ _____ _____    ______ ____
ROOT
ATOM      1  C   UNL     1       6.847   6.393  16.922  0.00  0.00    +0.000 C 
ATOM      2  C   UNL     1       7.089   5.146  16.059  0.00  0.00    +0.000 C 
ATOM      3  C   UNL     1       6.168   3.987  16.452  0.00  0.00    +0.000 C 
ATOM      4  C   UNL     1       4.701   4.403  16.439  0.00  0.00    +0.000 C 
ATOM      5  N   UNL     1       4.503   5.640  17.178  0.00  0.00    +0.000 N 
ATOM      6  C   UNL     1       3.636   5.677  18.254  0.00  0.00    +0.000 A 
ATOM      7  C   UNL     1       2.941   6.834  18.545  0.00  0.00    +0.000 A 
ATOM      8  C   UNL     1       2.134   6.885  19.666  0.00  0.00    +0.000 A 
ATOM      9  N   UNL     1       2.024   5.826  20.480  0.00  0.00    +0.000 NA
ATOM     10  C   UNL     1       2.686   4.724  20.097  0.00  0.00    +0.000 A 
ATOM     11  N   UNL     1       3.476   4.588  19.018  0.00  0.00    +0.000 NA
ATOM     12  C   UNL     1       5.354   6.792  16.849  0.00  0.00    +0.000 C 
ENDROOT
BRANCH   8  13
ATOM     13  N   UNL     1       1.520   8.078  19.976  0.00  0.00    +0.000 N 
ATOM     14  C   UNL     1       1.554   9.205  19.048  0.00  0.00    +0.000 C 
ATOM     15  C   UNL     1       0.226   9.969  19.237  0.00  0.00    +0.000 C 
ATOM     16  O   UNL     1       0.038  10.393  20.605  0.00  0.00    +0.000 OA
ATOM     17  C   UNL     1       0.065   9.266  21.501  0.00  0.00    +0.000 C 
ATOM     18  C   UNL     1       1.380   8.483  21.377  0.00  0.00    +0.000 C 
ENDBRANCH   8  13
BRANCH   1  19
ATOM     19  N   UNL     1       7.263   6.159  18.315  0.00  0.00    +0.000 NA
ATOM     20  H   UNL     1       7.445   7.046  18.780  0.00  0.00    +0.000 HD
ATOM     21  H   UNL     1       8.157   5.656  18.297  0.00  0.00    +0.000 HD
ENDBRANCH   1  19
TORSDOF 2
ENDMDL
MODEL 8
REMARK VINA RESULT:      -6.2      4.261      7.008
REMARK  Name = 
REMARK  2 active torsions:
REMARK  status: ('A' for Active; 'I' for Inactive)
REMARK    1  A    between atoms: N_1  and  C_2
REMARK    2  A    between atoms: C_9  and  N_10
REMARK                            x       y       z     vdW  Elec       q    Type
REMARK                         _______ _______ _______ _____ _____    ______ ____
ROOT
ATOM      1  C   UNL     1       6.843   6.223  16.700  0.00  0.00    +0.000 C 
ATOM      2  C   UNL     1       7.006   4.853  16.024  0.00  0.00    +0.000 C 
ATOM      3  C   UNL     1       6.013   3.822  16.567  0.00  0.00    +0.000 C 
ATOM      4  C   UNL     1       4.575   4.323  16.478  0.00  0.00    +0.000 C 
ATOM      5  N   UNL     1       4.455   5.663  17.034  0.00  0.00    +0.000 N 
ATOM      6  C   UNL     1       3.590   5.906  18.083  0.00  0.00    +0.000 A 
ATOM      7  C   UNL     1       2.970   7.133  18.201  0.00  0.00    +0.000 A 
ATOM      8  C   UNL     1       2.165   7.393  19.294  0.00  0.00    +0.000 A 
ATOM      9  N   UNL     1       1.986   6.469  20.248  0.00  0.00    +0.000 NA
ATOM     10  C   UNL     1       2.577   5.284  20.032  0.00  0.00    +0.000 A 
ATOM     11  N   UNL     1       3.359   4.948  18.991  0.00  0.00    +0.000 NA
ATOM     12  C   UNL     1       5.378   6.700  16.555  0.00  0.00    +0.000 C 
ENDROOT
BRANCH   8  13
ATOM     13  N   UNL     1       1.628   8.654  19.426  0.00  0.00    +0.000 N 
ATOM     14  C   UNL     1       0.830   9.014  20.595  0.00  0.00    +0.000 C 
ATOM     15  C   UNL     1       1.090  10.512  20.860  0.00  0.00    +0.000 C 
ATOM     16  O   UNL     1       0.772  11.326  19.710  0.00  0.00    +0.000 OA
ATOM     17  C   UNL     1       1.534  10.912  18.560  0.00  0.00    +0.000 C 
ATOM     18  C   UNL     1       1.290   9.431  18.230  0.00  0.00    +0.000 C 
ENDBRANCH   8  13
BRANCH   1  19
ATOM     19  N   UNL     1       7.240   6.162  18.117  0.00  0.00    +0.000 NA
ATOM     20  H   UNL     1       6.912   5.294  18.536  0.00  0.00    +0.000 HD
ATOM     21  H   UNL     1       6.757   6.919  18.612  0.00  0.00    +0.000 HD
ENDBRANCH   1  19
TORSDOF 2
ENDMDL
MODEL 9
REMARK VINA RESULT:      -5.9      2.481      6.384
REMARK  Name = 
REMARK  2 active torsions:
REMARK  status: ('A' for Active; 'I' for Inactive)
REMARK    1  A    between atoms: N_1  and  C_2
REMARK    2  A    between atoms: C_9  and  N_10
REMARK                            x       y       z     vdW  Elec       q    Type
REMARK                         _______ _______ _______ _____ _____    ______ ____
ROOT
ATOM      1  C   UNL     1       5.869   3.229  12.296  0.00  0.00    +0.000 C 
ATOM      2  C   UNL     1       7.129   3.840  11.667  0.00  0.00    +0.000 C 
ATOM      3  C   UNL     1       7.501   5.180  12.309  0.00  0.00    +0.000 C 
ATOM      4  C   UNL     1       7.631   5.063  13.824  0.00  0.00    +0.000 C 
ATOM      5  N   UNL     1       6.473   4.393  14.396  0.00  0.00    +0.000 N 
ATOM      6  C   UNL     1       5.703   5.029  15.351  0.00  0.00    +0.000 A 
ATOM      7  C   UNL     1       5.073   4.294  16.336  0.00  0.00    +0.000 A 
ATOM      8  C   UNL     1       4.246   4.930  17.242  0.00  0.00    +0.000 A 
ATOM      9  N   UNL     1       4.038   6.252  17.170  0.00  0.00    +0.000 NA
ATOM     10  C   UNL     1       4.729   6.901  16.221  0.00  0.00    +0.000 A 
ATOM     11  N   UNL     1       5.563   6.361  15.316  0.00  0.00    +0.000 NA
ATOM     12  C   UNL     1       6.063   3.103  13.827  0.00  0.00    +0.000 C 
ENDROOT
BRANCH   8  13
ATOM     13  N   UNL     1       3.567   4.160  18.160  0.00  0.00    +0.000 N 
ATOM     14  C   UNL     1       2.117   4.260  18.302  0.00  0.00    +0.000 C 
ATOM     15  C   UNL     1       1.616   2.854  18.696  0.00  0.00    +0.000 C 
ATOM     16  O   UNL     1       2.251   2.375  19.901  0.00  0.00    +0.000 OA
ATOM     17  C   UNL     1       3.682   2.339  19.750  0.00  0.00    +0.000 C 
ATOM     18  C   UNL     1       4.242   3.722  19.385  0.00  0.00    +0.000 C 
ENDBRANCH   8  13
BRANCH   1  19
ATOM     19  N   UNL     1       4.678   4.036  11.982  0.00  0.00    +0.000 NA
ATOM     20  H   UNL     1       4.707   4.918  12.490  0.00  0.00    +0.000 HD
ATOM     21  H   UNL     1       3.855   3.533  12.330  0.00  0.00    +0.000 HD
ENDBRANCH   1  19
TORSDOF 2
ENDMDL
