MODEL 1
REMARK VINA RESULT:      -8.5      0.000      0.000
REMARK  Name = 
REMARK  4 active torsions:
REMARK  status: ('A' for Active; 'I' for Inactive)
REMARK    1  A    between atoms: C_1  and  C_2
REMARK    2  A    between atoms: C_6  and  C_7
REMARK    3  A    between atoms: C_12  and  O_13
REMARK    4  A    between atoms: C_15  and  C_16
REMARK                            x       y       z     vdW  Elec       q    Type
REMARK                         _______ _______ _______ _____ _____    ______ ____
ROOT
ATOM      1  C   UNL     1       8.037   6.867  18.361  0.00  0.00    +0.000 C 
ATOM      2  C   UNL     1       7.112   5.755  18.791  0.00  0.00    +0.000 C 
ATOM      3  O   UNL     1       6.910   5.516  19.983  0.00  0.00    +0.000 OA
ATOM      4  N   UNL     1       6.512   5.064  17.756  0.00  0.00    +0.000 N 
ATOM      5  N   UNL     1       6.885   5.253  16.451  0.00  0.00    +0.000 NA
ATOM      6  C   UNL     1       6.238   4.378  15.739  0.00  0.00    +0.000 C 
ATOM      7  C   UNL     1       5.316   3.478  16.518  0.00  0.00    +0.000 C 
ATOM      8  C   UNL     1       5.563   3.968  17.939  0.00  0.00    +0.000 C 
ENDROOT
BRANCH   8   9
ATOM      9  C   UNL     1       4.273   4.401  18.611  0.00  0.00    +0.000 A 
ATOM     10  C   UNL     1       3.658   5.609  18.252  0.00  0.00    +0.000 A 
ATOM     11  C   UNL     1       2.467   6.008  18.863  0.00  0.00    +0.000 A 
ATOM     12  C   UNL     1       1.882   5.210  19.846  0.00  0.00    +0.000 A 
ATOM     13  C   UNL     1       2.492   4.013  20.213  0.00  0.00    +0.000 A 
ATOM     14 BR   UNL     1       1.715   2.933  21.555  0.00  0.00    +0.000 Br
ATOM     15  C   UNL     1       3.675   3.605  19.603  0.00  0.00    +0.000 A 
ENDBRANCH   8   9
BRANCH   6  16
ATOM     16  C   UNL     1       6.396   4.278  14.266  0.00  0.00    +0.000 A 
ATOM     17  C   UNL     1       5.491   3.475  13.558  0.00  0.00    +0.000 A 
ATOM     18  C   UNL     1       5.587   3.343  12.171  0.00  0.00    +0.000 A 
ATOM     19  C   UNL     1       6.593   4.012  11.481  0.00  0.00    +0.000 A 
ATOM     20  C   UNL     1       7.503   4.811  12.174  0.00  0.00    +0.000 A 
ATOM     21  C   UNL     1       7.406   4.943  13.560  0.00  0.00    +0.000 A 
BRANCH  21  22
ATOM     22  O   UNL     1       8.318   5.732  14.200  0.00  0.00    +0.000 OA
ATOM     23  H   UNL     1       8.700   5.249  14.952  0.00  0.00    +0.000 HD
ENDBRANCH  21  22
ENDBRANCH   6  16
TORSDOF 3
ENDMDL
MODEL 2
REMARK VINA RESULT:      -8.3      1.474      1.802
REMARK  Name = 
REMARK  4 active torsions:
REMARK  status: ('A' for Active; 'I' for Inactive)
REMARK    1  A    between atoms: C_1  and  C_2
REMARK    2  A    between atoms: C_6  and  C_7
REMARK    3  A    between atoms: C_12  and  O_13
REMARK    4  A    between atoms: C_15  and  C_16
REMARK                            x       y       z     vdW  Elec       q    Type
REMARK                         _______ _______ _______ _____ _____    ______ ____
ROOT
ATOM      1  C   UNL     1       8.282   6.562  18.461  0.00  0.00    +0.000 C 
ATOM      2  C   UNL     1       7.131   5.677  18.871  0.00  0.00    +0.000 C 
ATOM      3  O   UNL     1       6.844   5.509  20.057  0.00  0.00    +0.000 OA
ATOM      4  N   UNL     1       6.434   5.106  17.822  0.00  0.00    +0.000 N 
ATOM      5  N   UNL     1       6.881   5.187  16.530  0.00  0.00    +0.000 NA
ATOM      6  C   UNL     1       6.089   4.454  15.806  0.00  0.00    +0.000 C 
ATOM      7  C   UNL     1       4.974   3.781  16.561  0.00  0.00    +0.000 C 
ATOM      8  C   UNL     1       5.271   4.237  17.984  0.00  0.00    +0.000 C 
ENDROOT
BRANCH   8   9
ATOM      9  C   UNL     1       4.079   4.943  18.603  0.00  0.00    +0.000 A 
ATOM     10  C   UNL     1       3.385   4.356  19.672  0.00  0.00    +0.000 A 
ATOM     11  C   UNL     1       2.291   5.005  20.249  0.00  0.00    +0.000 A 
ATOM     12  C   UNL     1       1.871   6.242  19.760  0.00  0.00    +0.000 A 
ATOM     13  C   UNL     1       2.550   6.826  18.694  0.00  0.00    +0.000 A 
ATOM     14 BR   UNL     1       1.979   8.495  18.014  0.00  0.00    +0.000 Br
ATOM     15  C   UNL     1       3.647   6.189  18.118  0.00  0.00    +0.000 A 
ENDBRANCH   8   9
BRANCH   6  16
ATOM     16  C   UNL     1       6.272   4.293  14.341  0.00  0.00    +0.000 A 
ATOM     17  C   UNL     1       5.361   3.486  13.646  0.00  0.00    +0.000 A 
ATOM     18  C   UNL     1       5.479   3.299  12.268  0.00  0.00    +0.000 A 
ATOM     19  C   UNL     1       6.513   3.917  11.572  0.00  0.00    +0.000 A 
ATOM     20  C   UNL     1       7.430   4.720  12.252  0.00  0.00    +0.000 A 
ATOM     21  C   UNL     1       7.311   4.907  13.630  0.00  0.00    +0.000 A 
BRANCH  21  22
ATOM     22  O   UNL     1       8.230   5.698  14.257  0.00  0.00    +0.000 OA
ATOM     23  H   UNL     1       9.127   5.418  14.010  0.00  0.00    +0.000 HD
ENDBRANCH  21  22
ENDBRANCH   6  16
TORSDOF 3
ENDMDL
MODEL 3
REMARK VINA RESULT:      -7.6      1.717      2.141
REMARK  Name = 
REMARK  4 active torsions:
REMARK  status: ('A' for Active; 'I' for Inactive)
REMARK    1  A    between atoms: C_1  and  C_2
REMARK    2  A    between atoms: C_6  and  C_7
REMARK    3  A    between atoms: C_12  and  O_13
REMARK    4  A    between atoms: C_15  and  C_16
REMARK                            x       y       z     vdW  Elec       q    Type
REMARK                         _______ _______ _______ _____ _____    ______ ____
ROOT
ATOM      1  C   UNL     1       3.569   7.868  17.316  0.00  0.00    +0.000 C 
ATOM      2  C   UNL     1       3.811   6.609  18.111  0.00  0.00    +0.000 C 
ATOM      3  O   UNL     1       3.537   6.547  19.311  0.00  0.00    +0.000 OA
ATOM      4  N   UNL     1       4.334   5.554  17.387  0.00  0.00    +0.000 N 
ATOM      5  N   UNL     1       4.775   5.712  16.099  0.00  0.00    +0.000 NA
ATOM      6  C   UNL     1       5.320   4.588  15.742  0.00  0.00    +0.000 C 
ATOM      7  C   UNL     1       5.296   3.505  16.788  0.00  0.00    +0.000 C 
ATOM      8  C   UNL     1       4.624   4.236  17.945  0.00  0.00    +0.000 C 
ENDROOT
BRANCH   8   9
ATOM      9  C   UNL     1       3.384   3.502  18.422  0.00  0.00    +0.000 A 
ATOM     10  C   UNL     1       2.494   2.940  17.495  0.00  0.00    +0.000 A 
ATOM     11  C   UNL     1       1.355   2.258  17.929  0.00  0.00    +0.000 A 
ATOM     12  C   UNL     1       1.087   2.138  19.292  0.00  0.00    +0.000 A 
ATOM     13  C   UNL     1       1.961   2.702  20.218  0.00  0.00    +0.000 A 
ATOM     14 BR   UNL     1       1.598   2.558  22.067  0.00  0.00    +0.000 Br
ATOM     15  C   UNL     1       3.104   3.376  19.793  0.00  0.00    +0.000 A 
ENDBRANCH   8   9
BRANCH   6  16
ATOM     16  C   UNL     1       5.921   4.387  14.399  0.00  0.00    +0.000 A 
ATOM     17  C   UNL     1       5.228   3.588  13.479  0.00  0.00    +0.000 A 
ATOM     18  C   UNL     1       5.741   3.364  12.199  0.00  0.00    +0.000 A 
ATOM     19  C   UNL     1       6.954   3.937  11.831  0.00  0.00    +0.000 A 
ATOM     20  C   UNL     1       7.656   4.730  12.739  0.00  0.00    +0.000 A 
ATOM     21  C   UNL     1       7.143   4.955  14.017  0.00  0.00    +0.000 A 
BRANCH  21  22
ATOM     22  O   UNL     1       7.862   5.736  14.875  0.00  0.00    +0.000 OA
ATOM     23  H   UNL     1       8.226   6.499  14.397  0.00  0.00    +0.000 HD
ENDBRANCH  21  22
ENDBRANCH   6  16
TORSDOF 3
ENDMDL
MODEL 4
REMARK VINA RESULT:      -7.5      1.377      1.730
REMARK  Name = 
REMARK  4 active torsions:
REMARK  status: ('A' for Active; 'I' for Inactive)
REMARK    1  A    between atoms: C_1  and  C_2
REMARK    2  A    between atoms: C_6  and  C_7
REMARK    3  A    between atoms: C_12  and  O_13
REMARK    4  A    between atoms: C_15  and  C_16
REMARK                            x       y       z     vdW  Elec       q    Type
REMARK                         _______ _______ _______ _____ _____    ______ ____
ROOT
ATOM      1  C   UNL     1       8.118   5.489  18.780  0.00  0.00    +0.000 C 
ATOM      2  C   UNL     1       6.634   5.253  18.910  0.00  0.00    +0.000 C 
ATOM      3  O   UNL     1       6.076   5.276  20.008  0.00  0.00    +0.000 OA
ATOM      4  N   UNL     1       5.972   5.036  17.715  0.00  0.00    +0.000 N 
ATOM      5  N   UNL     1       6.649   4.858  16.538  0.00  0.00    +0.000 NA
ATOM      6  C   UNL     1       5.767   4.552  15.634  0.00  0.00    +0.000 C 
ATOM      7  C   UNL     1       4.344   4.500  16.122  0.00  0.00    +0.000 C 
ATOM      8  C   UNL     1       4.533   4.812  17.601  0.00  0.00    +0.000 C 
ENDROOT
BRANCH   8   9
ATOM      9  C   UNL     1       3.706   6.010  18.027  0.00  0.00    +0.000 A 
ATOM     10  C   UNL     1       3.707   7.183  17.257  0.00  0.00    +0.000 A 
ATOM     11  C   UNL     1       2.941   8.285  17.641  0.00  0.00    +0.000 A 
ATOM     12  C   UNL     1       2.173   8.235  18.804  0.00  0.00    +0.000 A 
ATOM     13  C   UNL     1       2.174   7.078  19.579  0.00  0.00    +0.000 A 
ATOM     14 BR   UNL     1       1.149   7.004  21.165  0.00  0.00    +0.000 Br
ATOM     15  C   UNL     1       2.929   5.970  19.198  0.00  0.00    +0.000 A 
ENDBRANCH   8   9
BRANCH   6  16
ATOM     16  C   UNL     1       6.138   4.277  14.222  0.00  0.00    +0.000 A 
ATOM     17  C   UNL     1       5.315   3.421  13.478  0.00  0.00    +0.000 A 
ATOM     18  C   UNL     1       5.610   3.126  12.145  0.00  0.00    +0.000 A 
ATOM     19  C   UNL     1       6.734   3.686  11.546  0.00  0.00    +0.000 A 
ATOM     20  C   UNL     1       7.564   4.537  12.276  0.00  0.00    +0.000 A 
ATOM     21  C   UNL     1       7.268   4.832  13.608  0.00  0.00    +0.000 A 
BRANCH  21  22
ATOM     22  O   UNL     1       8.107   5.667  14.287  0.00  0.00    +0.000 OA
ATOM     23  H   UNL     1       8.915   5.814  13.768  0.00  0.00    +0.000 HD
ENDBRANCH  21  22
ENDBRANCH   6  16
TORSDOF 3
ENDMDL
MODEL 5
REMARK VINA RESULT:      -7.3      2.932      6.617
REMARK  Name = 
REMARK  4 active torsions:
REMARK  status: ('A' for Active; 'I' for Inactive)
REMARK    1  A    between atoms: C_1  and  C_2
REMARK    2  A    between atoms: C_6  and  C_7
REMARK    3  A    between atoms: C_12  and  O_13
REMARK    4  A    between atoms: C_15  and  C_16
REMARK                            x       y       z     vdW  Elec       q    Type
REMARK                         _______ _______ _______ _____ _____    ______ ____
ROOT
ATOM      1  C   UNL     1       8.080   5.853  19.229  0.00  0.00    +0.000 C 
ATOM      2  C   UNL     1       7.315   6.173  17.968  0.00  0.00    +0.000 C 
ATOM      3  O   UNL     1       7.818   6.849  17.069  0.00  0.00    +0.000 OA
ATOM      4  N   UNL     1       6.044   5.633  17.906  0.00  0.00    +0.000 N 
ATOM      5  N   UNL     1       5.465   5.026  18.988  0.00  0.00    +0.000 NA
ATOM      6  C   UNL     1       4.240   4.743  18.657  0.00  0.00    +0.000 C 
ATOM      7  C   UNL     1       3.851   5.136  17.257  0.00  0.00    +0.000 C 
ATOM      8  C   UNL     1       5.138   5.792  16.771  0.00  0.00    +0.000 C 
ENDROOT
BRANCH   8   9
ATOM      9  C   UNL     1       5.650   5.140  15.501  0.00  0.00    +0.000 A 
ATOM     10  C   UNL     1       5.089   3.937  15.046  0.00  0.00    +0.000 A 
ATOM     11  C   UNL     1       5.553   3.336  13.873  0.00  0.00    +0.000 A 
ATOM     12  C   UNL     1       6.588   3.924  13.147  0.00  0.00    +0.000 A 
ATOM     13  C   UNL     1       7.156   5.113  13.597  0.00  0.00    +0.000 A 
ATOM     14 BR   UNL     1       8.570   5.909  12.628  0.00  0.00    +0.000 Br
ATOM     15  C   UNL     1       6.693   5.722  14.761  0.00  0.00    +0.000 A 
ENDBRANCH   8   9
BRANCH   6  16
ATOM     16  C   UNL     1       3.296   4.079  19.591  0.00  0.00    +0.000 A 
ATOM     17  C   UNL     1       2.042   4.672  19.795  0.00  0.00    +0.000 A 
ATOM     18  C   UNL     1       1.111   4.093  20.660  0.00  0.00    +0.000 A 
ATOM     19  C   UNL     1       1.429   2.916  21.330  0.00  0.00    +0.000 A 
ATOM     20  C   UNL     1       2.675   2.318  21.140  0.00  0.00    +0.000 A 
ATOM     21  C   UNL     1       3.605   2.897  20.275  0.00  0.00    +0.000 A 
BRANCH  21  22
ATOM     22  O   UNL     1       4.813   2.280  20.119  0.00  0.00    +0.000 OA
ATOM     23  H   UNL     1       5.342   2.758  19.458  0.00  0.00    +0.000 HD
ENDBRANCH  21  22
ENDBRANCH   6  16
TORSDOF 3
ENDMDL
MODEL 6
REMARK VINA RESULT:      -7.2      2.628      6.439
REMARK  Name = 
REMARK  4 active torsions:
REMARK  status: ('A' for Active; 'I' for Inactive)
REMARK    1  A    between atoms: C_1  and  C_2
REMARK    2  A    between atoms: C_6  and  C_7
REMARK    3  A    between atoms: C_12  and  O_13
REMARK    4  A    between atoms: C_15  and  C_16
REMARK                            x       y       z     vdW  Elec       q    Type
REMARK                         _______ _______ _______ _____ _____    ______ ____
ROOT
ATOM      1  C   UNL     1       7.972   6.557  18.897  0.00  0.00    +0.000 C 
ATOM      2  C   UNL     1       7.174   6.656  17.620  0.00  0.00    +0.000 C 
ATOM      3  O   UNL     1       7.577   7.321  16.664  0.00  0.00    +0.000 OA
ATOM      4  N   UNL     1       5.994   5.935  17.613  0.00  0.00    +0.000 N 
ATOM      5  N   UNL     1       5.505   5.343  18.747  0.00  0.00    +0.000 NA
ATOM      6  C   UNL     1       4.336   4.859  18.450  0.00  0.00    +0.000 C 
ATOM      7  C   UNL     1       3.899   5.074  17.026  0.00  0.00    +0.000 C 
ATOM      8  C   UNL     1       5.079   5.866  16.477  0.00  0.00    +0.000 C 
ENDROOT
BRANCH   8   9
ATOM      9  C   UNL     1       5.686   5.191  15.261  0.00  0.00    +0.000 A 
ATOM     10  C   UNL     1       7.079   5.121  15.110  0.00  0.00    +0.000 A 
ATOM     11  C   UNL     1       7.642   4.495  13.996  0.00  0.00    +0.000 A 
ATOM     12  C   UNL     1       6.821   3.940  13.015  0.00  0.00    +0.000 A 
ATOM     13  C   UNL     1       5.437   4.013  13.153  0.00  0.00    +0.000 A 
ATOM     14 BR   UNL     1       4.316   3.278  11.821  0.00  0.00    +0.000 Br
ATOM     15  C   UNL     1       4.868   4.629  14.266  0.00  0.00    +0.000 A 
ENDBRANCH   8   9
BRANCH   6  16
ATOM     16  C   UNL     1       3.494   4.146  19.445  0.00  0.00    +0.000 A 
ATOM     17  C   UNL     1       2.240   4.688  19.758  0.00  0.00    +0.000 A 
ATOM     18  C   UNL     1       1.403   4.062  20.684  0.00  0.00    +0.000 A 
ATOM     19  C   UNL     1       1.815   2.888  21.305  0.00  0.00    +0.000 A 
ATOM     20  C   UNL     1       3.063   2.340  21.006  0.00  0.00    +0.000 A 
ATOM     21  C   UNL     1       3.899   2.966  20.080  0.00  0.00    +0.000 A 
BRANCH  21  22
ATOM     22  O   UNL     1       5.112   2.398  19.817  0.00  0.00    +0.000 OA
ATOM     23  H   UNL     1       5.532   2.853  19.069  0.00  0.00    +0.000 HD
ENDBRANCH  21  22
ENDBRANCH   6  16
TORSDOF 3
ENDMDL
MODEL 7
REMARK VINA RESULT:      -7.1      3.473      7.047
REMARK  Name = 
REMARK  4 active torsions:
REMARK  status: ('A' for Active; 'I' for Inactive)
REMARK    1  A    between atoms: C_1  and  C_2
REMARK    2  A    between atoms: C_6  and  C_7
REMARK    3  A    between atoms: C_12  and  O_13
REMARK    4  A    between atoms: C_15  and  C_16
REMARK                            x       y       z     vdW  Elec       q    Type
REMARK                         _______ _______ _______ _____ _____    ______ ____
ROOT
ATOM      1  C   UNL     1       1.388   2.873  18.255  0.00  0.00    +0.000 C 
ATOM      2  C   UNL     1       2.818   3.190  18.620  0.00  0.00    +0.000 C 
ATOM      3  O   UNL     1       3.656   2.297  18.755  0.00  0.00    +0.000 OA
ATOM      4  N   UNL     1       3.099   4.536  18.761  0.00  0.00    +0.000 N 
ATOM      5  N   UNL     1       2.108   5.482  18.761  0.00  0.00    +0.000 NA
ATOM      6  C   UNL     1       2.670   6.621  19.039  0.00  0.00    +0.000 C 
ATOM      7  C   UNL     1       4.159   6.563  19.255  0.00  0.00    +0.000 C 
ATOM      8  C   UNL     1       4.418   5.071  19.085  0.00  0.00    +0.000 C 
ENDROOT
BRANCH   8   9
ATOM      9  C   UNL     1       5.452   4.805  18.007  0.00  0.00    +0.000 A 
ATOM     10  C   UNL     1       6.817   4.758  18.330  0.00  0.00    +0.000 A 
ATOM     11  C   UNL     1       7.772   4.507  17.343  0.00  0.00    +0.000 A 
ATOM     12  C   UNL     1       7.377   4.309  16.020  0.00  0.00    +0.000 A 
ATOM     13  C   UNL     1       6.026   4.364  15.690  0.00  0.00    +0.000 A 
ATOM     14 BR   UNL     1       5.482   4.113  13.897  0.00  0.00    +0.000 Br
ATOM     15  C   UNL     1       5.066   4.606  16.671  0.00  0.00    +0.000 A 
ENDBRANCH   8   9
BRANCH   6  16
ATOM     16  C   UNL     1       1.898   7.886  19.135  0.00  0.00    +0.000 A 
ATOM     17  C   UNL     1       1.633   8.589  17.951  0.00  0.00    +0.000 A 
ATOM     18  C   UNL     1       0.910   9.783  17.977  0.00  0.00    +0.000 A 
ATOM     19  C   UNL     1       0.447  10.286  19.189  0.00  0.00    +0.000 A 
ATOM     20  C   UNL     1       0.707   9.599  20.375  0.00  0.00    +0.000 A 
ATOM     21  C   UNL     1       1.430   8.404  20.349  0.00  0.00    +0.000 A 
BRANCH  21  22
ATOM     22  O   UNL     1       1.664   7.765  21.532  0.00  0.00    +0.000 OA
ATOM     23  H   UNL     1       0.821   7.588  21.982  0.00  0.00    +0.000 HD
ENDBRANCH  21  22
ENDBRANCH   6  16
TORSDOF 3
ENDMDL
MODEL 8
REMARK VINA RESULT:      -7.0      3.461      6.985
REMARK  Name = 
REMARK  4 active torsions:
REMARK  status: ('A' for Active; 'I' for Inactive)
REMARK    1  A    between atoms: C_1  and  C_2
REMARK    2  A    between atoms: C_6  and  C_7
REMARK    3  A    between atoms: C_12  and  O_13
REMARK    4  A    between atoms: C_15  and  C_16
REMARK                            x       y       z     vdW  Elec       q    Type
REMARK                         _______ _______ _______ _____ _____    ______ ____
ROOT
ATOM      1  C   UNL     1       1.406   2.712  18.343  0.00  0.00    +0.000 C 
ATOM      2  C   UNL     1       2.848   3.012  18.669  0.00  0.00    +0.000 C 
ATOM      3  O   UNL     1       3.694   2.117  18.709  0.00  0.00    +0.000 OA
ATOM      4  N   UNL     1       3.130   4.347  18.889  0.00  0.00    +0.000 N 
ATOM      5  N   UNL     1       2.138   5.285  18.993  0.00  0.00    +0.000 NA
ATOM      6  C   UNL     1       2.707   6.406  19.324  0.00  0.00    +0.000 C 
ATOM      7  C   UNL     1       4.203   6.343  19.473  0.00  0.00    +0.000 C 
ATOM      8  C   UNL     1       4.460   4.868  19.193  0.00  0.00    +0.000 C 
ENDROOT
BRANCH   8   9
ATOM      9  C   UNL     1       5.450   4.681  18.058  0.00  0.00    +0.000 A 
ATOM     10  C   UNL     1       6.830   4.693  18.311  0.00  0.00    +0.000 A 
ATOM     11  C   UNL     1       7.744   4.515  17.271  0.00  0.00    +0.000 A 
ATOM     12  C   UNL     1       7.292   4.332  15.965  0.00  0.00    +0.000 A 
ATOM     13  C   UNL     1       5.925   4.328  15.704  0.00  0.00    +0.000 A 
ATOM     14 BR   UNL     1       5.303   4.096  13.934  0.00  0.00    +0.000 Br
ATOM     15  C   UNL     1       5.006   4.496  16.737  0.00  0.00    +0.000 A 
ENDBRANCH   8   9
BRANCH   6  16
ATOM     16  C   UNL     1       1.935   7.658  19.536  0.00  0.00    +0.000 A 
ATOM     17  C   UNL     1       1.312   7.846  20.778  0.00  0.00    +0.000 A 
ATOM     18  C   UNL     1       0.575   9.003  21.038  0.00  0.00    +0.000 A 
ATOM     19  C   UNL     1       0.453   9.981  20.056  0.00  0.00    +0.000 A 
ATOM     20  C   UNL     1       1.064   9.804  18.814  0.00  0.00    +0.000 A 
ATOM     21  C   UNL     1       1.801   8.647  18.555  0.00  0.00    +0.000 A 
BRANCH  21  22
ATOM     22  O   UNL     1       2.381   8.512  17.326  0.00  0.00    +0.000 OA
ATOM     23  H   UNL     1       3.017   7.778  17.343  0.00  0.00    +0.000 HD
ENDBRANCH  21  22
ENDBRANCH   6  16
TORSDOF 3
ENDMDL
MODEL 9
REMARK VINA RESULT:      -7.0      1.022      1.463
REMARK  Name = 
REMARK  4 active torsions:
REMARK  status: ('A' for Active; 'I' for Inactive)
REMARK    1  A    between atoms: C_1  and  C_2
REMARK    2  A    between atoms: C_6  and  C_7
REMARK    3  A    between atoms: C_12  and  O_13
REMARK    4  A    between atoms: C_15  and  C_16
REMARK                            x       y       z     vdW  Elec       q    Type
REMARK                         _______ _______ _______ _____ _____    ______ ____
ROOT
ATOM      1  C   UNL     1       8.191   6.989  18.604  0.00  0.00    +0.000 C 
ATOM      2  C   UNL     1       7.271   5.827  18.884  0.00  0.00    +0.000 C 
ATOM      3  O   UNL     1       6.988   5.498  20.037  0.00  0.00    +0.000 OA
ATOM      4  N   UNL     1       6.770   5.196  17.760  0.00  0.00    +0.000 N 
ATOM      5  N   UNL     1       7.234   5.488  16.504  0.00  0.00    +0.000 NA
ATOM      6  C   UNL     1       6.668   4.651  15.686  0.00  0.00    +0.000 C 
ATOM      7  C   UNL     1       5.719   3.674  16.327  0.00  0.00    +0.000 C 
ATOM      8  C   UNL     1       5.845   4.067  17.793  0.00  0.00    +0.000 C 
ENDROOT
BRANCH   8   9
ATOM      9  C   UNL     1       4.496   4.418  18.393  0.00  0.00    +0.000 A 
ATOM     10  C   UNL     1       3.753   5.495  17.887  0.00  0.00    +0.000 A 
ATOM     11  C   UNL     1       2.508   5.817  18.431  0.00  0.00    +0.000 A 
ATOM     12  C   UNL     1       1.994   5.074  19.493  0.00  0.00    +0.000 A 
ATOM     13  C   UNL     1       2.729   4.009  20.007  0.00  0.00    +0.000 A 
ATOM     14 BR   UNL     1       2.048   3.006  21.458  0.00  0.00    +0.000 Br
ATOM     15  C   UNL     1       3.968   3.676  19.465  0.00  0.00    +0.000 A 
ENDBRANCH   8   9
BRANCH   6  16
ATOM     16  C   UNL     1       6.939   4.660  14.226  0.00  0.00    +0.000 A 
ATOM     17  C   UNL     1       7.818   5.630  13.724  0.00  0.00    +0.000 A 
ATOM     18  C   UNL     1       8.113   5.688  12.360  0.00  0.00    +0.000 A 
ATOM     19  C   UNL     1       7.530   4.776  11.487  0.00  0.00    +0.000 A 
ATOM     20  C   UNL     1       6.651   3.808  11.973  0.00  0.00    +0.000 A 
ATOM     21  C   UNL     1       6.356   3.750  13.336  0.00  0.00    +0.000 A 
BRANCH  21  22
ATOM     22  O   UNL     1       5.489   2.789  13.769  0.00  0.00    +0.000 OA
ATOM     23  H   UNL     1       5.914   2.249  14.456  0.00  0.00    +0.000 HD
ENDBRANCH  21  22
ENDBRANCH   6  16
TORSDOF 3
ENDMDL
