MODEL 1
REMARK VINA RESULT:      -8.2      0.000      0.000
REMARK  Name = 
REMARK  9 active torsions:
REMARK  status: ('A' for Active; 'I' for Inactive)
REMARK    1  A    between atoms: C_1  and  O_2
REMARK    2  A    between atoms: O_2  and  C_3
REMARK    3  A    between atoms: C_8  and  O_9
REMARK    4  A    between atoms: O_9  and  C_10
REMARK    5  A    between atoms: C_10  and  C_11
REMARK    6  A    between atoms: N_13  and  N_14
REMARK    7  A    between atoms: C_15  and  C_17
REMARK    8  A    between atoms: C_22  and  S_23
REMARK    9  A    between atoms: S_23  and  N_26
REMARK                            x       y       z     vdW  Elec       q    Type
REMARK                         _______ _______ _______ _____ _____    ______ ____
ROOT
ATOM      1  N   UNL     1       2.008   6.874  20.616  0.00  0.00    +0.000 N 
ATOM      2  C   UNL     1       1.608   8.104  20.117  0.00  0.00    +0.000 C 
ATOM      3  O   UNL     1       1.841   8.437  18.954  0.00  0.00    +0.000 OA
ATOM      4  H   UNL     1       1.935   6.571  21.584  0.00  0.00    +0.000 HD
ENDROOT
BRANCH   2   5
ATOM      5  C   UNL     1       0.854   9.042  21.019  0.00  0.00    +0.000 A 
ATOM      6  C   UNL     1       0.163   8.610  22.161  0.00  0.00    +0.000 A 
ATOM      7  C   UNL     1      -0.551   9.527  22.946  0.00  0.00    +0.000 A 
ATOM      8  C   UNL     1      -0.577  10.875  22.595  0.00  0.00    +0.000 A 
ATOM      9  F   UNL     1      -1.284  11.716  23.361  0.00  0.00    +0.000 F 
ATOM     10  C   UNL     1       0.104  11.323  21.470  0.00  0.00    +0.000 A 
ATOM     11  C   UNL     1       0.820  10.413  20.677  0.00  0.00    +0.000 A 
BRANCH  10  12
ATOM     12  S   UNL     1      -0.070  13.036  21.077  0.00  0.00    +0.000 S 
ATOM     13  O   UNL     1      -1.474  13.235  20.768  0.00  0.00    +0.000 OA
ATOM     14  O   UNL     1       0.594  13.790  22.115  0.00  0.00    +0.000 OA
BRANCH  12  15
ATOM     15  N   UNL     1       0.800  13.281  19.628  0.00  0.00    +0.000 NA
ATOM     16  C   UNL     1       2.199  13.804  19.760  0.00  0.00    +0.000 C 
ATOM     17  C   UNL     1       2.229  15.332  19.933  0.00  0.00    +0.000 C 
ATOM     18  O   UNL     1       1.517  16.002  18.883  0.00  0.00    +0.000 OA
ATOM     19  C   UNL     1       0.153  15.564  18.823  0.00  0.00    +0.000 C 
ATOM     20  C   UNL     1       0.078  14.056  18.565  0.00  0.00    +0.000 C 
ENDBRANCH  12  15
ENDBRANCH  10  12
ENDBRANCH   2   5
BRANCH   1  23
ATOM     21  C   UNL     1       2.523   4.622  19.924  0.00  0.00    +0.000 C 
ATOM     22  O   UNL     1       1.680   4.162  20.692  0.00  0.00    +0.000 OA
ATOM     23  N   UNL     1       2.697   5.987  19.756  0.00  0.00    +0.000 N 
ATOM     24  H   UNL     1       3.437   6.394  19.189  0.00  0.00    +0.000 HD
BRANCH  21  25
ATOM     25  C   UNL     1       3.488   3.742  19.101  0.00  0.00    +0.000 C 
BRANCH  25  26
ATOM     26  O   UNL     1       4.805   4.268  19.050  0.00  0.00    +0.000 OA
BRANCH  26  32
ATOM     27  C   UNL     1       6.794   4.571  17.545  0.00  0.00    +0.000 A 
ATOM     28  C   UNL     1       7.236   4.603  16.210  0.00  0.00    +0.000 A 
ATOM     29  C   UNL     1       6.330   4.541  15.151  0.00  0.00    +0.000 A 
ATOM     30  C   UNL     1       4.977   4.388  15.421  0.00  0.00    +0.000 A 
ATOM     31  C   UNL     1       4.537   4.279  16.743  0.00  0.00    +0.000 A 
ATOM     32  C   UNL     1       5.431   4.366  17.826  0.00  0.00    +0.000 A 
BRANCH  27  34
ATOM     33  C   UNL     1       7.849   6.039  19.068  0.00  0.00    +0.000 C 
ATOM     34  O   UNL     1       7.687   4.709  18.574  0.00  0.00    +0.000 OA
ENDBRANCH  27  34
ENDBRANCH  26  32
ENDBRANCH  25  26
ENDBRANCH  21  25
ENDBRANCH   1  23
TORSDOF 8
ENDMDL
MODEL 2
REMARK VINA RESULT:      -8.1      2.604      3.213
REMARK  Name = 
REMARK  9 active torsions:
REMARK  status: ('A' for Active; 'I' for Inactive)
REMARK    1  A    between atoms: C_1  and  O_2
REMARK    2  A    between atoms: O_2  and  C_3
REMARK    3  A    between atoms: C_8  and  O_9
REMARK    4  A    between atoms: O_9  and  C_10
REMARK    5  A    between atoms: C_10  and  C_11
REMARK    6  A    between atoms: N_13  and  N_14
REMARK    7  A    between atoms: C_15  and  C_17
REMARK    8  A    between atoms: C_22  and  S_23
REMARK    9  A    between atoms: S_23  and  N_26
REMARK                            x       y       z     vdW  Elec       q    Type
REMARK                         _______ _______ _______ _____ _____    ______ ____
ROOT
ATOM      1  N   UNL     1       2.122   6.864  20.350  0.00  0.00    +0.000 N 
ATOM      2  C   UNL     1       1.881   8.020  19.622  0.00  0.00    +0.000 C 
ATOM      3  O   UNL     1       2.357   8.187  18.498  0.00  0.00    +0.000 OA
ATOM      4  H   UNL     1       1.842   6.698  21.313  0.00  0.00    +0.000 HD
ENDROOT
BRANCH   2   5
ATOM      5  C   UNL     1       0.998   9.081  20.219  0.00  0.00    +0.000 A 
ATOM      6  C   UNL     1       0.999   9.393  21.586  0.00  0.00    +0.000 A 
ATOM      7  C   UNL     1       0.129  10.370  22.091  0.00  0.00    +0.000 A 
ATOM      8  C   UNL     1      -0.743  11.038  21.234  0.00  0.00    +0.000 A 
ATOM      9  F   UNL     1      -1.570  11.953  21.757  0.00  0.00    +0.000 F 
ATOM     10  C   UNL     1      -0.757  10.747  19.875  0.00  0.00    +0.000 A 
ATOM     11  C   UNL     1       0.110   9.769  19.361  0.00  0.00    +0.000 A 
BRANCH  10  12
ATOM     12  S   UNL     1      -1.961  11.595  18.901  0.00  0.00    +0.000 S 
ATOM     13  O   UNL     1      -2.861  12.232  19.844  0.00  0.00    +0.000 OA
ATOM     14  O   UNL     1      -1.252  12.353  17.896  0.00  0.00    +0.000 OA
BRANCH  12  15
ATOM     15  N   UNL     1      -2.856  10.385  18.094  0.00  0.00    +0.000 NA
ATOM     16  C   UNL     1      -2.338   9.937  16.761  0.00  0.00    +0.000 C 
ATOM     17  C   UNL     1      -2.765  10.885  15.628  0.00  0.00    +0.000 C 
ATOM     18  O   UNL     1      -4.187  11.076  15.600  0.00  0.00    +0.000 OA
ATOM     19  C   UNL     1      -4.664  11.594  16.849  0.00  0.00    +0.000 C 
ATOM     20  C   UNL     1      -4.333  10.633  17.996  0.00  0.00    +0.000 C 
ENDBRANCH  12  15
ENDBRANCH  10  12
ENDBRANCH   2   5
BRANCH   1  23
ATOM     21  C   UNL     1       2.867   4.571  20.283  0.00  0.00    +0.000 C 
ATOM     22  O   UNL     1       2.020   4.242  21.112  0.00  0.00    +0.000 OA
ATOM     23  N   UNL     1       2.934   5.860  19.773  0.00  0.00    +0.000 N 
ATOM     24  H   UNL     1       3.670   6.180  19.148  0.00  0.00    +0.000 HD
BRANCH  21  25
ATOM     25  C   UNL     1       3.950   3.610  19.750  0.00  0.00    +0.000 C 
BRANCH  25  26
ATOM     26  O   UNL     1       5.189   4.257  19.507  0.00  0.00    +0.000 OA
BRANCH  26  32
ATOM     27  C   UNL     1       6.967   4.616  17.769  0.00  0.00    +0.000 A 
ATOM     28  C   UNL     1       7.265   4.561  16.395  0.00  0.00    +0.000 A 
ATOM     29  C   UNL     1       6.271   4.297  15.454  0.00  0.00    +0.000 A 
ATOM     30  C   UNL     1       4.978   4.029  15.885  0.00  0.00    +0.000 A 
ATOM     31  C   UNL     1       4.690   4.008  17.253  0.00  0.00    +0.000 A 
ATOM     32  C   UNL     1       5.672   4.298  18.217  0.00  0.00    +0.000 A 
BRANCH  27  34
ATOM     33  C   UNL     1       8.017   6.339  19.000  0.00  0.00    +0.000 C 
ATOM     34  O   UNL     1       7.938   4.951  18.675  0.00  0.00    +0.000 OA
ENDBRANCH  27  34
ENDBRANCH  26  32
ENDBRANCH  25  26
ENDBRANCH  21  25
ENDBRANCH   1  23
TORSDOF 8
ENDMDL
MODEL 3
REMARK VINA RESULT:      -8.0      3.808     10.466
REMARK  Name = 
REMARK  9 active torsions:
REMARK  status: ('A' for Active; 'I' for Inactive)
REMARK    1  A    between atoms: C_1  and  O_2
REMARK    2  A    between atoms: O_2  and  C_3
REMARK    3  A    between atoms: C_8  and  O_9
REMARK    4  A    between atoms: O_9  and  C_10
REMARK    5  A    between atoms: C_10  and  C_11
REMARK    6  A    between atoms: N_13  and  N_14
REMARK    7  A    between atoms: C_15  and  C_17
REMARK    8  A    between atoms: C_22  and  S_23
REMARK    9  A    between atoms: S_23  and  N_26
REMARK                            x       y       z     vdW  Elec       q    Type
REMARK                         _______ _______ _______ _____ _____    ______ ____
ROOT
ATOM      1  N   UNL     1       1.486   8.311  21.420  0.00  0.00    +0.000 N 
ATOM      2  C   UNL     1       1.769   7.770  20.174  0.00  0.00    +0.000 C 
ATOM      3  O   UNL     1       1.688   8.442  19.144  0.00  0.00    +0.000 OA
ATOM      4  H   UNL     1       1.441   7.797  22.295  0.00  0.00    +0.000 HD
ENDROOT
BRANCH   2   5
ATOM      5  C   UNL     1       2.203   6.333  20.090  0.00  0.00    +0.000 A 
ATOM      6  C   UNL     1       1.736   5.342  20.965  0.00  0.00    +0.000 A 
ATOM      7  C   UNL     1       2.203   4.024  20.859  0.00  0.00    +0.000 A 
ATOM      8  C   UNL     1       3.137   3.692  19.880  0.00  0.00    +0.000 A 
ATOM      9  F   UNL     1       3.570   2.425  19.822  0.00  0.00    +0.000 F 
ATOM     10  C   UNL     1       3.609   4.657  19.000  0.00  0.00    +0.000 A 
ATOM     11  C   UNL     1       3.148   5.980  19.100  0.00  0.00    +0.000 A 
BRANCH  10  12
ATOM     12  S   UNL     1       4.851   4.139  17.856  0.00  0.00    +0.000 S 
ATOM     13  O   UNL     1       6.088   4.073  18.613  0.00  0.00    +0.000 OA
ATOM     14  O   UNL     1       4.334   2.994  17.143  0.00  0.00    +0.000 OA
BRANCH  12  15
ATOM     15  N   UNL     1       5.021   5.411  16.730  0.00  0.00    +0.000 NA
ATOM     16  C   UNL     1       5.421   5.031  15.336  0.00  0.00    +0.000 C 
ATOM     17  C   UNL     1       6.941   4.832  15.207  0.00  0.00    +0.000 C 
ATOM     18  O   UNL     1       7.670   5.978  15.668  0.00  0.00    +0.000 OA
ATOM     19  C   UNL     1       7.352   6.280  17.033  0.00  0.00    +0.000 C 
ATOM     20  C   UNL     1       5.856   6.571  17.189  0.00  0.00    +0.000 C 
ENDBRANCH  12  15
ENDBRANCH  10  12
ENDBRANCH   2   5
BRANCH   1  23
ATOM     21  C   UNL     1      -0.002  10.010  22.265  0.00  0.00    +0.000 C 
ATOM     22  O   UNL     1      -0.559   9.197  23.000  0.00  0.00    +0.000 OA
ATOM     23  N   UNL     1       1.101   9.669  21.495  0.00  0.00    +0.000 N 
ATOM     24  H   UNL     1       1.532  10.298  20.821  0.00  0.00    +0.000 HD
BRANCH  21  25
ATOM     25  C   UNL     1      -0.480  11.467  22.097  0.00  0.00    +0.000 C 
BRANCH  25  26
ATOM     26  O   UNL     1      -0.710  12.118  23.338  0.00  0.00    +0.000 OA
BRANCH  26  32
ATOM     27  C   UNL     1      -1.796  14.350  23.719  0.00  0.00    +0.000 A 
ATOM     28  C   UNL     1      -3.018  15.048  23.753  0.00  0.00    +0.000 A 
ATOM     29  C   UNL     1      -4.233  14.376  23.628  0.00  0.00    +0.000 A 
ATOM     30  C   UNL     1      -4.234  13.005  23.410  0.00  0.00    +0.000 A 
ATOM     31  C   UNL     1      -3.023  12.315  23.299  0.00  0.00    +0.000 A 
ATOM     32  C   UNL     1      -1.787  12.970  23.449  0.00  0.00    +0.000 A 
BRANCH  27  34
ATOM     33  C   UNL     1      -0.716  16.435  23.988  0.00  0.00    +0.000 C 
ATOM     34  O   UNL     1      -0.615  15.013  23.919  0.00  0.00    +0.000 OA
ENDBRANCH  27  34
ENDBRANCH  26  32
ENDBRANCH  25  26
ENDBRANCH  21  25
ENDBRANCH   1  23
TORSDOF 8
ENDMDL
MODEL 4
REMARK VINA RESULT:      -7.9      3.658      9.764
REMARK  Name = 
REMARK  9 active torsions:
REMARK  status: ('A' for Active; 'I' for Inactive)
REMARK    1  A    between atoms: C_1  and  O_2
REMARK    2  A    between atoms: O_2  and  C_3
REMARK    3  A    between atoms: C_8  and  O_9
REMARK    4  A    between atoms: O_9  and  C_10
REMARK    5  A    between atoms: C_10  and  C_11
REMARK    6  A    between atoms: N_13  and  N_14
REMARK    7  A    between atoms: C_15  and  C_17
REMARK    8  A    between atoms: C_22  and  S_23
REMARK    9  A    between atoms: S_23  and  N_26
REMARK                            x       y       z     vdW  Elec       q    Type
REMARK                         _______ _______ _______ _____ _____    ______ ____
ROOT
ATOM      1  N   UNL     1       1.176   8.916  20.965  0.00  0.00    +0.000 N 
ATOM      2  C   UNL     1       1.720   8.250  19.877  0.00  0.00    +0.000 C 
ATOM      3  O   UNL     1       2.017   8.842  18.838  0.00  0.00    +0.000 OA
ATOM      4  H   UNL     1       0.822   8.481  21.813  0.00  0.00    +0.000 HD
ENDROOT
BRANCH   2   5
ATOM      5  C   UNL     1       1.969   6.770  19.984  0.00  0.00    +0.000 A 
ATOM      6  C   UNL     1       1.270   5.942  20.874  0.00  0.00    +0.000 A 
ATOM      7  C   UNL     1       1.571   4.574  20.953  0.00  0.00    +0.000 A 
ATOM      8  C   UNL     1       2.567   4.030  20.144  0.00  0.00    +0.000 A 
ATOM      9  F   UNL     1       2.834   2.723  20.262  0.00  0.00    +0.000 F 
ATOM     10  C   UNL     1       3.267   4.833  19.253  0.00  0.00    +0.000 A 
ATOM     11  C   UNL     1       2.975   6.204  19.168  0.00  0.00    +0.000 A 
BRANCH  10  12
ATOM     12  S   UNL     1       4.563   4.052  18.342  0.00  0.00    +0.000 S 
ATOM     13  O   UNL     1       5.475   3.508  19.331  0.00  0.00    +0.000 OA
ATOM     14  O   UNL     1       3.946   3.217  17.338  0.00  0.00    +0.000 OA
BRANCH  12  15
ATOM     15  N   UNL     1       5.394   5.303  17.530  0.00  0.00    +0.000 NA
ATOM     16  C   UNL     1       5.439   5.225  16.034  0.00  0.00    +0.000 C 
ATOM     17  C   UNL     1       6.550   4.285  15.539  0.00  0.00    +0.000 C 
ATOM     18  O   UNL     1       7.830   4.639  16.083  0.00  0.00    +0.000 OA
ATOM     19  C   UNL     1       7.805   4.621  17.516  0.00  0.00    +0.000 C 
ATOM     20  C   UNL     1       6.767   5.611  18.053  0.00  0.00    +0.000 C 
ENDBRANCH  12  15
ENDBRANCH  10  12
ENDBRANCH   2   5
BRANCH   1  23
ATOM     21  C   UNL     1      -0.059  10.886  21.603  0.00  0.00    +0.000 C 
ATOM     22  O   UNL     1      -0.689  10.253  22.450  0.00  0.00    +0.000 OA
ATOM     23  N   UNL     1       0.965  10.311  20.866  0.00  0.00    +0.000 N 
ATOM     24  H   UNL     1       1.448  10.786  20.108  0.00  0.00    +0.000 HD
BRANCH  21  25
ATOM     25  C   UNL     1      -0.358  12.359  21.253  0.00  0.00    +0.000 C 
BRANCH  25  26
ATOM     26  O   UNL     1      -0.777  12.531  19.907  0.00  0.00    +0.000 OA
BRANCH  26  32
ATOM     27  C   UNL     1      -2.665  11.727  18.459  0.00  0.00    +0.000 A 
ATOM     28  C   UNL     1      -4.061  11.592  18.354  0.00  0.00    +0.000 A 
ATOM     29  C   UNL     1      -4.911  12.142  19.313  0.00  0.00    +0.000 A 
ATOM     30  C   UNL     1      -4.367  12.786  20.416  0.00  0.00    +0.000 A 
ATOM     31  C   UNL     1      -2.979  12.859  20.567  0.00  0.00    +0.000 A 
ATOM     32  C   UNL     1      -2.105  12.334  19.598  0.00  0.00    +0.000 A 
BRANCH  27  34
ATOM     33  C   UNL     1      -1.332   9.934  17.688  0.00  0.00    +0.000 C 
ATOM     34  O   UNL     1      -1.847  11.248  17.471  0.00  0.00    +0.000 OA
ENDBRANCH  27  34
ENDBRANCH  26  32
ENDBRANCH  25  26
ENDBRANCH  21  25
ENDBRANCH   1  23
TORSDOF 8
ENDMDL
MODEL 5
REMARK VINA RESULT:      -7.9      3.390      9.306
REMARK  Name = 
REMARK  9 active torsions:
REMARK  status: ('A' for Active; 'I' for Inactive)
REMARK    1  A    between atoms: C_1  and  O_2
REMARK    2  A    between atoms: O_2  and  C_3
REMARK    3  A    between atoms: C_8  and  O_9
REMARK    4  A    between atoms: O_9  and  C_10
REMARK    5  A    between atoms: C_10  and  C_11
REMARK    6  A    between atoms: N_13  and  N_14
REMARK    7  A    between atoms: C_15  and  C_17
REMARK    8  A    between atoms: C_22  and  S_23
REMARK    9  A    between atoms: S_23  and  N_26
REMARK                            x       y       z     vdW  Elec       q    Type
REMARK                         _______ _______ _______ _____ _____    ______ ____
ROOT
ATOM      1  N   UNL     1       1.420   8.225  21.643  0.00  0.00    +0.000 N 
ATOM      2  C   UNL     1       1.701   7.766  20.365  0.00  0.00    +0.000 C 
ATOM      3  O   UNL     1       1.642   8.508  19.384  0.00  0.00    +0.000 OA
ATOM      4  H   UNL     1       1.358   7.652  22.481  0.00  0.00    +0.000 HD
ENDROOT
BRANCH   2   5
ATOM      5  C   UNL     1       2.107   6.329  20.184  0.00  0.00    +0.000 A 
ATOM      6  C   UNL     1       1.556   5.280  20.935  0.00  0.00    +0.000 A 
ATOM      7  C   UNL     1       1.999   3.963  20.745  0.00  0.00    +0.000 A 
ATOM      8  C   UNL     1       2.991   3.689  19.806  0.00  0.00    +0.000 A 
ATOM      9  F   UNL     1       3.398   2.421  19.666  0.00  0.00    +0.000 F 
ATOM     10  C   UNL     1       3.546   4.713  19.048  0.00  0.00    +0.000 A 
ATOM     11  C   UNL     1       3.110   6.035  19.233  0.00  0.00    +0.000 A 
BRANCH  10  12
ATOM     12  S   UNL     1       4.853   4.259  17.950  0.00  0.00    +0.000 S 
ATOM     13  O   UNL     1       6.059   4.228  18.756  0.00  0.00    +0.000 OA
ATOM     14  O   UNL     1       4.409   3.107  17.200  0.00  0.00    +0.000 OA
BRANCH  12  15
ATOM     15  N   UNL     1       5.020   5.554  16.849  0.00  0.00    +0.000 NA
ATOM     16  C   UNL     1       5.375   5.199  15.437  0.00  0.00    +0.000 C 
ATOM     17  C   UNL     1       6.886   4.972  15.262  0.00  0.00    +0.000 C 
ATOM     18  O   UNL     1       7.651   6.092  15.729  0.00  0.00    +0.000 OA
ATOM     19  C   UNL     1       7.375   6.368  17.109  0.00  0.00    +0.000 C 
ATOM     20  C   UNL     1       5.890   6.686  17.312  0.00  0.00    +0.000 C 
ENDBRANCH  12  15
ENDBRANCH  10  12
ENDBRANCH   2   5
BRANCH   1  23
ATOM     21  C   UNL     1      -0.097   9.887  22.509  0.00  0.00    +0.000 C 
ATOM     22  O   UNL     1      -0.738   9.029  23.115  0.00  0.00    +0.000 OA
ATOM     23  N   UNL     1       1.062   9.582  21.810  0.00  0.00    +0.000 N 
ATOM     24  H   UNL     1       1.566  10.255  21.237  0.00  0.00    +0.000 HD
BRANCH  21  25
ATOM     25  C   UNL     1      -0.524  11.368  22.436  0.00  0.00    +0.000 C 
BRANCH  25  26
ATOM     26  O   UNL     1      -1.217  11.683  21.237  0.00  0.00    +0.000 OA
BRANCH  26  32
ATOM     27  C   UNL     1      -0.925  12.726  18.971  0.00  0.00    +0.000 A 
ATOM     28  C   UNL     1      -0.205  13.674  18.222  0.00  0.00    +0.000 A 
ATOM     29  C   UNL     1       0.883  14.351  18.774  0.00  0.00    +0.000 A 
ATOM     30  C   UNL     1       1.224  14.125  20.100  0.00  0.00    +0.000 A 
ATOM     31  C   UNL     1       0.467  13.240  20.874  0.00  0.00    +0.000 A 
ATOM     32  C   UNL     1      -0.617  12.528  20.329  0.00  0.00    +0.000 A 
BRANCH  27  34
ATOM     33  C   UNL     1      -1.581  10.725  17.898  0.00  0.00    +0.000 C 
ATOM     34  O   UNL     1      -1.942  12.014  18.393  0.00  0.00    +0.000 OA
ENDBRANCH  27  34
ENDBRANCH  26  32
ENDBRANCH  25  26
ENDBRANCH  21  25
ENDBRANCH   1  23
TORSDOF 8
ENDMDL
MODEL 6
REMARK VINA RESULT:      -7.9      3.719      9.569
REMARK  Name = 
REMARK  9 active torsions:
REMARK  status: ('A' for Active; 'I' for Inactive)
REMARK    1  A    between atoms: C_1  and  O_2
REMARK    2  A    between atoms: O_2  and  C_3
REMARK    3  A    between atoms: C_8  and  O_9
REMARK    4  A    between atoms: O_9  and  C_10
REMARK    5  A    between atoms: C_10  and  C_11
REMARK    6  A    between atoms: N_13  and  N_14
REMARK    7  A    between atoms: C_15  and  C_17
REMARK    8  A    between atoms: C_22  and  S_23
REMARK    9  A    between atoms: S_23  and  N_26
REMARK                            x       y       z     vdW  Elec       q    Type
REMARK                         _______ _______ _______ _____ _____    ______ ____
ROOT
ATOM      1  N   UNL     1       1.534   8.533  19.308  0.00  0.00    +0.000 N 
ATOM      2  C   UNL     1       1.627   7.703  20.415  0.00  0.00    +0.000 C 
ATOM      3  O   UNL     1       1.368   8.107  21.549  0.00  0.00    +0.000 OA
ATOM      4  H   UNL     1       1.820   8.297  18.361  0.00  0.00    +0.000 HD
ENDROOT
BRANCH   2   5
ATOM      5  C   UNL     1       2.037   6.270  20.214  0.00  0.00    +0.000 A 
ATOM      6  C   UNL     1       1.488   5.209  20.949  0.00  0.00    +0.000 A 
ATOM      7  C   UNL     1       1.936   3.897  20.741  0.00  0.00    +0.000 A 
ATOM      8  C   UNL     1       2.929   3.639  19.799  0.00  0.00    +0.000 A 
ATOM      9  F   UNL     1       3.340   2.374  19.641  0.00  0.00    +0.000 F 
ATOM     10  C   UNL     1       3.482   4.675  19.057  0.00  0.00    +0.000 A 
ATOM     11  C   UNL     1       3.043   5.993  19.260  0.00  0.00    +0.000 A 
BRANCH  10  12
ATOM     12  S   UNL     1       4.792   4.241  17.954  0.00  0.00    +0.000 S 
ATOM     13  O   UNL     1       5.991   4.164  18.768  0.00  0.00    +0.000 OA
ATOM     14  O   UNL     1       4.339   3.122  17.160  0.00  0.00    +0.000 OA
BRANCH  12  15
ATOM     15  N   UNL     1       4.987   5.571  16.901  0.00  0.00    +0.000 NA
ATOM     16  C   UNL     1       5.371   5.262  15.486  0.00  0.00    +0.000 C 
ATOM     17  C   UNL     1       6.885   5.034  15.336  0.00  0.00    +0.000 C 
ATOM     18  O   UNL     1       7.644   6.135  15.856  0.00  0.00    +0.000 OA
ATOM     19  C   UNL     1       7.340   6.366  17.238  0.00  0.00    +0.000 C 
ATOM     20  C   UNL     1       5.852   6.683  17.420  0.00  0.00    +0.000 C 
ENDBRANCH  12  15
ENDBRANCH  10  12
ENDBRANCH   2   5
BRANCH   1  23
ATOM     21  C   UNL     1       1.546  10.837  18.596  0.00  0.00    +0.000 C 
ATOM     22  O   UNL     1       2.132  10.543  17.555  0.00  0.00    +0.000 OA
ATOM     23  N   UNL     1       1.126   9.873  19.500  0.00  0.00    +0.000 N 
ATOM     24  H   UNL     1       0.711  10.092  20.403  0.00  0.00    +0.000 HD
BRANCH  21  25
ATOM     25  C   UNL     1       1.248  12.291  19.017  0.00  0.00    +0.000 C 
BRANCH  25  26
ATOM     26  O   UNL     1       0.178  12.869  18.282  0.00  0.00    +0.000 OA
BRANCH  26  32
ATOM     27  C   UNL     1      -2.115  11.863  18.081  0.00  0.00    +0.000 A 
ATOM     28  C   UNL     1      -3.370  11.720  18.700  0.00  0.00    +0.000 A 
ATOM     29  C   UNL     1      -3.678  12.415  19.869  0.00  0.00    +0.000 A 
ATOM     30  C   UNL     1      -2.711  13.216  20.461  0.00  0.00    +0.000 A 
ATOM     31  C   UNL     1      -1.437  13.305  19.893  0.00  0.00    +0.000 A 
ATOM     32  C   UNL     1      -1.114  12.633  18.700  0.00  0.00    +0.000 A 
BRANCH  27  34
ATOM     33  C   UNL     1      -3.000  10.770  16.181  0.00  0.00    +0.000 C 
ATOM     34  O   UNL     1      -1.853  11.234  16.893  0.00  0.00    +0.000 OA
ENDBRANCH  27  34
ENDBRANCH  26  32
ENDBRANCH  25  26
ENDBRANCH  21  25
ENDBRANCH   1  23
TORSDOF 8
ENDMDL
MODEL 7
REMARK VINA RESULT:      -7.9      3.446      9.564
REMARK  Name = 
REMARK  9 active torsions:
REMARK  status: ('A' for Active; 'I' for Inactive)
REMARK    1  A    between atoms: C_1  and  O_2
REMARK    2  A    between atoms: O_2  and  C_3
REMARK    3  A    between atoms: C_8  and  O_9
REMARK    4  A    between atoms: O_9  and  C_10
REMARK    5  A    between atoms: C_10  and  C_11
REMARK    6  A    between atoms: N_13  and  N_14
REMARK    7  A    between atoms: C_15  and  C_17
REMARK    8  A    between atoms: C_22  and  S_23
REMARK    9  A    between atoms: S_23  and  N_26
REMARK                            x       y       z     vdW  Elec       q    Type
REMARK                         _______ _______ _______ _____ _____    ______ ____
ROOT
ATOM      1  N   UNL     1       1.760   8.304  19.409  0.00  0.00    +0.000 N 
ATOM      2  C   UNL     1       1.532   7.383  20.420  0.00  0.00    +0.000 C 
ATOM      3  O   UNL     1       0.891   7.677  21.430  0.00  0.00    +0.000 OA
ATOM      4  H   UNL     1       2.355   8.163  18.597  0.00  0.00    +0.000 HD
ENDROOT
BRANCH   2   5
ATOM      5  C   UNL     1       2.069   5.987  20.262  0.00  0.00    +0.000 A 
ATOM      6  C   UNL     1       1.657   4.915  21.068  0.00  0.00    +0.000 A 
ATOM      7  C   UNL     1       2.218   3.642  20.896  0.00  0.00    +0.000 A 
ATOM      8  C   UNL     1       3.191   3.434  19.920  0.00  0.00    +0.000 A 
ATOM      9  F   UNL     1       3.714   2.207  19.798  0.00  0.00    +0.000 F 
ATOM     10  C   UNL     1       3.609   4.481  19.108  0.00  0.00    +0.000 A 
ATOM     11  C   UNL     1       3.054   5.760  19.275  0.00  0.00    +0.000 A 
BRANCH  10  12
ATOM     12  S   UNL     1       4.906   4.120  17.965  0.00  0.00    +0.000 S 
ATOM     13  O   UNL     1       6.129   4.088  18.744  0.00  0.00    +0.000 OA
ATOM     14  O   UNL     1       4.481   2.991  17.169  0.00  0.00    +0.000 OA
BRANCH  12  15
ATOM     15  N   UNL     1       5.011   5.470  16.924  0.00  0.00    +0.000 NA
ATOM     16  C   UNL     1       5.357   5.194  15.492  0.00  0.00    +0.000 C 
ATOM     17  C   UNL     1       6.872   5.028  15.286  0.00  0.00    +0.000 C 
ATOM     18  O   UNL     1       7.605   6.151  15.796  0.00  0.00    +0.000 OA
ATOM     19  C   UNL     1       7.341   6.353  17.190  0.00  0.00    +0.000 C 
ATOM     20  C   UNL     1       5.849   6.608  17.428  0.00  0.00    +0.000 C 
ENDBRANCH  12  15
ENDBRANCH  10  12
ENDBRANCH   2   5
BRANCH   1  23
ATOM     21  C   UNL     1       1.489  10.546  18.563  0.00  0.00    +0.000 C 
ATOM     22  O   UNL     1       2.027  10.241  17.500  0.00  0.00    +0.000 OA
ATOM     23  N   UNL     1       1.233   9.609  19.553  0.00  0.00    +0.000 N 
ATOM     24  H   UNL     1       0.862   9.846  20.470  0.00  0.00    +0.000 HD
BRANCH  21  25
ATOM     25  C   UNL     1       1.076  11.990  18.919  0.00  0.00    +0.000 C 
BRANCH  25  26
ATOM     26  O   UNL     1       1.535  12.394  20.200  0.00  0.00    +0.000 OA
BRANCH  26  32
ATOM     27  C   UNL     1      -0.258  12.185  21.947  0.00  0.00    +0.000 A 
ATOM     28  C   UNL     1      -1.093  12.890  22.832  0.00  0.00    +0.000 A 
ATOM     29  C   UNL     1      -1.144  14.284  22.817  0.00  0.00    +0.000 A 
ATOM     30  C   UNL     1      -0.315  14.986  21.953  0.00  0.00    +0.000 A 
ATOM     31  C   UNL     1       0.574  14.296  21.124  0.00  0.00    +0.000 A 
ATOM     32  C   UNL     1       0.621  12.890  21.104  0.00  0.00    +0.000 A 
BRANCH  27  34
ATOM     33  C   UNL     1      -0.788  10.189  23.096  0.00  0.00    +0.000 C 
ATOM     34  O   UNL     1      -0.275  10.816  21.921  0.00  0.00    +0.000 OA
ENDBRANCH  27  34
ENDBRANCH  26  32
ENDBRANCH  25  26
ENDBRANCH  21  25
ENDBRANCH   1  23
TORSDOF 8
ENDMDL
MODEL 8
REMARK VINA RESULT:      -7.9      5.787     10.259
REMARK  Name = 
REMARK  9 active torsions:
REMARK  status: ('A' for Active; 'I' for Inactive)
REMARK    1  A    between atoms: C_1  and  O_2
REMARK    2  A    between atoms: O_2  and  C_3
REMARK    3  A    between atoms: C_8  and  O_9
REMARK    4  A    between atoms: O_9  and  C_10
REMARK    5  A    between atoms: C_10  and  C_11
REMARK    6  A    between atoms: N_13  and  N_14
REMARK    7  A    between atoms: C_15  and  C_17
REMARK    8  A    between atoms: C_22  and  S_23
REMARK    9  A    between atoms: S_23  and  N_26
REMARK                            x       y       z     vdW  Elec       q    Type
REMARK                         _______ _______ _______ _____ _____    ______ ____
ROOT
ATOM      1  N   UNL     1       8.021   8.071  18.097  0.00  0.00    +0.000 N 
ATOM      2  C   UNL     1       7.823   6.740  18.434  0.00  0.00    +0.000 C 
ATOM      3  O   UNL     1       8.343   6.242  19.433  0.00  0.00    +0.000 OA
ATOM      4  H   UNL     1       7.704   8.523  17.244  0.00  0.00    +0.000 HD
ENDROOT
BRANCH   2   5
ATOM      5  C   UNL     1       6.935   5.896  17.561  0.00  0.00    +0.000 A 
ATOM      6  C   UNL     1       7.180   5.691  16.196  0.00  0.00    +0.000 A 
ATOM      7  C   UNL     1       6.297   4.921  15.425  0.00  0.00    +0.000 A 
ATOM      8  C   UNL     1       5.169   4.354  16.014  0.00  0.00    +0.000 A 
ATOM      9  F   UNL     1       4.341   3.639  15.240  0.00  0.00    +0.000 F 
ATOM     10  C   UNL     1       4.910   4.542  17.366  0.00  0.00    +0.000 A 
ATOM     11  C   UNL     1       5.788   5.313  18.145  0.00  0.00    +0.000 A 
BRANCH  10  12
ATOM     12  S   UNL     1       3.408   3.848  17.984  0.00  0.00    +0.000 S 
ATOM     13  O   UNL     1       2.347   4.732  17.540  0.00  0.00    +0.000 OA
ATOM     14  O   UNL     1       3.413   2.441  17.655  0.00  0.00    +0.000 OA
BRANCH  12  15
ATOM     15  N   UNL     1       3.489   3.977  19.684  0.00  0.00    +0.000 NA
ATOM     16  C   UNL     1       3.374   2.703  20.466  0.00  0.00    +0.000 C 
ATOM     17  C   UNL     1       1.910   2.273  20.656  0.00  0.00    +0.000 C 
ATOM     18  O   UNL     1       1.119   3.319  21.240  0.00  0.00    +0.000 OA
ATOM     19  C   UNL     1       1.159   4.507  20.438  0.00  0.00    +0.000 C 
ATOM     20  C   UNL     1       2.596   5.017  20.295  0.00  0.00    +0.000 C 
ENDBRANCH  12  15
ENDBRANCH  10  12
ENDBRANCH   2   5
BRANCH   1  23
ATOM     21  C   UNL     1       9.002  10.208  18.630  0.00  0.00    +0.000 C 
ATOM     22  O   UNL     1       8.343  10.763  17.751  0.00  0.00    +0.000 OA
ATOM     23  N   UNL     1       8.838   8.865  18.934  0.00  0.00    +0.000 N 
ATOM     24  H   UNL     1       9.422   8.364  19.599  0.00  0.00    +0.000 HD
BRANCH  21  25
ATOM     25  C   UNL     1      10.087  10.930  19.456  0.00  0.00    +0.000 C 
BRANCH  25  26
ATOM     26  O   UNL     1       9.659  12.191  19.946  0.00  0.00    +0.000 OA
BRANCH  26  32
ATOM     27  C   UNL     1       9.692  14.270  18.537  0.00  0.00    +0.000 A 
ATOM     28  C   UNL     1      10.445  15.398  18.162  0.00  0.00    +0.000 A 
ATOM     29  C   UNL     1      11.766  15.551  18.579  0.00  0.00    +0.000 A 
ATOM     30  C   UNL     1      12.328  14.603  19.424  0.00  0.00    +0.000 A 
ATOM     31  C   UNL     1      11.563  13.519  19.863  0.00  0.00    +0.000 A 
ATOM     32  C   UNL     1      10.236  13.332  19.432  0.00  0.00    +0.000 A 
BRANCH  27  34
ATOM     33  C   UNL     1       7.659  15.293  17.896  0.00  0.00    +0.000 C 
ATOM     34  O   UNL     1       8.421  14.096  18.058  0.00  0.00    +0.000 OA
ENDBRANCH  27  34
ENDBRANCH  26  32
ENDBRANCH  25  26
ENDBRANCH  21  25
ENDBRANCH   1  23
TORSDOF 8
ENDMDL
MODEL 9
REMARK VINA RESULT:      -7.8      1.028      1.384
REMARK  Name = 
REMARK  9 active torsions:
REMARK  status: ('A' for Active; 'I' for Inactive)
REMARK    1  A    between atoms: C_1  and  O_2
REMARK    2  A    between atoms: O_2  and  C_3
REMARK    3  A    between atoms: C_8  and  O_9
REMARK    4  A    between atoms: O_9  and  C_10
REMARK    5  A    between atoms: C_10  and  C_11
REMARK    6  A    between atoms: N_13  and  N_14
REMARK    7  A    between atoms: C_15  and  C_17
REMARK    8  A    between atoms: C_22  and  S_23
REMARK    9  A    between atoms: S_23  and  N_26
REMARK                            x       y       z     vdW  Elec       q    Type
REMARK                         _______ _______ _______ _____ _____    ______ ____
ROOT
ATOM      1  N   UNL     1       2.388   6.676  20.573  0.00  0.00    +0.000 N 
ATOM      2  C   UNL     1       1.926   7.814  19.927  0.00  0.00    +0.000 C 
ATOM      3  O   UNL     1       2.176   8.030  18.741  0.00  0.00    +0.000 OA
ATOM      4  H   UNL     1       2.302   6.479  21.566  0.00  0.00    +0.000 HD
ENDROOT
BRANCH   2   5
ATOM      5  C   UNL     1       1.084   8.792  20.698  0.00  0.00    +0.000 A 
ATOM      6  C   UNL     1       0.712   8.591  22.035  0.00  0.00    +0.000 A 
ATOM      7  C   UNL     1      -0.104   9.523  22.692  0.00  0.00    +0.000 A 
ATOM      8  C   UNL     1      -0.550  10.658  22.018  0.00  0.00    +0.000 A 
ATOM      9  F   UNL     1      -1.341  11.516  22.675  0.00  0.00    +0.000 F 
ATOM     10  C   UNL     1      -0.189  10.879  20.695  0.00  0.00    +0.000 A 
ATOM     11  C   UNL     1       0.626   9.950  20.028  0.00  0.00    +0.000 A 
BRANCH  10  12
ATOM     12  S   UNL     1      -0.881  12.306  19.918  0.00  0.00    +0.000 S 
ATOM     13  O   UNL     1      -0.376  12.306  18.558  0.00  0.00    +0.000 OA
ATOM     14  O   UNL     1      -2.297  12.312  20.203  0.00  0.00    +0.000 OA
BRANCH  12  15
ATOM     15  N   UNL     1      -0.194  13.656  20.706  0.00  0.00    +0.000 NA
ATOM     16  C   UNL     1      -0.921  14.960  20.572  0.00  0.00    +0.000 C 
ATOM     17  C   UNL     1      -0.587  15.672  19.250  0.00  0.00    +0.000 C 
ATOM     18  O   UNL     1       0.827  15.841  19.078  0.00  0.00    +0.000 OA
ATOM     19  C   UNL     1       1.507  14.579  19.115  0.00  0.00    +0.000 C 
ATOM     20  C   UNL     1       1.269  13.874  20.454  0.00  0.00    +0.000 C 
ENDBRANCH  12  15
ENDBRANCH  10  12
ENDBRANCH   2   5
BRANCH   1  23
ATOM     21  C   UNL     1       2.566   4.568  19.416  0.00  0.00    +0.000 C 
ATOM     22  O   UNL     1       1.357   4.370  19.529  0.00  0.00    +0.000 OA
ATOM     23  N   UNL     1       3.161   5.748  19.836  0.00  0.00    +0.000 N 
ATOM     24  H   UNL     1       4.166   5.907  19.827  0.00  0.00    +0.000 HD
BRANCH  21  25
ATOM     25  C   UNL     1       3.543   3.527  18.830  0.00  0.00    +0.000 C 
BRANCH  25  26
ATOM     26  O   UNL     1       4.896   3.953  18.877  0.00  0.00    +0.000 OA
BRANCH  26  32
ATOM     27  C   UNL     1       6.899   4.539  17.480  0.00  0.00    +0.000 A 
ATOM     28  C   UNL     1       7.374   4.740  16.171  0.00  0.00    +0.000 A 
ATOM     29  C   UNL     1       6.504   4.734  15.082  0.00  0.00    +0.000 A 
ATOM     30  C   UNL     1       5.157   4.468  15.287  0.00  0.00    +0.000 A 
ATOM     31  C   UNL     1       4.690   4.192  16.576  0.00  0.00    +0.000 A 
ATOM     32  C   UNL     1       5.546   4.220  17.691  0.00  0.00    +0.000 A 
BRANCH  27  34
ATOM     33  C   UNL     1       7.826   5.905  19.172  0.00  0.00    +0.000 C 
ATOM     34  O   UNL     1       7.754   4.624  18.547  0.00  0.00    +0.000 OA
ENDBRANCH  27  34
ENDBRANCH  26  32
ENDBRANCH  25  26
ENDBRANCH  21  25
ENDBRANCH   1  23
TORSDOF 8
ENDMDL
