MODEL 1
REMARK VINA RESULT:      -8.1      0.000      0.000
REMARK  Name = 
REMARK  5 active torsions:
REMARK  status: ('A' for Active; 'I' for Inactive)
REMARK    1  A    between atoms: C_1  and  C_2
REMARK    2  A    between atoms: C_4  and  C_5
REMARK    3  A    between atoms: C_12  and  C_13
REMARK    4  A    between atoms: C_16  and  C_17
REMARK    5  A    between atoms: C_17  and  C_18
REMARK                            x       y       z     vdW  Elec       q    Type
REMARK                         _______ _______ _______ _____ _____    ______ ____
ROOT
ATOM      1  C   UNL     1       6.822   4.838  15.635  0.00  0.00    +0.000 C 
ATOM      2  C   UNL     1       5.928   4.999  16.816  0.00  0.00    +0.000 A 
ATOM      3  N   UNL     1       4.846   4.136  16.931  0.00  0.00    +0.000 NA
ATOM      4  C   UNL     1       4.128   4.425  17.998  0.00  0.00    +0.000 A 
ATOM      5  S   UNL     1       4.758   5.711  18.952  0.00  0.00    +0.000 S 
ATOM      6  C   UNL     1       6.045   5.926  17.839  0.00  0.00    +0.000 A 
ENDROOT
BRANCH   4   7
ATOM      7  C   UNL     1       2.909   3.707  18.385  0.00  0.00    +0.000 A 
ATOM      8  C   UNL     1       2.067   4.108  19.430  0.00  0.00    +0.000 A 
ATOM      9  C   UNL     1       0.911   3.382  19.717  0.00  0.00    +0.000 A 
ATOM     10  C   UNL     1       0.626   2.266  18.950  0.00  0.00    +0.000 A 
ATOM     11  N   UNL     1       1.404   1.843  17.934  0.00  0.00    +0.000 NA
ATOM     12  C   UNL     1       2.516   2.575  17.672  0.00  0.00    +0.000 A 
ENDBRANCH   4   7
BRANCH   6  13
ATOM     13  C   UNL     1       7.043   6.935  18.027  0.00  0.00    +0.000 A 
ATOM     14  N   UNL     1       8.119   6.785  18.782  0.00  0.00    +0.000 NA
ATOM     15  N   UNL     1       8.820   7.970  18.741  0.00  0.00    +0.000 NA
ATOM     16  C   UNL     1       8.136   8.774  17.958  0.00  0.00    +0.000 A 
ATOM     17  O   UNL     1       6.996   8.194  17.466  0.00  0.00    +0.000 OA
BRANCH  16  18
ATOM     18  C   UNL     1       8.381  10.198  17.623  0.00  0.00    +0.000 C 
BRANCH  18  19
ATOM     19  C   UNL     1       9.482  10.836  18.437  0.00  0.00    +0.000 A 
ATOM     20  C   UNL     1      10.662  11.277  17.820  0.00  0.00    +0.000 A 
ATOM     21  C   UNL     1      11.667  11.891  18.572  0.00  0.00    +0.000 A 
ATOM     22  C   UNL     1      11.505  12.065  19.945  0.00  0.00    +0.000 A 
ATOM     23  C   UNL     1      10.343  11.617  20.571  0.00  0.00    +0.000 A 
ATOM     24  C   UNL     1       9.339  11.000  19.823  0.00  0.00    +0.000 A 
ENDBRANCH  18  19
ENDBRANCH  16  18
ENDBRANCH   6  13
TORSDOF 4
ENDMDL
MODEL 2
REMARK VINA RESULT:      -7.9      5.055      7.574
REMARK  Name = 
REMARK  5 active torsions:
REMARK  status: ('A' for Active; 'I' for Inactive)
REMARK    1  A    between atoms: C_1  and  C_2
REMARK    2  A    between atoms: C_4  and  C_5
REMARK    3  A    between atoms: C_12  and  C_13
REMARK    4  A    between atoms: C_16  and  C_17
REMARK    5  A    between atoms: C_17  and  C_18
REMARK                            x       y       z     vdW  Elec       q    Type
REMARK                         _______ _______ _______ _____ _____    ______ ____
ROOT
ATOM      1  C   UNL     1       3.252   3.395  17.271  0.00  0.00    +0.000 C 
ATOM      2  C   UNL     1       3.473   4.852  17.498  0.00  0.00    +0.000 A 
ATOM      3  N   UNL     1       2.559   5.528  18.295  0.00  0.00    +0.000 NA
ATOM      4  C   UNL     1       2.861   6.808  18.370  0.00  0.00    +0.000 A 
ATOM      5  S   UNL     1       4.300   7.250  17.537  0.00  0.00    +0.000 S 
ATOM      6  C   UNL     1       4.503   5.633  17.000  0.00  0.00    +0.000 A 
ENDROOT
BRANCH   4   7
ATOM      7  C   UNL     1       2.076   7.794  19.121  0.00  0.00    +0.000 A 
ATOM      8  C   UNL     1       1.765   7.669  20.482  0.00  0.00    +0.000 A 
ATOM      9  C   UNL     1       1.033   8.666  21.127  0.00  0.00    +0.000 A 
ATOM     10  C   UNL     1       0.627   9.767  20.394  0.00  0.00    +0.000 A 
ATOM     11  N   UNL     1       0.905   9.932  19.085  0.00  0.00    +0.000 NA
ATOM     12  C   UNL     1       1.626   8.951  18.486  0.00  0.00    +0.000 A 
ENDBRANCH   4   7
BRANCH   6  13
ATOM     13  C   UNL     1       5.604   5.247  16.171  0.00  0.00    +0.000 A 
ATOM     14  N   UNL     1       6.772   4.831  16.631  0.00  0.00    +0.000 NA
ATOM     15  N   UNL     1       7.579   4.582  15.544  0.00  0.00    +0.000 NA
ATOM     16  C   UNL     1       6.857   4.855  14.480  0.00  0.00    +0.000 A 
ATOM     17  O   UNL     1       5.593   5.283  14.792  0.00  0.00    +0.000 OA
BRANCH  16  18
ATOM     18  C   UNL     1       7.244   4.844  13.049  0.00  0.00    +0.000 C 
BRANCH  18  19
ATOM     19  C   UNL     1       6.728   3.647  12.285  0.00  0.00    +0.000 A 
ATOM     20  C   UNL     1       7.619   2.720  11.725  0.00  0.00    +0.000 A 
ATOM     21  C   UNL     1       7.138   1.599  11.043  0.00  0.00    +0.000 A 
ATOM     22  C   UNL     1       5.765   1.398  10.910  0.00  0.00    +0.000 A 
ATOM     23  C   UNL     1       4.871   2.321  11.449  0.00  0.00    +0.000 A 
ATOM     24  C   UNL     1       5.349   3.443  12.129  0.00  0.00    +0.000 A 
ENDBRANCH  18  19
ENDBRANCH  16  18
ENDBRANCH   6  13
TORSDOF 4
ENDMDL
MODEL 3
REMARK VINA RESULT:      -7.9      5.500      8.504
REMARK  Name = 
REMARK  5 active torsions:
REMARK  status: ('A' for Active; 'I' for Inactive)
REMARK    1  A    between atoms: C_1  and  C_2
REMARK    2  A    between atoms: C_4  and  C_5
REMARK    3  A    between atoms: C_12  and  C_13
REMARK    4  A    between atoms: C_16  and  C_17
REMARK    5  A    between atoms: C_17  and  C_18
REMARK                            x       y       z     vdW  Elec       q    Type
REMARK                         _______ _______ _______ _____ _____    ______ ____
ROOT
ATOM      1  C   UNL     1       2.105   5.185  20.721  0.00  0.00    +0.000 C 
ATOM      2  C   UNL     1       2.739   5.854  19.550  0.00  0.00    +0.000 A 
ATOM      3  N   UNL     1       3.638   5.117  18.792  0.00  0.00    +0.000 NA
ATOM      4  C   UNL     1       4.144   5.850  17.821  0.00  0.00    +0.000 A 
ATOM      5  S   UNL     1       3.512   7.448  17.733  0.00  0.00    +0.000 S 
ATOM      6  C   UNL     1       2.537   7.154  19.114  0.00  0.00    +0.000 A 
ENDROOT
BRANCH   4   7
ATOM      7  C   UNL     1       5.138   5.364  16.858  0.00  0.00    +0.000 A 
ATOM      8  C   UNL     1       4.970   4.213  16.077  0.00  0.00    +0.000 A 
ATOM      9  C   UNL     1       5.955   3.834  15.166  0.00  0.00    +0.000 A 
ATOM     10  C   UNL     1       7.091   4.617  15.058  0.00  0.00    +0.000 A 
ATOM     11  N   UNL     1       7.296   5.734  15.784  0.00  0.00    +0.000 NA
ATOM     12  C   UNL     1       6.316   6.083  16.656  0.00  0.00    +0.000 A 
ENDBRANCH   4   7
BRANCH   6  13
ATOM     13  C   UNL     1       1.674   8.160  19.655  0.00  0.00    +0.000 A 
ATOM     14  N   UNL     1       1.078   8.073  20.833  0.00  0.00    +0.000 NA
ATOM     15  N   UNL     1       0.313   9.208  20.992  0.00  0.00    +0.000 NA
ATOM     16  C   UNL     1       0.491   9.926  19.906  0.00  0.00    +0.000 A 
ATOM     17  O   UNL     1       1.339   9.331  19.008  0.00  0.00    +0.000 OA
BRANCH  16  18
ATOM     18  C   UNL     1      -0.149  11.201  19.503  0.00  0.00    +0.000 C 
BRANCH  18  19
ATOM     19  C   UNL     1      -1.441  11.022  18.741  0.00  0.00    +0.000 A 
ATOM     20  C   UNL     1      -1.525  10.103  17.684  0.00  0.00    +0.000 A 
ATOM     21  C   UNL     1      -2.729   9.920  16.999  0.00  0.00    +0.000 A 
ATOM     22  C   UNL     1      -3.857  10.655  17.359  0.00  0.00    +0.000 A 
ATOM     23  C   UNL     1      -3.781  11.581  18.397  0.00  0.00    +0.000 A 
ATOM     24  C   UNL     1      -2.579  11.768  19.082  0.00  0.00    +0.000 A 
ENDBRANCH  18  19
ENDBRANCH  16  18
ENDBRANCH   6  13
TORSDOF 4
ENDMDL
MODEL 4
REMARK VINA RESULT:      -7.8      7.156      9.950
REMARK  Name = 
REMARK  5 active torsions:
REMARK  status: ('A' for Active; 'I' for Inactive)
REMARK    1  A    between atoms: C_1  and  C_2
REMARK    2  A    between atoms: C_4  and  C_5
REMARK    3  A    between atoms: C_12  and  C_13
REMARK    4  A    between atoms: C_16  and  C_17
REMARK    5  A    between atoms: C_17  and  C_18
REMARK                            x       y       z     vdW  Elec       q    Type
REMARK                         _______ _______ _______ _____ _____    ______ ____
ROOT
ATOM      1  C   UNL     1      -1.440  10.012  17.424  0.00  0.00    +0.000 C 
ATOM      2  C   UNL     1      -0.899  10.401  18.757  0.00  0.00    +0.000 A 
ATOM      3  N   UNL     1      -1.664  11.253  19.541  0.00  0.00    +0.000 NA
ATOM      4  C   UNL     1      -1.042  11.539  20.667  0.00  0.00    +0.000 A 
ATOM      5  S   UNL     1       0.471  10.742  20.865  0.00  0.00    +0.000 S 
ATOM      6  C   UNL     1       0.303  10.009  19.323  0.00  0.00    +0.000 A 
ENDROOT
BRANCH   4   7
ATOM      7  C   UNL     1      -1.581  12.430  21.700  0.00  0.00    +0.000 A 
ATOM      8  C   UNL     1      -0.788  13.120  22.626  0.00  0.00    +0.000 A 
ATOM      9  C   UNL     1      -1.380  13.968  23.562  0.00  0.00    +0.000 A 
ATOM     10  C   UNL     1      -2.757  14.106  23.549  0.00  0.00    +0.000 A 
ATOM     11  N   UNL     1      -3.561  13.465  22.676  0.00  0.00    +0.000 NA
ATOM     12  C   UNL     1      -2.955  12.654  21.772  0.00  0.00    +0.000 A 
ENDBRANCH   4   7
BRANCH   6  13
ATOM     13  C   UNL     1       1.304   9.134  18.792  0.00  0.00    +0.000 A 
ATOM     14  N   UNL     1       1.823   9.247  17.581  0.00  0.00    +0.000 NA
ATOM     15  N   UNL     1       2.723   8.217  17.420  0.00  0.00    +0.000 NA
ATOM     16  C   UNL     1       2.708   7.537  18.546  0.00  0.00    +0.000 A 
ATOM     17  O   UNL     1       1.834   8.053  19.466  0.00  0.00    +0.000 OA
BRANCH  16  18
ATOM     18  C   UNL     1       3.418   6.285  18.901  0.00  0.00    +0.000 C 
BRANCH  18  19
ATOM     19  C   UNL     1       2.503   5.102  19.112  0.00  0.00    +0.000 A 
ATOM     20  C   UNL     1       2.128   4.712  20.406  0.00  0.00    +0.000 A 
ATOM     21  C   UNL     1       1.260   3.634  20.597  0.00  0.00    +0.000 A 
ATOM     22  C   UNL     1       0.762   2.935  19.499  0.00  0.00    +0.000 A 
ATOM     23  C   UNL     1       1.140   3.304  18.210  0.00  0.00    +0.000 A 
ATOM     24  C   UNL     1       2.010   4.379  18.016  0.00  0.00    +0.000 A 
ENDBRANCH  18  19
ENDBRANCH  16  18
ENDBRANCH   6  13
TORSDOF 4
ENDMDL
MODEL 5
REMARK VINA RESULT:      -7.7      7.328     10.018
REMARK  Name = 
REMARK  5 active torsions:
REMARK  status: ('A' for Active; 'I' for Inactive)
REMARK    1  A    between atoms: C_1  and  C_2
REMARK    2  A    between atoms: C_4  and  C_5
REMARK    3  A    between atoms: C_12  and  C_13
REMARK    4  A    between atoms: C_16  and  C_17
REMARK    5  A    between atoms: C_17  and  C_18
REMARK                            x       y       z     vdW  Elec       q    Type
REMARK                         _______ _______ _______ _____ _____    ______ ____
ROOT
ATOM      1  C   UNL     1      -1.568   9.995  17.450  0.00  0.00    +0.000 C 
ATOM      2  C   UNL     1      -0.955  10.526  18.700  0.00  0.00    +0.000 A 
ATOM      3  N   UNL     1      -1.692  11.433  19.448  0.00  0.00    +0.000 NA
ATOM      4  C   UNL     1      -1.007  11.842  20.497  0.00  0.00    +0.000 A 
ATOM      5  S   UNL     1       0.536  11.102  20.671  0.00  0.00    +0.000 S 
ATOM      6  C   UNL     1       0.291  10.217  19.221  0.00  0.00    +0.000 A 
ENDROOT
BRANCH   4   7
ATOM      7  C   UNL     1      -1.505  12.817  21.473  0.00  0.00    +0.000 A 
ATOM      8  C   UNL     1      -1.001  12.946  22.774  0.00  0.00    +0.000 A 
ATOM      9  C   UNL     1      -1.514  13.918  23.632  0.00  0.00    +0.000 A 
ATOM     10  C   UNL     1      -2.525  14.741  23.167  0.00  0.00    +0.000 A 
ATOM     11  N   UNL     1      -3.040  14.657  21.924  0.00  0.00    +0.000 NA
ATOM     12  C   UNL     1      -2.514  13.708  21.109  0.00  0.00    +0.000 A 
ENDBRANCH   4   7
BRANCH   6  13
ATOM     13  C   UNL     1       1.281   9.317  18.711  0.00  0.00    +0.000 A 
ATOM     14  N   UNL     1       1.797   9.390  17.496  0.00  0.00    +0.000 NA
ATOM     15  N   UNL     1       2.685   8.346  17.362  0.00  0.00    +0.000 NA
ATOM     16  C   UNL     1       2.667   7.699  18.506  0.00  0.00    +0.000 A 
ATOM     17  O   UNL     1       1.802   8.250  19.414  0.00  0.00    +0.000 OA
BRANCH  16  18
ATOM     18  C   UNL     1       3.365   6.450  18.894  0.00  0.00    +0.000 C 
BRANCH  18  19
ATOM     19  C   UNL     1       2.440   5.276  19.115  0.00  0.00    +0.000 A 
ATOM     20  C   UNL     1       2.045   4.466  18.040  0.00  0.00    +0.000 A 
ATOM     21  C   UNL     1       1.210   3.366  18.252  0.00  0.00    +0.000 A 
ATOM     22  C   UNL     1       0.760   3.068  19.537  0.00  0.00    +0.000 A 
ATOM     23  C   UNL     1       1.133   3.875  20.609  0.00  0.00    +0.000 A 
ATOM     24  C   UNL     1       1.965   4.977  20.400  0.00  0.00    +0.000 A 
ENDBRANCH  18  19
ENDBRANCH  16  18
ENDBRANCH   6  13
TORSDOF 4
ENDMDL
MODEL 6
REMARK VINA RESULT:      -7.7      4.379      7.298
REMARK  Name = 
REMARK  5 active torsions:
REMARK  status: ('A' for Active; 'I' for Inactive)
REMARK    1  A    between atoms: C_1  and  C_2
REMARK    2  A    between atoms: C_4  and  C_5
REMARK    3  A    between atoms: C_12  and  C_13
REMARK    4  A    between atoms: C_16  and  C_17
REMARK    5  A    between atoms: C_17  and  C_18
REMARK                            x       y       z     vdW  Elec       q    Type
REMARK                         _______ _______ _______ _____ _____    ______ ____
ROOT
ATOM      1  C   UNL     1       7.934   4.794  18.435  0.00  0.00    +0.000 C 
ATOM      2  C   UNL     1       6.535   4.543  17.987  0.00  0.00    +0.000 A 
ATOM      3  N   UNL     1       5.593   4.223  18.955  0.00  0.00    +0.000 NA
ATOM      4  C   UNL     1       4.418   3.990  18.407  0.00  0.00    +0.000 A 
ATOM      5  S   UNL     1       4.373   4.209  16.701  0.00  0.00    +0.000 S 
ATOM      6  C   UNL     1       6.046   4.590  16.691  0.00  0.00    +0.000 A 
ENDROOT
BRANCH   4   7
ATOM      7  C   UNL     1       3.220   3.608  19.163  0.00  0.00    +0.000 A 
ATOM      8  C   UNL     1       1.912   3.799  18.700  0.00  0.00    +0.000 A 
ATOM      9  C   UNL     1       0.827   3.384  19.473  0.00  0.00    +0.000 A 
ATOM     10  C   UNL     1       1.078   2.787  20.696  0.00  0.00    +0.000 A 
ATOM     11  N   UNL     1       2.319   2.580  21.182  0.00  0.00    +0.000 NA
ATOM     12  C   UNL     1       3.354   2.986  20.404  0.00  0.00    +0.000 A 
ENDBRANCH   4   7
BRANCH   6  13
ATOM     13  C   UNL     1       6.741   4.902  15.479  0.00  0.00    +0.000 A 
ATOM     14  N   UNL     1       7.732   5.773  15.393  0.00  0.00    +0.000 NA
ATOM     15  N   UNL     1       8.123   5.825  14.073  0.00  0.00    +0.000 NA
ATOM     16  C   UNL     1       7.352   4.976  13.429  0.00  0.00    +0.000 A 
ATOM     17  O   UNL     1       6.449   4.352  14.248  0.00  0.00    +0.000 OA
BRANCH  16  18
ATOM     18  C   UNL     1       7.277   4.686  11.977  0.00  0.00    +0.000 C 
BRANCH  18  19
ATOM     19  C   UNL     1       6.650   3.350  11.653  0.00  0.00    +0.000 A 
ATOM     20  C   UNL     1       5.256   3.193  11.672  0.00  0.00    +0.000 A 
ATOM     21  C   UNL     1       4.678   1.964  11.346  0.00  0.00    +0.000 A 
ATOM     22  C   UNL     1       5.485   0.880  11.004  0.00  0.00    +0.000 A 
ATOM     23  C   UNL     1       6.872   1.021  10.997  0.00  0.00    +0.000 A 
ATOM     24  C   UNL     1       7.452   2.248  11.325  0.00  0.00    +0.000 A 
ENDBRANCH  18  19
ENDBRANCH  16  18
ENDBRANCH   6  13
TORSDOF 4
ENDMDL
MODEL 7
REMARK VINA RESULT:      -7.7      7.338      9.952
REMARK  Name = 
REMARK  5 active torsions:
REMARK  status: ('A' for Active; 'I' for Inactive)
REMARK    1  A    between atoms: C_1  and  C_2
REMARK    2  A    between atoms: C_4  and  C_5
REMARK    3  A    between atoms: C_12  and  C_13
REMARK    4  A    between atoms: C_16  and  C_17
REMARK    5  A    between atoms: C_17  and  C_18
REMARK                            x       y       z     vdW  Elec       q    Type
REMARK                         _______ _______ _______ _____ _____    ______ ____
ROOT
ATOM      1  C   UNL     1       0.498  11.153  21.139  0.00  0.00    +0.000 C 
ATOM      2  C   UNL     1      -0.399  10.936  19.969  0.00  0.00    +0.000 A 
ATOM      3  N   UNL     1      -1.617  11.603  19.955  0.00  0.00    +0.000 NA
ATOM      4  C   UNL     1      -2.314  11.283  18.884  0.00  0.00    +0.000 A 
ATOM      5  S   UNL     1      -1.509  10.211  17.805  0.00  0.00    +0.000 S 
ATOM      6  C   UNL     1      -0.162  10.132  18.865  0.00  0.00    +0.000 A 
ENDROOT
BRANCH   4   7
ATOM      7  C   UNL     1      -3.652  11.805  18.590  0.00  0.00    +0.000 A 
ATOM      8  C   UNL     1      -4.294  11.655  17.353  0.00  0.00    +0.000 A 
ATOM      9  C   UNL     1      -5.580  12.161  17.165  0.00  0.00    +0.000 A 
ATOM     10  C   UNL     1      -6.195  12.811  18.220  0.00  0.00    +0.000 A 
ATOM     11  N   UNL     1      -5.619  12.978  19.428  0.00  0.00    +0.000 NA
ATOM     12  C   UNL     1      -4.372  12.467  19.585  0.00  0.00    +0.000 A 
ENDBRANCH   4   7
BRANCH   6  13
ATOM     13  C   UNL     1       0.987   9.333  18.566  0.00  0.00    +0.000 A 
ATOM     14  N   UNL     1       1.729   9.475  17.480  0.00  0.00    +0.000 NA
ATOM     15  N   UNL     1       2.717   8.517  17.528  0.00  0.00    +0.000 NA
ATOM     16  C   UNL     1       2.526   7.848  18.643  0.00  0.00    +0.000 A 
ATOM     17  O   UNL     1       1.449   8.302  19.357  0.00  0.00    +0.000 OA
BRANCH  16  18
ATOM     18  C   UNL     1       3.242   6.658  19.163  0.00  0.00    +0.000 C 
BRANCH  18  19
ATOM     19  C   UNL     1       2.382   5.418  19.250  0.00  0.00    +0.000 A 
ATOM     20  C   UNL     1       2.066   4.686  18.096  0.00  0.00    +0.000 A 
ATOM     21  C   UNL     1       1.294   3.525  18.184  0.00  0.00    +0.000 A 
ATOM     22  C   UNL     1       0.825   3.089  19.422  0.00  0.00    +0.000 A 
ATOM     23  C   UNL     1       1.120   3.818  20.572  0.00  0.00    +0.000 A 
ATOM     24  C   UNL     1       1.889   4.979  20.488  0.00  0.00    +0.000 A 
ENDBRANCH  18  19
ENDBRANCH  16  18
ENDBRANCH   6  13
TORSDOF 4
ENDMDL
MODEL 8
REMARK VINA RESULT:      -7.6      5.412      7.849
REMARK  Name = 
REMARK  5 active torsions:
REMARK  status: ('A' for Active; 'I' for Inactive)
REMARK    1  A    between atoms: C_1  and  C_2
REMARK    2  A    between atoms: C_4  and  C_5
REMARK    3  A    between atoms: C_12  and  C_13
REMARK    4  A    between atoms: C_16  and  C_17
REMARK    5  A    between atoms: C_17  and  C_18
REMARK                            x       y       z     vdW  Elec       q    Type
REMARK                         _______ _______ _______ _____ _____    ______ ____
ROOT
ATOM      1  C   UNL     1       2.401   8.584  17.532  0.00  0.00    +0.000 C 
ATOM      2  C   UNL     1       1.818   8.577  18.903  0.00  0.00    +0.000 A 
ATOM      3  N   UNL     1       1.100   9.695  19.307  0.00  0.00    +0.000 NA
ATOM      4  C   UNL     1       0.683   9.560  20.549  0.00  0.00    +0.000 A 
ATOM      5  S   UNL     1       1.080   8.050  21.273  0.00  0.00    +0.000 S 
ATOM      6  C   UNL     1       1.906   7.568  19.849  0.00  0.00    +0.000 A 
ENDROOT
BRANCH   4   7
ATOM      7  C   UNL     1      -0.087  10.578  21.271  0.00  0.00    +0.000 A 
ATOM      8  C   UNL     1      -0.581  11.748  20.679  0.00  0.00    +0.000 A 
ATOM      9  C   UNL     1      -1.327  12.655  21.433  0.00  0.00    +0.000 A 
ATOM     10  C   UNL     1      -1.560  12.369  22.767  0.00  0.00    +0.000 A 
ATOM     11  N   UNL     1      -1.109  11.256  23.380  0.00  0.00    +0.000 NA
ATOM     12  C   UNL     1      -0.394  10.388  22.619  0.00  0.00    +0.000 A 
ENDBRANCH   4   7
BRANCH   6  13
ATOM     13  C   UNL     1       2.552   6.295  19.747  0.00  0.00    +0.000 A 
ATOM     14  N   UNL     1       1.995   5.148  20.098  0.00  0.00    +0.000 NA
ATOM     15  N   UNL     1       2.925   4.155  19.885  0.00  0.00    +0.000 NA
ATOM     16  C   UNL     1       3.996   4.751  19.410  0.00  0.00    +0.000 A 
ATOM     17  O   UNL     1       3.841   6.107  19.293  0.00  0.00    +0.000 OA
BRANCH  16  18
ATOM     18  C   UNL     1       5.325   4.181  19.081  0.00  0.00    +0.000 C 
BRANCH  18  19
ATOM     19  C   UNL     1       5.719   4.349  17.632  0.00  0.00    +0.000 A 
ATOM     20  C   UNL     1       7.032   4.703  17.286  0.00  0.00    +0.000 A 
ATOM     21  C   UNL     1       7.401   4.831  15.945  0.00  0.00    +0.000 A 
ATOM     22  C   UNL     1       6.462   4.613  14.938  0.00  0.00    +0.000 A 
ATOM     23  C   UNL     1       5.151   4.277  15.271  0.00  0.00    +0.000 A 
ATOM     24  C   UNL     1       4.779   4.151  16.611  0.00  0.00    +0.000 A 
ENDBRANCH  18  19
ENDBRANCH  16  18
ENDBRANCH   6  13
TORSDOF 4
ENDMDL
MODEL 9
REMARK VINA RESULT:      -7.6      0.709      1.407
REMARK  Name = 
REMARK  5 active torsions:
REMARK  status: ('A' for Active; 'I' for Inactive)
REMARK    1  A    between atoms: C_1  and  C_2
REMARK    2  A    between atoms: C_4  and  C_5
REMARK    3  A    between atoms: C_12  and  C_13
REMARK    4  A    between atoms: C_16  and  C_17
REMARK    5  A    between atoms: C_17  and  C_18
REMARK                            x       y       z     vdW  Elec       q    Type
REMARK                         _______ _______ _______ _____ _____    ______ ____
ROOT
ATOM      1  C   UNL     1       6.946   4.990  15.633  0.00  0.00    +0.000 C 
ATOM      2  C   UNL     1       6.115   5.029  16.870  0.00  0.00    +0.000 A 
ATOM      3  N   UNL     1       5.093   4.098  16.993  0.00  0.00    +0.000 NA
ATOM      4  C   UNL     1       4.424   4.282  18.113  0.00  0.00    +0.000 A 
ATOM      5  S   UNL     1       5.036   5.546  19.107  0.00  0.00    +0.000 S 
ATOM      6  C   UNL     1       6.240   5.902  17.939  0.00  0.00    +0.000 A 
ENDROOT
BRANCH   4   7
ATOM      7  C   UNL     1       3.273   3.471  18.524  0.00  0.00    +0.000 A 
ATOM      8  C   UNL     1       2.483   2.731  17.634  0.00  0.00    +0.000 A 
ATOM      9  C   UNL     1       1.419   1.965  18.111  0.00  0.00    +0.000 A 
ATOM     10  C   UNL     1       1.168   1.960  19.472  0.00  0.00    +0.000 A 
ATOM     11  N   UNL     1       1.901   2.653  20.367  0.00  0.00    +0.000 NA
ATOM     12  C   UNL     1       2.935   3.381  19.874  0.00  0.00    +0.000 A 
ENDBRANCH   4   7
BRANCH   6  13
ATOM     13  C   UNL     1       7.189   6.956  18.132  0.00  0.00    +0.000 A 
ATOM     14  N   UNL     1       8.271   6.855  18.887  0.00  0.00    +0.000 NA
ATOM     15  N   UNL     1       8.914   8.072  18.851  0.00  0.00    +0.000 NA
ATOM     16  C   UNL     1       8.193   8.846  18.071  0.00  0.00    +0.000 A 
ATOM     17  O   UNL     1       7.083   8.214  17.576  0.00  0.00    +0.000 OA
BRANCH  16  18
ATOM     18  C   UNL     1       8.371  10.281  17.741  0.00  0.00    +0.000 C 
BRANCH  18  19
ATOM     19  C   UNL     1       9.506  10.942  18.486  0.00  0.00    +0.000 A 
ATOM     20  C   UNL     1       9.425  11.151  19.871  0.00  0.00    +0.000 A 
ATOM     21  C   UNL     1      10.488  11.739  20.562  0.00  0.00    +0.000 A 
ATOM     22  C   UNL     1      11.638  12.127  19.876  0.00  0.00    +0.000 A 
ATOM     23  C   UNL     1      11.722  11.939  18.498  0.00  0.00    +0.000 A 
ATOM     24  C   UNL     1      10.660  11.354  17.805  0.00  0.00    +0.000 A 
ENDBRANCH  18  19
ENDBRANCH  16  18
ENDBRANCH   6  13
TORSDOF 4
ENDMDL
