MODEL 1
REMARK VINA RESULT:      -8.1      0.000      0.000
REMARK  Name = 
REMARK  3 active torsions:
REMARK  status: ('A' for Active; 'I' for Inactive)
REMARK    1  A    between atoms: C_1  and  O_2
REMARK    2  A    between atoms: O_2  and  C_3
REMARK    3  A    between atoms: C_8  and  C_9
REMARK                            x       y       z     vdW  Elec       q    Type
REMARK                         _______ _______ _______ _____ _____    ______ ____
ROOT
ATOM      1  C   UNL     1       4.551   5.684  16.662  0.00  0.00    +0.000 C 
ATOM      2  O   UNL     1       4.427   6.918  16.818  0.00  0.00    +0.000 OA
ATOM      3  N   UNL     1       3.764   4.781  17.364  0.00  0.00    +0.000 N 
ATOM      4  C   UNL     1       3.839   3.313  17.245  0.00  0.00    +0.000 C 
ATOM      5  C   UNL     1       2.553   2.612  17.677  0.00  0.00    +0.000 C 
ATOM      6  C   UNL     1       2.255   3.009  19.098  0.00  0.00    +0.000 A 
ATOM      7  C   UNL     1       1.758   2.105  20.038  0.00  0.00    +0.000 A 
ATOM      8  C   UNL     1       1.546   2.519  21.355  0.00  0.00    +0.000 A 
ATOM      9  C   UNL     1       1.815   3.835  21.733  0.00  0.00    +0.000 A 
ATOM     10  C   UNL     1       2.282   4.747  20.791  0.00  0.00    +0.000 A 
ATOM     11  C   UNL     1       2.506   4.340  19.473  0.00  0.00    +0.000 A 
ATOM     12  C   UNL     1       2.950   5.340  18.440  0.00  0.00    +0.000 C 
ENDROOT
BRANCH   1  18
ATOM     13  C   UNL     1       6.903   5.582  15.681  0.00  0.00    +0.000 A 
ATOM     14  N   UNL     1       7.777   5.215  14.716  0.00  0.00    +0.000 NA
ATOM     15  C   UNL     1       7.284   4.573  13.641  0.00  0.00    +0.000 A 
ATOM     16  C   UNL     1       5.959   4.213  13.510  0.00  0.00    +0.000 A 
ATOM     17  C   UNL     1       5.087   4.539  14.540  0.00  0.00    +0.000 A 
ATOM     18  C   UNL     1       5.552   5.223  15.675  0.00  0.00    +0.000 A 
BRANCH  13  20
ATOM     19  C   UNL     1       7.605   5.812  17.883  0.00  0.00    +0.000 C 
ATOM     20  O   UNL     1       7.419   6.433  16.619  0.00  0.00    +0.000 OA
ENDBRANCH  13  20
ENDBRANCH   1  18
TORSDOF 2
ENDMDL
MODEL 2
REMARK VINA RESULT:      -8.1      1.426      1.784
REMARK  Name = 
REMARK  3 active torsions:
REMARK  status: ('A' for Active; 'I' for Inactive)
REMARK    1  A    between atoms: C_1  and  O_2
REMARK    2  A    between atoms: O_2  and  C_3
REMARK    3  A    between atoms: C_8  and  C_9
REMARK                            x       y       z     vdW  Elec       q    Type
REMARK                         _______ _______ _______ _____ _____    ______ ____
ROOT
ATOM      1  C   UNL     1       6.224   4.394  17.812  0.00  0.00    +0.000 C 
ATOM      2  O   UNL     1       7.170   4.317  18.625  0.00  0.00    +0.000 OA
ATOM      3  N   UNL     1       4.902   4.426  18.238  0.00  0.00    +0.000 N 
ATOM      4  C   UNL     1       3.725   4.517  17.355  0.00  0.00    +0.000 C 
ATOM      5  C   UNL     1       2.490   5.075  18.060  0.00  0.00    +0.000 C 
ATOM      6  C   UNL     1       2.190   4.199  19.247  0.00  0.00    +0.000 A 
ATOM      7  C   UNL     1       0.887   3.860  19.615  0.00  0.00    +0.000 A 
ATOM      8  C   UNL     1       0.672   3.003  20.698  0.00  0.00    +0.000 A 
ATOM      9  C   UNL     1       1.752   2.495  21.421  0.00  0.00    +0.000 A 
ATOM     10  C   UNL     1       3.051   2.855  21.075  0.00  0.00    +0.000 A 
ATOM     11  C   UNL     1       3.277   3.705  19.988  0.00  0.00    +0.000 A 
ATOM     12  C   UNL     1       4.676   4.144  19.653  0.00  0.00    +0.000 C 
ENDROOT
BRANCH   1  18
ATOM     13  C   UNL     1       7.296   5.523  15.793  0.00  0.00    +0.000 A 
ATOM     14  N   UNL     1       7.524   5.622  14.463  0.00  0.00    +0.000 NA
ATOM     15  C   UNL     1       6.913   4.730  13.660  0.00  0.00    +0.000 A 
ATOM     16  C   UNL     1       6.134   3.692  14.127  0.00  0.00    +0.000 A 
ATOM     17  C   UNL     1       5.964   3.567  15.499  0.00  0.00    +0.000 A 
ATOM     18  C   UNL     1       6.569   4.482  16.377  0.00  0.00    +0.000 A 
BRANCH  13  20
ATOM     19  C   UNL     1       6.683   7.396  17.021  0.00  0.00    +0.000 C 
ATOM     20  O   UNL     1       7.742   6.590  16.524  0.00  0.00    +0.000 OA
ENDBRANCH  13  20
ENDBRANCH   1  18
TORSDOF 2
ENDMDL
MODEL 3
REMARK VINA RESULT:      -7.3      3.521      5.543
REMARK  Name = 
REMARK  3 active torsions:
REMARK  status: ('A' for Active; 'I' for Inactive)
REMARK    1  A    between atoms: C_1  and  O_2
REMARK    2  A    between atoms: O_2  and  C_3
REMARK    3  A    between atoms: C_8  and  C_9
REMARK                            x       y       z     vdW  Elec       q    Type
REMARK                         _______ _______ _______ _____ _____    ______ ____
ROOT
ATOM      1  C   UNL     1       2.472   5.071  20.355  0.00  0.00    +0.000 C 
ATOM      2  O   UNL     1       2.383   4.920  21.593  0.00  0.00    +0.000 OA
ATOM      3  N   UNL     1       2.340   6.321  19.765  0.00  0.00    +0.000 N 
ATOM      4  C   UNL     1       2.431   6.595  18.320  0.00  0.00    +0.000 C 
ATOM      5  C   UNL     1       2.795   8.045  18.007  0.00  0.00    +0.000 C 
ATOM      6  C   UNL     1       1.765   8.937  18.647  0.00  0.00    +0.000 A 
ATOM      7  C   UNL     1       1.275  10.083  18.019  0.00  0.00    +0.000 A 
ATOM      8  C   UNL     1       0.283  10.846  18.641  0.00  0.00    +0.000 A 
ATOM      9  C   UNL     1      -0.210  10.477  19.893  0.00  0.00    +0.000 A 
ATOM     10  C   UNL     1       0.298   9.351  20.535  0.00  0.00    +0.000 A 
ATOM     11  C   UNL     1       1.284   8.576  19.918  0.00  0.00    +0.000 A 
ATOM     12  C   UNL     1       1.879   7.397  20.638  0.00  0.00    +0.000 C 
ENDROOT
BRANCH   1  18
ATOM     13  C   UNL     1       4.032   3.429  19.184  0.00  0.00    +0.000 A 
ATOM     14  N   UNL     1       4.258   2.373  18.369  0.00  0.00    +0.000 NA
ATOM     15  C   UNL     1       3.189   1.797  17.787  0.00  0.00    +0.000 A 
ATOM     16  C   UNL     1       1.888   2.181  18.034  0.00  0.00    +0.000 A 
ATOM     17  C   UNL     1       1.671   3.224  18.924  0.00  0.00    +0.000 A 
ATOM     18  C   UNL     1       2.754   3.867  19.544  0.00  0.00    +0.000 A 
BRANCH  13  20
ATOM     19  C   UNL     1       5.759   4.801  18.458  0.00  0.00    +0.000 C 
ATOM     20  O   UNL     1       5.159   4.115  19.547  0.00  0.00    +0.000 OA
ENDBRANCH  13  20
ENDBRANCH   1  18
TORSDOF 2
ENDMDL
MODEL 4
REMARK VINA RESULT:      -7.3      2.689      6.374
REMARK  Name = 
REMARK  3 active torsions:
REMARK  status: ('A' for Active; 'I' for Inactive)
REMARK    1  A    between atoms: C_1  and  O_2
REMARK    2  A    between atoms: O_2  and  C_3
REMARK    3  A    between atoms: C_8  and  C_9
REMARK                            x       y       z     vdW  Elec       q    Type
REMARK                         _______ _______ _______ _____ _____    ______ ____
ROOT
ATOM      1  C   UNL     1       4.472   3.462  19.142  0.00  0.00    +0.000 C 
ATOM      2  O   UNL     1       5.162   2.615  19.750  0.00  0.00    +0.000 OA
ATOM      3  N   UNL     1       5.057   4.525  18.466  0.00  0.00    +0.000 N 
ATOM      4  C   UNL     1       4.326   5.568  17.723  0.00  0.00    +0.000 C 
ATOM      5  C   UNL     1       5.181   6.255  16.660  0.00  0.00    +0.000 C 
ATOM      6  C   UNL     1       6.391   6.841  17.337  0.00  0.00    +0.000 A 
ATOM      7  C   UNL     1       6.915   8.086  16.983  0.00  0.00    +0.000 A 
ATOM      8  C   UNL     1       8.011   8.601  17.679  0.00  0.00    +0.000 A 
ATOM      9  C   UNL     1       8.594   7.873  18.717  0.00  0.00    +0.000 A 
ATOM     10  C   UNL     1       8.092   6.619  19.053  0.00  0.00    +0.000 A 
ATOM     11  C   UNL     1       6.990   6.098  18.368  0.00  0.00    +0.000 A 
ATOM     12  C   UNL     1       6.487   4.716  18.687  0.00  0.00    +0.000 C 
ENDROOT
BRANCH   1  18
ATOM     13  C   UNL     1       2.109   3.991  19.941  0.00  0.00    +0.000 A 
ATOM     14  N   UNL     1       0.781   3.736  19.989  0.00  0.00    +0.000 NA
ATOM     15  C   UNL     1       0.331   2.656  19.323  0.00  0.00    +0.000 A 
ATOM     16  C   UNL     1       1.137   1.848  18.549  0.00  0.00    +0.000 A 
ATOM     17  C   UNL     1       2.485   2.163  18.458  0.00  0.00    +0.000 A 
ATOM     18  C   UNL     1       3.005   3.271  19.147  0.00  0.00    +0.000 A 
BRANCH  13  20
ATOM     19  C   UNL     1       1.837   6.177  20.678  0.00  0.00    +0.000 C 
ATOM     20  O   UNL     1       2.533   4.947  20.823  0.00  0.00    +0.000 OA
ENDBRANCH  13  20
ENDBRANCH   1  18
TORSDOF 2
ENDMDL
MODEL 5
REMARK VINA RESULT:      -7.2      1.984      6.457
REMARK  Name = 
REMARK  3 active torsions:
REMARK  status: ('A' for Active; 'I' for Inactive)
REMARK    1  A    between atoms: C_1  and  O_2
REMARK    2  A    between atoms: O_2  and  C_3
REMARK    3  A    between atoms: C_8  and  C_9
REMARK                            x       y       z     vdW  Elec       q    Type
REMARK                         _______ _______ _______ _____ _____    ______ ____
ROOT
ATOM      1  C   UNL     1       5.887   5.629  17.979  0.00  0.00    +0.000 C 
ATOM      2  O   UNL     1       6.865   6.240  18.462  0.00  0.00    +0.000 OA
ATOM      3  N   UNL     1       5.979   4.957  16.767  0.00  0.00    +0.000 N 
ATOM      4  C   UNL     1       4.884   4.210  16.122  0.00  0.00    +0.000 C 
ATOM      5  C   UNL     1       5.379   3.153  15.138  0.00  0.00    +0.000 C 
ATOM      6  C   UNL     1       6.229   3.837  14.101  0.00  0.00    +0.000 A 
ATOM      7  C   UNL     1       6.188   3.487  12.750  0.00  0.00    +0.000 A 
ATOM      8  C   UNL     1       6.965   4.191  11.826  0.00  0.00    +0.000 A 
ATOM      9  C   UNL     1       7.792   5.232  12.248  0.00  0.00    +0.000 A 
ATOM     10  C   UNL     1       7.858   5.564  13.598  0.00  0.00    +0.000 A 
ATOM     11  C   UNL     1       7.079   4.872  14.530  0.00  0.00    +0.000 A 
ATOM     12  C   UNL     1       7.197   5.187  15.996  0.00  0.00    +0.000 C 
ENDROOT
BRANCH   1  18
ATOM     13  C   UNL     1       4.221   4.582  19.600  0.00  0.00    +0.000 A 
ATOM     14  N   UNL     1       3.029   4.567  20.240  0.00  0.00    +0.000 NA
ATOM     15  C   UNL     1       2.159   5.554  19.957  0.00  0.00    +0.000 A 
ATOM     16  C   UNL     1       2.446   6.605  19.112  0.00  0.00    +0.000 A 
ATOM     17  C   UNL     1       3.698   6.640  18.514  0.00  0.00    +0.000 A 
ATOM     18  C   UNL     1       4.635   5.624  18.765  0.00  0.00    +0.000 A 
BRANCH  13  20
ATOM     19  C   UNL     1       4.184   2.261  19.534  0.00  0.00    +0.000 C 
ATOM     20  O   UNL     1       4.955   3.437  19.742  0.00  0.00    +0.000 OA
ENDBRANCH  13  20
ENDBRANCH   1  18
TORSDOF 2
ENDMDL
MODEL 6
REMARK VINA RESULT:      -7.1      1.877      3.555
REMARK  Name = 
REMARK  3 active torsions:
REMARK  status: ('A' for Active; 'I' for Inactive)
REMARK    1  A    between atoms: C_1  and  O_2
REMARK    2  A    between atoms: O_2  and  C_3
REMARK    3  A    between atoms: C_8  and  C_9
REMARK                            x       y       z     vdW  Elec       q    Type
REMARK                         _______ _______ _______ _____ _____    ______ ____
ROOT
ATOM      1  C   UNL     1       6.307   4.878  18.455  0.00  0.00    +0.000 C 
ATOM      2  O   UNL     1       7.075   3.927  18.195  0.00  0.00    +0.000 OA
ATOM      3  N   UNL     1       5.044   4.665  18.990  0.00  0.00    +0.000 N 
ATOM      4  C   UNL     1       4.073   5.721  19.329  0.00  0.00    +0.000 C 
ATOM      5  C   UNL     1       3.045   5.278  20.368  0.00  0.00    +0.000 C 
ATOM      6  C   UNL     1       2.334   4.062  19.838  0.00  0.00    +0.000 A 
ATOM      7  C   UNL     1       0.964   3.861  20.013  0.00  0.00    +0.000 A 
ATOM      8  C   UNL     1       0.350   2.736  19.456  0.00  0.00    +0.000 A 
ATOM      9  C   UNL     1       1.101   1.805  18.738  0.00  0.00    +0.000 A 
ATOM     10  C   UNL     1       2.472   1.987  18.586  0.00  0.00    +0.000 A 
ATOM     11  C   UNL     1       3.095   3.114  19.132  0.00  0.00    +0.000 A 
ATOM     12  C   UNL     1       4.587   3.279  19.024  0.00  0.00    +0.000 C 
ENDROOT
BRANCH   1  18
ATOM     13  C   UNL     1       6.381   7.070  17.155  0.00  0.00    +0.000 A 
ATOM     14  N   UNL     1       6.920   8.283  16.892  0.00  0.00    +0.000 NA
ATOM     15  C   UNL     1       8.002   8.650  17.604  0.00  0.00    +0.000 A 
ATOM     16  C   UNL     1       8.538   7.890  18.622  0.00  0.00    +0.000 A 
ATOM     17  C   UNL     1       7.932   6.679  18.923  0.00  0.00    +0.000 A 
ATOM     18  C   UNL     1       6.810   6.245  18.198  0.00  0.00    +0.000 A 
BRANCH  13  20
ATOM     19  C   UNL     1       5.978   5.760  15.281  0.00  0.00    +0.000 C 
ATOM     20  O   UNL     1       5.446   6.657  16.246  0.00  0.00    +0.000 OA
ENDBRANCH  13  20
ENDBRANCH   1  18
TORSDOF 2
ENDMDL
MODEL 7
REMARK VINA RESULT:      -7.0      4.091      5.988
REMARK  Name = 
REMARK  3 active torsions:
REMARK  status: ('A' for Active; 'I' for Inactive)
REMARK    1  A    between atoms: C_1  and  O_2
REMARK    2  A    between atoms: O_2  and  C_3
REMARK    3  A    between atoms: C_8  and  C_9
REMARK                            x       y       z     vdW  Elec       q    Type
REMARK                         _______ _______ _______ _____ _____    ______ ____
ROOT
ATOM      1  C   UNL     1       2.590   6.120  19.589  0.00  0.00    +0.000 C 
ATOM      2  O   UNL     1       2.591   5.650  20.747  0.00  0.00    +0.000 OA
ATOM      3  N   UNL     1       2.211   7.432  19.339  0.00  0.00    +0.000 N 
ATOM      4  C   UNL     1       2.180   8.071  18.011  0.00  0.00    +0.000 C 
ATOM      5  C   UNL     1       2.267   9.595  18.078  0.00  0.00    +0.000 C 
ATOM      6  C   UNL     1       1.129  10.093  18.928  0.00  0.00    +0.000 A 
ATOM      7  C   UNL     1       0.413  11.251  18.615  0.00  0.00    +0.000 A 
ATOM      8  C   UNL     1      -0.665  11.638  19.415  0.00  0.00    +0.000 A 
ATOM      9  C   UNL     1      -1.022  10.883  20.532  0.00  0.00    +0.000 A 
ATOM     10  C   UNL     1      -0.292   9.745  20.864  0.00  0.00    +0.000 A 
ATOM     11  C   UNL     1       0.783   9.344  20.066  0.00  0.00    +0.000 A 
ATOM     12  C   UNL     1       1.611   8.151  20.459  0.00  0.00    +0.000 C 
ENDROOT
BRANCH   1  18
ATOM     13  C   UNL     1       2.287   4.182  17.960  0.00  0.00    +0.000 A 
ATOM     14  N   UNL     1       2.756   3.329  17.020  0.00  0.00    +0.000 NA
ATOM     15  C   UNL     1       4.055   3.434  16.679  0.00  0.00    +0.000 A 
ATOM     16  C   UNL     1       4.899   4.401  17.183  0.00  0.00    +0.000 A 
ATOM     17  C   UNL     1       4.384   5.308  18.097  0.00  0.00    +0.000 A 
ATOM     18  C   UNL     1       3.040   5.230  18.496  0.00  0.00    +0.000 A 
BRANCH  13  20
ATOM     19  C   UNL     1       0.997   2.600  19.067  0.00  0.00    +0.000 C 
ATOM     20  O   UNL     1       1.042   3.871  18.434  0.00  0.00    +0.000 OA
ENDBRANCH  13  20
ENDBRANCH   1  18
TORSDOF 2
ENDMDL
MODEL 8
REMARK VINA RESULT:      -6.9      2.794      6.479
REMARK  Name = 
REMARK  3 active torsions:
REMARK  status: ('A' for Active; 'I' for Inactive)
REMARK    1  A    between atoms: C_1  and  O_2
REMARK    2  A    between atoms: O_2  and  C_3
REMARK    3  A    between atoms: C_8  and  C_9
REMARK                            x       y       z     vdW  Elec       q    Type
REMARK                         _______ _______ _______ _____ _____    ______ ____
ROOT
ATOM      1  C   UNL     1       4.482   3.283  19.538  0.00  0.00    +0.000 C 
ATOM      2  O   UNL     1       5.236   2.444  20.078  0.00  0.00    +0.000 OA
ATOM      3  N   UNL     1       4.989   4.338  18.791  0.00  0.00    +0.000 N 
ATOM      4  C   UNL     1       4.181   5.371  18.119  0.00  0.00    +0.000 C 
ATOM      5  C   UNL     1       4.916   6.047  16.963  0.00  0.00    +0.000 C 
ATOM      6  C   UNL     1       6.190   6.644  17.501  0.00  0.00    +0.000 A 
ATOM      7  C   UNL     1       6.670   7.885  17.079  0.00  0.00    +0.000 A 
ATOM      8  C   UNL     1       7.832   8.410  17.649  0.00  0.00    +0.000 A 
ATOM      9  C   UNL     1       8.524   7.695  18.628  0.00  0.00    +0.000 A 
ATOM     10  C   UNL     1       8.064   6.444  19.029  0.00  0.00    +0.000 A 
ATOM     11  C   UNL     1       6.897   5.913  18.471  0.00  0.00    +0.000 A 
ATOM     12  C   UNL     1       6.435   4.535  18.857  0.00  0.00    +0.000 C 
ENDROOT
BRANCH   1  18
ATOM     13  C   UNL     1       2.201   2.430  18.784  0.00  0.00    +0.000 A 
ATOM     14  N   UNL     1       0.857   2.343  18.915  0.00  0.00    +0.000 NA
ATOM     15  C   UNL     1       0.285   3.031  19.922  0.00  0.00    +0.000 A 
ATOM     16  C   UNL     1       1.001   3.752  20.855  0.00  0.00    +0.000 A 
ATOM     17  C   UNL     1       2.383   3.778  20.743  0.00  0.00    +0.000 A 
ATOM     18  C   UNL     1       3.025   3.089  19.700  0.00  0.00    +0.000 A 
BRANCH  13  20
ATOM     19  C   UNL     1       2.651   2.850  16.544  0.00  0.00    +0.000 C 
ATOM     20  O   UNL     1       2.689   1.915  17.614  0.00  0.00    +0.000 OA
ENDBRANCH  13  20
ENDBRANCH   1  18
TORSDOF 2
ENDMDL
MODEL 9
REMARK VINA RESULT:      -6.8      4.042      7.015
REMARK  Name = 
REMARK  3 active torsions:
REMARK  status: ('A' for Active; 'I' for Inactive)
REMARK    1  A    between atoms: C_1  and  O_2
REMARK    2  A    between atoms: O_2  and  C_3
REMARK    3  A    between atoms: C_8  and  C_9
REMARK                            x       y       z     vdW  Elec       q    Type
REMARK                         _______ _______ _______ _____ _____    ______ ____
ROOT
ATOM      1  C   UNL     1       1.885   8.094  19.540  0.00  0.00    +0.000 C 
ATOM      2  O   UNL     1       2.452   8.725  18.621  0.00  0.00    +0.000 OA
ATOM      3  N   UNL     1       2.100   6.734  19.725  0.00  0.00    +0.000 N 
ATOM      4  C   UNL     1       1.479   5.910  20.778  0.00  0.00    +0.000 C 
ATOM      5  C   UNL     1       2.274   4.645  21.093  0.00  0.00    +0.000 C 
ATOM      6  C   UNL     1       2.419   3.851  19.822  0.00  0.00    +0.000 A 
ATOM      7  C   UNL     1       2.326   2.459  19.795  0.00  0.00    +0.000 A 
ATOM      8  C   UNL     1       2.420   1.780  18.578  0.00  0.00    +0.000 A 
ATOM      9  C   UNL     1       2.621   2.484  17.391  0.00  0.00    +0.000 A 
ATOM     10  C   UNL     1       2.745   3.870  17.418  0.00  0.00    +0.000 A 
ATOM     11  C   UNL     1       2.643   4.560  18.629  0.00  0.00    +0.000 A 
ATOM     12  C   UNL     1       2.840   6.051  18.668  0.00  0.00    +0.000 C 
ENDROOT
BRANCH   1  18
ATOM     13  C   UNL     1       0.034   9.780  20.022  0.00  0.00    +0.000 A 
ATOM     14  N   UNL     1      -0.703  10.531  20.872  0.00  0.00    +0.000 NA
ATOM     15  C   UNL     1      -0.399  10.465  22.182  0.00  0.00    +0.000 A 
ATOM     16  C   UNL     1       0.567   9.629  22.700  0.00  0.00    +0.000 A 
ATOM     17  C   UNL     1       1.269   8.817  21.820  0.00  0.00    +0.000 A 
ATOM     18  C   UNL     1       0.999   8.860  20.442  0.00  0.00    +0.000 A 
BRANCH  13  20
ATOM     19  C   UNL     1      -1.468  10.548  18.426  0.00  0.00    +0.000 C 
ATOM     20  O   UNL     1      -0.158  10.070  18.699  0.00  0.00    +0.000 OA
ENDBRANCH  13  20
ENDBRANCH   1  18
TORSDOF 2
ENDMDL
