MODEL 1
REMARK VINA RESULT:      -8.2      0.000      0.000
REMARK  Name = 
REMARK  14 active torsions:
REMARK  status: ('A' for Active; 'I' for Inactive)
REMARK    1  A    between atoms: C_1  and  C_2
REMARK    2  A    between atoms: C_2  and  C_3
REMARK    3  A    between atoms: C_3  and  C_4
REMARK    4  A    between atoms: C_4  and  O_5
REMARK    5  A    between atoms: O_5  and  C_6
REMARK    6  A    between atoms: C_9  and  S_10
REMARK    7  A    between atoms: S_10  and  N_13
REMARK    8  A    between atoms: N_16  and  O_17
REMARK    9  A    between atoms: O_17  and  C_18
REMARK   10  A    between atoms: C_18  and  C_19
REMARK   11  A    between atoms: C_19  and  C_20
REMARK   12  A    between atoms: C_19  and  C_21
REMARK   13  A    between atoms: C_23  and  C_24
REMARK   14  A    between atoms: N_26  and  O_27
REMARK                            x       y       z     vdW  Elec       q    Type
REMARK                         _______ _______ _______ _____ _____    ______ ____
ROOT
ATOM      1  N   UNL     1       5.486   4.549  17.566  0.00  0.00    +0.000 NA
ATOM      2  C   UNL     1       5.439   4.062  16.169  0.00  0.00    +0.000 C 
ATOM      3  C   UNL     1       6.384   5.025  15.498  0.00  0.00    +0.000 C 
ATOM      4  N   UNL     1       6.964   4.861  14.347  0.00  0.00    +0.000 NA
ATOM      5  C   UNL     1       6.528   6.303  16.248  0.00  0.00    +0.000 C 
ATOM      6  C   UNL     1       6.043   5.933  17.648  0.00  0.00    +0.000 C 
ENDROOT
BRANCH   6   7
ATOM      7  C   UNL     1       7.183   6.076  18.662  0.00  0.00    +0.000 C 
ATOM      8  O   UNL     1       8.064   6.947  18.594  0.00  0.00    +0.000 OA
ATOM      9  N   UNL     1       7.141   5.197  19.715  0.00  0.00    +0.000 N 
ATOM     10  H   UNL     1       6.629   4.314  19.692  0.00  0.00    +0.000 HD
BRANCH   9  11
ATOM     11  O   UNL     1       8.130   5.352  20.707  0.00  0.00    +0.000 OA
ATOM     12  H   UNL     1       8.828   4.723  20.424  0.00  0.00    +0.000 HD
ENDBRANCH   9  11
ENDBRANCH   6   7
BRANCH   1  13
ATOM     13  S   UNL     1       4.175   4.147  18.546  0.00  0.00    +0.000 S 
ATOM     14  O   UNL     1       4.669   3.726  19.838  0.00  0.00    +0.000 OA
ATOM     15  O   UNL     1       3.303   3.296  17.756  0.00  0.00    +0.000 OA
BRANCH  13  19
ATOM     16  C   UNL     1       2.075   8.191  18.938  0.00  0.00    +0.000 A 
ATOM     17  C   UNL     1       2.613   7.746  17.721  0.00  0.00    +0.000 A 
ATOM     18  C   UNL     1       3.234   6.515  17.626  0.00  0.00    +0.000 A 
ATOM     19  C   UNL     1       3.349   5.707  18.753  0.00  0.00    +0.000 A 
ATOM     20  C   UNL     1       2.779   6.101  19.966  0.00  0.00    +0.000 A 
ATOM     21  C   UNL     1       2.146   7.356  20.056  0.00  0.00    +0.000 A 
BRANCH  16  22
ATOM     22  O   UNL     1       1.469   9.418  19.079  0.00  0.00    +0.000 OA
BRANCH  22  23
ATOM     23  C   UNL     1       0.451   9.451  20.094  0.00  0.00    +0.000 C 
BRANCH  23  24
ATOM     24  C   UNL     1      -0.380  10.710  19.985  0.00  0.00    +0.000 C 
BRANCH  24  26
ATOM     25  C   UNL     1      -1.845  10.103  18.037  0.00  0.00    +0.000 C 
ATOM     26  C   UNL     1      -0.721  11.002  18.521  0.00  0.00    +0.000 C 
ENDBRANCH  24  26
ENDBRANCH  23  24
ENDBRANCH  22  23
ENDBRANCH  16  22
ENDBRANCH  13  19
ENDBRANCH   1  13
BRANCH   4  27
ATOM     27  O   UNL     1       6.625   3.615  13.802  0.00  0.00    +0.000 OA
BRANCH  27  28
ATOM     28  C   UNL     1       6.324   3.775  12.413  0.00  0.00    +0.000 C 
BRANCH  28  29
ATOM     29  C   UNL     1       5.360   2.668  11.957  0.00  0.00    +0.000 C 
ATOM     30  C   UNL     1       4.194   3.252  11.156  0.00  0.00    +0.000 C 
ATOM     31  C   UNL     1       6.079   1.608  11.121  0.00  0.00    +0.000 C 
ENDBRANCH  28  29
ENDBRANCH  27  28
ENDBRANCH   4  27
TORSDOF 11
ENDMDL
MODEL 2
REMARK VINA RESULT:      -8.1      0.822      1.381
REMARK  Name = 
REMARK  14 active torsions:
REMARK  status: ('A' for Active; 'I' for Inactive)
REMARK    1  A    between atoms: C_1  and  C_2
REMARK    2  A    between atoms: C_2  and  C_3
REMARK    3  A    between atoms: C_3  and  C_4
REMARK    4  A    between atoms: C_4  and  O_5
REMARK    5  A    between atoms: O_5  and  C_6
REMARK    6  A    between atoms: C_9  and  S_10
REMARK    7  A    between atoms: S_10  and  N_13
REMARK    8  A    between atoms: N_16  and  O_17
REMARK    9  A    between atoms: O_17  and  C_18
REMARK   10  A    between atoms: C_18  and  C_19
REMARK   11  A    between atoms: C_19  and  C_20
REMARK   12  A    between atoms: C_19  and  C_21
REMARK   13  A    between atoms: C_23  and  C_24
REMARK   14  A    between atoms: N_26  and  O_27
REMARK                            x       y       z     vdW  Elec       q    Type
REMARK                         _______ _______ _______ _____ _____    ______ ____
ROOT
ATOM      1  N   UNL     1       5.248   4.049  17.408  0.00  0.00    +0.000 NA
ATOM      2  C   UNL     1       5.041   3.870  15.953  0.00  0.00    +0.000 C 
ATOM      3  C   UNL     1       6.133   4.748  15.398  0.00  0.00    +0.000 C 
ATOM      4  N   UNL     1       6.615   4.710  14.191  0.00  0.00    +0.000 NA
ATOM      5  C   UNL     1       6.569   5.798  16.358  0.00  0.00    +0.000 C 
ATOM      6  C   UNL     1       6.081   5.256  17.701  0.00  0.00    +0.000 C 
ENDROOT
BRANCH   6   7
ATOM      7  C   UNL     1       7.270   4.971  18.624  0.00  0.00    +0.000 C 
ATOM      8  O   UNL     1       8.280   4.339  18.276  0.00  0.00    +0.000 OA
ATOM      9  N   UNL     1       7.180   5.519  19.879  0.00  0.00    +0.000 N 
ATOM     10  H   UNL     1       6.297   5.802  20.308  0.00  0.00    +0.000 HD
BRANCH   9  11
ATOM     11  O   UNL     1       8.291   5.343  20.727  0.00  0.00    +0.000 OA
ATOM     12  H   UNL     1       8.985   5.891  20.300  0.00  0.00    +0.000 HD
ENDBRANCH   9  11
ENDBRANCH   6   7
BRANCH   1  13
ATOM     13  S   UNL     1       3.929   3.719  18.402  0.00  0.00    +0.000 S 
ATOM     14  O   UNL     1       4.410   3.213  19.667  0.00  0.00    +0.000 OA
ATOM     15  O   UNL     1       2.976   2.970  17.602  0.00  0.00    +0.000 OA
BRANCH  13  19
ATOM     16  C   UNL     1       2.115   7.831  19.253  0.00  0.00    +0.000 A 
ATOM     17  C   UNL     1       2.184   6.830  20.234  0.00  0.00    +0.000 A 
ATOM     18  C   UNL     1       2.746   5.599  19.955  0.00  0.00    +0.000 A 
ATOM     19  C   UNL     1       3.236   5.332  18.680  0.00  0.00    +0.000 A 
ATOM     20  C   UNL     1       3.226   6.326  17.697  0.00  0.00    +0.000 A 
ATOM     21  C   UNL     1       2.653   7.579  17.989  0.00  0.00    +0.000 A 
BRANCH  16  22
ATOM     22  O   UNL     1       1.542   9.060  19.485  0.00  0.00    +0.000 OA
BRANCH  22  23
ATOM     23  C   UNL     1       0.833   9.594  18.353  0.00  0.00    +0.000 C 
BRANCH  23  24
ATOM     24  C   UNL     1      -0.015  10.779  18.757  0.00  0.00    +0.000 C 
BRANCH  24  26
ATOM     25  C   UNL     1      -2.094   9.725  17.823  0.00  0.00    +0.000 C 
ATOM     26  C   UNL     1      -1.194  10.948  17.796  0.00  0.00    +0.000 C 
ENDBRANCH  24  26
ENDBRANCH  23  24
ENDBRANCH  22  23
ENDBRANCH  16  22
ENDBRANCH  13  19
ENDBRANCH   1  13
BRANCH   4  27
ATOM     27  O   UNL     1       6.003   3.687  13.453  0.00  0.00    +0.000 OA
BRANCH  27  28
ATOM     28  C   UNL     1       6.660   3.561  12.189  0.00  0.00    +0.000 C 
BRANCH  28  29
ATOM     29  C   UNL     1       5.749   2.817  11.199  0.00  0.00    +0.000 C 
ATOM     30  C   UNL     1       5.950   1.304  11.299  0.00  0.00    +0.000 C 
ATOM     31  C   UNL     1       4.276   3.157  11.430  0.00  0.00    +0.000 C 
ENDBRANCH  28  29
ENDBRANCH  27  28
ENDBRANCH   4  27
TORSDOF 11
ENDMDL
MODEL 3
REMARK VINA RESULT:      -8.1      0.896      1.219
REMARK  Name = 
REMARK  14 active torsions:
REMARK  status: ('A' for Active; 'I' for Inactive)
REMARK    1  A    between atoms: C_1  and  C_2
REMARK    2  A    between atoms: C_2  and  C_3
REMARK    3  A    between atoms: C_3  and  C_4
REMARK    4  A    between atoms: C_4  and  O_5
REMARK    5  A    between atoms: O_5  and  C_6
REMARK    6  A    between atoms: C_9  and  S_10
REMARK    7  A    between atoms: S_10  and  N_13
REMARK    8  A    between atoms: N_16  and  O_17
REMARK    9  A    between atoms: O_17  and  C_18
REMARK   10  A    between atoms: C_18  and  C_19
REMARK   11  A    between atoms: C_19  and  C_20
REMARK   12  A    between atoms: C_19  and  C_21
REMARK   13  A    between atoms: C_23  and  C_24
REMARK   14  A    between atoms: N_26  and  O_27
REMARK                            x       y       z     vdW  Elec       q    Type
REMARK                         _______ _______ _______ _____ _____    ______ ____
ROOT
ATOM      1  N   UNL     1       5.085   4.174  17.518  0.00  0.00    +0.000 NA
ATOM      2  C   UNL     1       4.775   4.122  16.072  0.00  0.00    +0.000 C 
ATOM      3  C   UNL     1       5.826   5.049  15.520  0.00  0.00    +0.000 C 
ATOM      4  N   UNL     1       6.222   5.119  14.283  0.00  0.00    +0.000 NA
ATOM      5  C   UNL     1       6.333   6.013  16.535  0.00  0.00    +0.000 C 
ATOM      6  C   UNL     1       5.940   5.353  17.856  0.00  0.00    +0.000 C 
ENDROOT
BRANCH   6   7
ATOM      7  C   UNL     1       7.191   4.992  18.664  0.00  0.00    +0.000 C 
ATOM      8  O   UNL     1       8.142   4.337  18.211  0.00  0.00    +0.000 OA
ATOM      9  N   UNL     1       7.229   5.498  19.939  0.00  0.00    +0.000 N 
ATOM     10  H   UNL     1       6.397   5.797  20.452  0.00  0.00    +0.000 HD
BRANCH   9  11
ATOM     11  O   UNL     1       8.400   5.252  20.683  0.00  0.00    +0.000 OA
ATOM     12  H   UNL     1       8.797   4.482  20.221  0.00  0.00    +0.000 HD
ENDBRANCH   9  11
ENDBRANCH   6   7
BRANCH   1  13
ATOM     13  S   UNL     1       3.839   3.752  18.570  0.00  0.00    +0.000 S 
ATOM     14  O   UNL     1       4.412   3.227  19.789  0.00  0.00    +0.000 OA
ATOM     15  O   UNL     1       2.875   2.989  17.798  0.00  0.00    +0.000 OA
BRANCH  13  19
ATOM     16  C   UNL     1       1.944   7.834  19.390  0.00  0.00    +0.000 A 
ATOM     17  C   UNL     1       2.411   7.472  18.118  0.00  0.00    +0.000 A 
ATOM     18  C   UNL     1       2.970   6.228  17.893  0.00  0.00    +0.000 A 
ATOM     19  C   UNL     1       3.095   5.323  18.943  0.00  0.00    +0.000 A 
ATOM     20  C   UNL     1       2.593   5.636  20.209  0.00  0.00    +0.000 A 
ATOM     21  C   UNL     1       2.023   6.905  20.431  0.00  0.00    +0.000 A 
BRANCH  16  22
ATOM     22  O   UNL     1       1.403   9.070  19.659  0.00  0.00    +0.000 OA
BRANCH  22  23
ATOM     23  C   UNL     1       1.160   9.865  18.486  0.00  0.00    +0.000 C 
BRANCH  23  24
ATOM     24  C   UNL     1      -0.323  10.055  18.260  0.00  0.00    +0.000 C 
BRANCH  24  26
ATOM     25  C   UNL     1      -0.890  11.724  20.049  0.00  0.00    +0.000 C 
ATOM     26  C   UNL     1      -0.731  11.501  18.555  0.00  0.00    +0.000 C 
ENDBRANCH  24  26
ENDBRANCH  23  24
ENDBRANCH  22  23
ENDBRANCH  16  22
ENDBRANCH  13  19
ENDBRANCH   1  13
BRANCH   4  27
ATOM     27  O   UNL     1       5.556   4.163  13.503  0.00  0.00    +0.000 OA
BRANCH  27  28
ATOM     28  C   UNL     1       6.494   3.537  12.624  0.00  0.00    +0.000 C 
BRANCH  28  29
ATOM     29  C   UNL     1       5.756   2.923  11.424  0.00  0.00    +0.000 C 
ATOM     30  C   UNL     1       5.985   1.412  11.352  0.00  0.00    +0.000 C 
ATOM     31  C   UNL     1       4.255   3.213  11.482  0.00  0.00    +0.000 C 
ENDBRANCH  28  29
ENDBRANCH  27  28
ENDBRANCH   4  27
TORSDOF 11
ENDMDL
MODEL 4
REMARK VINA RESULT:      -8.0      0.941      1.755
REMARK  Name = 
REMARK  14 active torsions:
REMARK  status: ('A' for Active; 'I' for Inactive)
REMARK    1  A    between atoms: C_1  and  C_2
REMARK    2  A    between atoms: C_2  and  C_3
REMARK    3  A    between atoms: C_3  and  C_4
REMARK    4  A    between atoms: C_4  and  O_5
REMARK    5  A    between atoms: O_5  and  C_6
REMARK    6  A    between atoms: C_9  and  S_10
REMARK    7  A    between atoms: S_10  and  N_13
REMARK    8  A    between atoms: N_16  and  O_17
REMARK    9  A    between atoms: O_17  and  C_18
REMARK   10  A    between atoms: C_18  and  C_19
REMARK   11  A    between atoms: C_19  and  C_20
REMARK   12  A    between atoms: C_19  and  C_21
REMARK   13  A    between atoms: C_23  and  C_24
REMARK   14  A    between atoms: N_26  and  O_27
REMARK                            x       y       z     vdW  Elec       q    Type
REMARK                         _______ _______ _______ _____ _____    ______ ____
ROOT
ATOM      1  N   UNL     1       5.277   4.179  17.382  0.00  0.00    +0.000 NA
ATOM      2  C   UNL     1       5.093   3.973  15.928  0.00  0.00    +0.000 C 
ATOM      3  C   UNL     1       6.249   4.768  15.377  0.00  0.00    +0.000 C 
ATOM      4  N   UNL     1       6.755   4.668  14.184  0.00  0.00    +0.000 NA
ATOM      5  C   UNL     1       6.725   5.816  16.321  0.00  0.00    +0.000 C 
ATOM      6  C   UNL     1       6.174   5.341  17.664  0.00  0.00    +0.000 C 
ENDROOT
BRANCH   6   7
ATOM      7  C   UNL     1       7.322   5.011  18.624  0.00  0.00    +0.000 C 
ATOM      8  O   UNL     1       8.306   4.321  18.314  0.00  0.00    +0.000 OA
ATOM      9  N   UNL     1       7.229   5.586  19.866  0.00  0.00    +0.000 N 
ATOM     10  H   UNL     1       6.351   5.922  20.267  0.00  0.00    +0.000 HD
BRANCH   9  11
ATOM     11  O   UNL     1       8.306   5.368  20.747  0.00  0.00    +0.000 OA
ATOM     12  H   UNL     1       7.864   5.266  21.617  0.00  0.00    +0.000 HD
ENDBRANCH   9  11
ENDBRANCH   6   7
BRANCH   1  13
ATOM     13  S   UNL     1       3.917   3.956  18.351  0.00  0.00    +0.000 S 
ATOM     14  O   UNL     1       4.343   3.532  19.666  0.00  0.00    +0.000 OA
ATOM     15  O   UNL     1       2.971   3.175  17.575  0.00  0.00    +0.000 OA
BRANCH  13  19
ATOM     16  C   UNL     1       2.186   8.162  18.839  0.00  0.00    +0.000 A 
ATOM     17  C   UNL     1       2.152   7.218  19.876  0.00  0.00    +0.000 A 
ATOM     18  C   UNL     1       2.692   5.956  19.708  0.00  0.00    +0.000 A 
ATOM     19  C   UNL     1       3.261   5.602  18.488  0.00  0.00    +0.000 A 
ATOM     20  C   UNL     1       3.354   6.537  17.454  0.00  0.00    +0.000 A 
ATOM     21  C   UNL     1       2.804   7.821  17.633  0.00  0.00    +0.000 A 
BRANCH  16  22
ATOM     22  O   UNL     1       1.640   9.418  18.960  0.00  0.00    +0.000 OA
BRANCH  22  23
ATOM     23  C   UNL     1       0.358   9.435  19.612  0.00  0.00    +0.000 C 
BRANCH  23  24
ATOM     24  C   UNL     1       0.235  10.630  20.530  0.00  0.00    +0.000 C 
BRANCH  24  26
ATOM     25  C   UNL     1       0.868   9.173  22.475  0.00  0.00    +0.000 C 
ATOM     26  C   UNL     1      -0.135  10.184  21.946  0.00  0.00    +0.000 C 
ENDBRANCH  24  26
ENDBRANCH  23  24
ENDBRANCH  22  23
ENDBRANCH  16  22
ENDBRANCH  13  19
ENDBRANCH   1  13
BRANCH   4  27
ATOM     27  O   UNL     1       6.100   3.664  13.458  0.00  0.00    +0.000 OA
BRANCH  27  28
ATOM     28  C   UNL     1       6.670   3.581  12.149  0.00  0.00    +0.000 C 
BRANCH  28  29
ATOM     29  C   UNL     1       5.746   2.769  11.228  0.00  0.00    +0.000 C 
ATOM     30  C   UNL     1       5.929   1.267  11.453  0.00  0.00    +0.000 C 
ATOM     31  C   UNL     1       4.278   3.145  11.434  0.00  0.00    +0.000 C 
ENDBRANCH  28  29
ENDBRANCH  27  28
ENDBRANCH   4  27
TORSDOF 11
ENDMDL
MODEL 5
REMARK VINA RESULT:      -7.9      1.435      1.964
REMARK  Name = 
REMARK  14 active torsions:
REMARK  status: ('A' for Active; 'I' for Inactive)
REMARK    1  A    between atoms: C_1  and  C_2
REMARK    2  A    between atoms: C_2  and  C_3
REMARK    3  A    between atoms: C_3  and  C_4
REMARK    4  A    between atoms: C_4  and  O_5
REMARK    5  A    between atoms: O_5  and  C_6
REMARK    6  A    between atoms: C_9  and  S_10
REMARK    7  A    between atoms: S_10  and  N_13
REMARK    8  A    between atoms: N_16  and  O_17
REMARK    9  A    between atoms: O_17  and  C_18
REMARK   10  A    between atoms: C_18  and  C_19
REMARK   11  A    between atoms: C_19  and  C_20
REMARK   12  A    between atoms: C_19  and  C_21
REMARK   13  A    between atoms: C_23  and  C_24
REMARK   14  A    between atoms: N_26  and  O_27
REMARK                            x       y       z     vdW  Elec       q    Type
REMARK                         _______ _______ _______ _____ _____    ______ ____
ROOT
ATOM      1  N   UNL     1       4.644   4.130  17.403  0.00  0.00    +0.000 NA
ATOM      2  C   UNL     1       4.843   3.860  15.961  0.00  0.00    +0.000 C 
ATOM      3  C   UNL     1       6.019   4.753  15.662  0.00  0.00    +0.000 C 
ATOM      4  N   UNL     1       6.811   4.669  14.634  0.00  0.00    +0.000 NA
ATOM      5  C   UNL     1       6.150   5.874  16.632  0.00  0.00    +0.000 C 
ATOM      6  C   UNL     1       5.332   5.387  17.828  0.00  0.00    +0.000 C 
ENDROOT
BRANCH   6   7
ATOM      7  C   UNL     1       6.235   5.208  19.053  0.00  0.00    +0.000 C 
ATOM      8  O   UNL     1       5.915   4.556  20.058  0.00  0.00    +0.000 OA
ATOM      9  N   UNL     1       7.479   5.779  18.950  0.00  0.00    +0.000 N 
ATOM     10  H   UNL     1       7.700   6.533  18.298  0.00  0.00    +0.000 HD
BRANCH   9  11
ATOM     11  O   UNL     1       8.363   5.566  20.026  0.00  0.00    +0.000 OA
ATOM     12  H   UNL     1       7.996   6.143  20.731  0.00  0.00    +0.000 HD
ENDBRANCH   9  11
ENDBRANCH   6   7
BRANCH   1  13
ATOM     13  S   UNL     1       3.115   3.797  18.026  0.00  0.00    +0.000 S 
ATOM     14  O   UNL     1       3.247   2.852  19.112  0.00  0.00    +0.000 OA
ATOM     15  O   UNL     1       2.247   3.531  16.893  0.00  0.00    +0.000 OA
BRANCH  13  19
ATOM     16  C   UNL     1       1.829   7.757  19.921  0.00  0.00    +0.000 A 
ATOM     17  C   UNL     1       1.870   6.560  20.652  0.00  0.00    +0.000 A 
ATOM     18  C   UNL     1       2.272   5.378  20.060  0.00  0.00    +0.000 A 
ATOM     19  C   UNL     1       2.624   5.361  18.713  0.00  0.00    +0.000 A 
ATOM     20  C   UNL     1       2.641   6.546  17.973  0.00  0.00    +0.000 A 
ATOM     21  C   UNL     1       2.232   7.747  18.583  0.00  0.00    +0.000 A 
BRANCH  16  22
ATOM     22  O   UNL     1       1.413   8.948  20.469  0.00  0.00    +0.000 OA
BRANCH  22  23
ATOM     23  C   UNL     1       0.225   8.836  21.271  0.00  0.00    +0.000 C 
BRANCH  23  24
ATOM     24  C   UNL     1       0.489   9.280  22.692  0.00  0.00    +0.000 C 
BRANCH  24  26
ATOM     25  C   UNL     1      -0.746  11.438  22.337  0.00  0.00    +0.000 C 
ATOM     26  C   UNL     1      -0.640  10.185  23.190  0.00  0.00    +0.000 C 
ENDBRANCH  24  26
ENDBRANCH  23  24
ENDBRANCH  22  23
ENDBRANCH  16  22
ENDBRANCH  13  19
ENDBRANCH   1  13
BRANCH   4  27
ATOM     27  O   UNL     1       6.450   3.579  13.829  0.00  0.00    +0.000 OA
BRANCH  27  28
ATOM     28  C   UNL     1       5.866   4.064  12.616  0.00  0.00    +0.000 C 
BRANCH  28  29
ATOM     29  C   UNL     1       4.963   2.982  12.003  0.00  0.00    +0.000 C 
ATOM     30  C   UNL     1       4.079   3.565  10.899  0.00  0.00    +0.000 C 
ATOM     31  C   UNL     1       5.783   1.818  11.445  0.00  0.00    +0.000 C 
ENDBRANCH  28  29
ENDBRANCH  27  28
ENDBRANCH   4  27
TORSDOF 11
ENDMDL
MODEL 6
REMARK VINA RESULT:      -7.8      1.287      1.570
REMARK  Name = 
REMARK  14 active torsions:
REMARK  status: ('A' for Active; 'I' for Inactive)
REMARK    1  A    between atoms: C_1  and  C_2
REMARK    2  A    between atoms: C_2  and  C_3
REMARK    3  A    between atoms: C_3  and  C_4
REMARK    4  A    between atoms: C_4  and  O_5
REMARK    5  A    between atoms: O_5  and  C_6
REMARK    6  A    between atoms: C_9  and  S_10
REMARK    7  A    between atoms: S_10  and  N_13
REMARK    8  A    between atoms: N_16  and  O_17
REMARK    9  A    between atoms: O_17  and  C_18
REMARK   10  A    between atoms: C_18  and  C_19
REMARK   11  A    between atoms: C_19  and  C_20
REMARK   12  A    between atoms: C_19  and  C_21
REMARK   13  A    between atoms: C_23  and  C_24
REMARK   14  A    between atoms: N_26  and  O_27
REMARK                            x       y       z     vdW  Elec       q    Type
REMARK                         _______ _______ _______ _____ _____    ______ ____
ROOT
ATOM      1  N   UNL     1       4.974   4.230  17.436  0.00  0.00    +0.000 NA
ATOM      2  C   UNL     1       4.666   4.262  15.989  0.00  0.00    +0.000 C 
ATOM      3  C   UNL     1       5.721   5.217  15.492  0.00  0.00    +0.000 C 
ATOM      4  N   UNL     1       6.119   5.356  14.263  0.00  0.00    +0.000 NA
ATOM      5  C   UNL     1       6.226   6.120  16.563  0.00  0.00    +0.000 C 
ATOM      6  C   UNL     1       5.829   5.387  17.843  0.00  0.00    +0.000 C 
ENDROOT
BRANCH   6   7
ATOM      7  C   UNL     1       7.078   4.979  18.632  0.00  0.00    +0.000 C 
ATOM      8  O   UNL     1       8.011   4.316  18.155  0.00  0.00    +0.000 OA
ATOM      9  N   UNL     1       7.135   5.452  19.919  0.00  0.00    +0.000 N 
ATOM     10  H   UNL     1       6.314   5.755  20.445  0.00  0.00    +0.000 HD
BRANCH   9  11
ATOM     11  O   UNL     1       8.306   5.161  20.647  0.00  0.00    +0.000 OA
ATOM     12  H   UNL     1       9.021   5.353  20.002  0.00  0.00    +0.000 HD
ENDBRANCH   9  11
ENDBRANCH   6   7
BRANCH   1  13
ATOM     13  S   UNL     1       3.724   3.752  18.460  0.00  0.00    +0.000 S 
ATOM     14  O   UNL     1       4.292   3.123  19.631  0.00  0.00    +0.000 OA
ATOM     15  O   UNL     1       2.742   3.069  17.636  0.00  0.00    +0.000 OA
BRANCH  13  19
ATOM     16  C   UNL     1       1.899   7.787  19.603  0.00  0.00    +0.000 A 
ATOM     17  C   UNL     1       2.246   7.475  18.280  0.00  0.00    +0.000 A 
ATOM     18  C   UNL     1       2.786   6.244  17.958  0.00  0.00    +0.000 A 
ATOM     19  C   UNL     1       3.012   5.302  18.958  0.00  0.00    +0.000 A 
ATOM     20  C   UNL     1       2.630   5.566  20.276  0.00  0.00    +0.000 A 
ATOM     21  C   UNL     1       2.078   6.821  20.597  0.00  0.00    +0.000 A 
BRANCH  16  22
ATOM     22  O   UNL     1       1.380   9.008  19.967  0.00  0.00    +0.000 OA
BRANCH  22  23
ATOM     23  C   UNL     1       0.337   8.926  20.954  0.00  0.00    +0.000 C 
BRANCH  23  24
ATOM     24  C   UNL     1       0.001  10.295  21.500  0.00  0.00    +0.000 C 
BRANCH  24  26
ATOM     25  C   UNL     1      -1.607  11.254  23.174  0.00  0.00    +0.000 C 
ATOM     26  C   UNL     1      -0.558  10.185  22.921  0.00  0.00    +0.000 C 
ENDBRANCH  24  26
ENDBRANCH  23  24
ENDBRANCH  22  23
ENDBRANCH  16  22
ENDBRANCH  13  19
ENDBRANCH   1  13
BRANCH   4  27
ATOM     27  O   UNL     1       5.454   4.447  13.429  0.00  0.00    +0.000 OA
BRANCH  27  28
ATOM     28  C   UNL     1       6.392   3.484  12.940  0.00  0.00    +0.000 C 
BRANCH  28  29
ATOM     29  C   UNL     1       5.667   2.446  12.069  0.00  0.00    +0.000 C 
ATOM     30  C   UNL     1       4.401   3.037  11.447  0.00  0.00    +0.000 C 
ATOM     31  C   UNL     1       6.579   1.907  10.965  0.00  0.00    +0.000 C 
ENDBRANCH  28  29
ENDBRANCH  27  28
ENDBRANCH   4  27
TORSDOF 11
ENDMDL
MODEL 7
REMARK VINA RESULT:      -7.8      2.032      7.712
REMARK  Name = 
REMARK  14 active torsions:
REMARK  status: ('A' for Active; 'I' for Inactive)
REMARK    1  A    between atoms: C_1  and  C_2
REMARK    2  A    between atoms: C_2  and  C_3
REMARK    3  A    between atoms: C_3  and  C_4
REMARK    4  A    between atoms: C_4  and  O_5
REMARK    5  A    between atoms: O_5  and  C_6
REMARK    6  A    between atoms: C_9  and  S_10
REMARK    7  A    between atoms: S_10  and  N_13
REMARK    8  A    between atoms: N_16  and  O_17
REMARK    9  A    between atoms: O_17  and  C_18
REMARK   10  A    between atoms: C_18  and  C_19
REMARK   11  A    between atoms: C_19  and  C_20
REMARK   12  A    between atoms: C_19  and  C_21
REMARK   13  A    between atoms: C_23  and  C_24
REMARK   14  A    between atoms: N_26  and  O_27
REMARK                            x       y       z     vdW  Elec       q    Type
REMARK                         _______ _______ _______ _____ _____    ______ ____
ROOT
ATOM      1  N   UNL     1       3.789   5.302  19.040  0.00  0.00    +0.000 NA
ATOM      2  C   UNL     1       3.755   6.638  18.403  0.00  0.00    +0.000 C 
ATOM      3  C   UNL     1       2.291   6.758  18.069  0.00  0.00    +0.000 C 
ATOM      4  N   UNL     1       1.649   7.855  17.794  0.00  0.00    +0.000 NA
ATOM      5  C   UNL     1       1.616   5.435  17.962  0.00  0.00    +0.000 C 
ATOM      6  C   UNL     1       2.565   4.507  18.718  0.00  0.00    +0.000 C 
ENDROOT
BRANCH   6   7
ATOM      7  C   UNL     1       1.869   3.926  19.954  0.00  0.00    +0.000 C 
ATOM      8  O   UNL     1       0.709   3.487  19.952  0.00  0.00    +0.000 OA
ATOM      9  N   UNL     1       2.644   3.863  21.085  0.00  0.00    +0.000 N 
ATOM     10  H   UNL     1       3.478   4.435  21.229  0.00  0.00    +0.000 HD
BRANCH   9  11
ATOM     11  O   UNL     1       2.061   3.261  22.218  0.00  0.00    +0.000 OA
ATOM     12  H   UNL     1       1.112   3.498  22.130  0.00  0.00    +0.000 HD
ENDBRANCH   9  11
ENDBRANCH   6   7
BRANCH   1  13
ATOM     13  S   UNL     1       5.279   4.516  19.058  0.00  0.00    +0.000 S 
ATOM     14  O   UNL     1       5.096   3.176  19.570  0.00  0.00    +0.000 OA
ATOM     15  O   UNL     1       6.231   5.431  19.660  0.00  0.00    +0.000 OA
BRANCH  13  19
ATOM     16  C   UNL     1       6.439   4.264  14.641  0.00  0.00    +0.000 A 
ATOM     17  C   UNL     1       7.327   4.740  15.617  0.00  0.00    +0.000 A 
ATOM     18  C   UNL     1       6.956   4.796  16.948  0.00  0.00    +0.000 A 
ATOM     19  C   UNL     1       5.679   4.396  17.331  0.00  0.00    +0.000 A 
ATOM     20  C   UNL     1       4.792   3.871  16.387  0.00  0.00    +0.000 A 
ATOM     21  C   UNL     1       5.176   3.815  15.034  0.00  0.00    +0.000 A 
BRANCH  16  22
ATOM     22  O   UNL     1       6.762   4.213  13.305  0.00  0.00    +0.000 OA
BRANCH  22  23
ATOM     23  C   UNL     1       5.956   3.295  12.546  0.00  0.00    +0.000 C 
BRANCH  23  24
ATOM     24  C   UNL     1       4.695   3.966  12.050  0.00  0.00    +0.000 C 
BRANCH  24  26
ATOM     25  C   UNL     1       3.256   3.889   9.993  0.00  0.00    +0.000 C 
ATOM     26  C   UNL     1       3.962   3.064  11.055  0.00  0.00    +0.000 C 
ENDBRANCH  24  26
ENDBRANCH  23  24
ENDBRANCH  22  23
ENDBRANCH  16  22
ENDBRANCH  13  19
ENDBRANCH   1  13
BRANCH   4  27
ATOM     27  O   UNL     1       2.507   8.959  17.892  0.00  0.00    +0.000 OA
BRANCH  27  28
ATOM     28  C   UNL     1       1.755  10.105  18.301  0.00  0.00    +0.000 C 
BRANCH  28  29
ATOM     29  C   UNL     1       0.386   9.664  18.842  0.00  0.00    +0.000 C 
ATOM     30  C   UNL     1       0.267   9.955  20.340  0.00  0.00    +0.000 C 
ATOM     31  C   UNL     1      -0.759  10.349  18.093  0.00  0.00    +0.000 C 
ENDBRANCH  28  29
ENDBRANCH  27  28
ENDBRANCH   4  27
TORSDOF 11
ENDMDL
MODEL 8
REMARK VINA RESULT:      -7.7      1.129      1.758
REMARK  Name = 
REMARK  14 active torsions:
REMARK  status: ('A' for Active; 'I' for Inactive)
REMARK    1  A    between atoms: C_1  and  C_2
REMARK    2  A    between atoms: C_2  and  C_3
REMARK    3  A    between atoms: C_3  and  C_4
REMARK    4  A    between atoms: C_4  and  O_5
REMARK    5  A    between atoms: O_5  and  C_6
REMARK    6  A    between atoms: C_9  and  S_10
REMARK    7  A    between atoms: S_10  and  N_13
REMARK    8  A    between atoms: N_16  and  O_17
REMARK    9  A    between atoms: O_17  and  C_18
REMARK   10  A    between atoms: C_18  and  C_19
REMARK   11  A    between atoms: C_19  and  C_20
REMARK   12  A    between atoms: C_19  and  C_21
REMARK   13  A    between atoms: C_23  and  C_24
REMARK   14  A    between atoms: N_26  and  O_27
REMARK                            x       y       z     vdW  Elec       q    Type
REMARK                         _______ _______ _______ _____ _____    ______ ____
ROOT
ATOM      1  N   UNL     1       4.604   4.352  17.482  0.00  0.00    +0.000 NA
ATOM      2  C   UNL     1       4.710   4.075  16.032  0.00  0.00    +0.000 C 
ATOM      3  C   UNL     1       5.951   4.854  15.681  0.00  0.00    +0.000 C 
ATOM      4  N   UNL     1       6.683   4.703  14.618  0.00  0.00    +0.000 NA
ATOM      5  C   UNL     1       6.233   5.951  16.648  0.00  0.00    +0.000 C 
ATOM      6  C   UNL     1       5.428   5.535  17.879  0.00  0.00    +0.000 C 
ENDROOT
BRANCH   6   7
ATOM      7  C   UNL     1       6.365   5.262  19.060  0.00  0.00    +0.000 C 
ATOM      8  O   UNL     1       6.054   4.574  20.044  0.00  0.00    +0.000 OA
ATOM      9  N   UNL     1       7.626   5.788  18.939  0.00  0.00    +0.000 N 
ATOM     10  H   UNL     1       7.855   6.564  18.316  0.00  0.00    +0.000 HD
BRANCH   9  11
ATOM     11  O   UNL     1       8.538   5.489  19.971  0.00  0.00    +0.000 OA
ATOM     12  H   UNL     1       8.193   6.010  20.729  0.00  0.00    +0.000 HD
ENDBRANCH   9  11
ENDBRANCH   6   7
BRANCH   1  13
ATOM     13  S   UNL     1       3.080   4.162  18.175  0.00  0.00    +0.000 S 
ATOM     14  O   UNL     1       3.216   3.429  19.413  0.00  0.00    +0.000 OA
ATOM     15  O   UNL     1       2.192   3.706  17.120  0.00  0.00    +0.000 OA
BRANCH  13  19
ATOM     16  C   UNL     1       1.910   8.496  19.053  0.00  0.00    +0.000 A 
ATOM     17  C   UNL     1       2.206   8.053  17.755  0.00  0.00    +0.000 A 
ATOM     18  C   UNL     1       2.547   6.735  17.513  0.00  0.00    +0.000 A 
ATOM     19  C   UNL     1       2.620   5.832  18.570  0.00  0.00    +0.000 A 
ATOM     20  C   UNL     1       2.282   6.233  19.866  0.00  0.00    +0.000 A 
ATOM     21  C   UNL     1       1.934   7.576  20.104  0.00  0.00    +0.000 A 
BRANCH  16  22
ATOM     22  O   UNL     1       1.589   9.803  19.336  0.00  0.00    +0.000 OA
BRANCH  22  23
ATOM     23  C   UNL     1       0.246   9.979  19.822  0.00  0.00    +0.000 C 
BRANCH  23  24
ATOM     24  C   UNL     1       0.248  10.608  21.197  0.00  0.00    +0.000 C 
BRANCH  24  26
ATOM     25  C   UNL     1       0.129   9.440  23.418  0.00  0.00    +0.000 C 
ATOM     26  C   UNL     1      -0.634   9.804  22.156  0.00  0.00    +0.000 C 
ENDBRANCH  24  26
ENDBRANCH  23  24
ENDBRANCH  22  23
ENDBRANCH  16  22
ENDBRANCH  13  19
ENDBRANCH   1  13
BRANCH   4  27
ATOM     27  O   UNL     1       6.184   3.659  13.826  0.00  0.00    +0.000 OA
BRANCH  27  28
ATOM     28  C   UNL     1       6.700   3.787  12.499  0.00  0.00    +0.000 C 
BRANCH  28  29
ATOM     29  C   UNL     1       5.768   3.075  11.506  0.00  0.00    +0.000 C 
ATOM     30  C   UNL     1       5.982   1.561  11.541  0.00  0.00    +0.000 C 
ATOM     31  C   UNL     1       4.299   3.394  11.789  0.00  0.00    +0.000 C 
ENDBRANCH  28  29
ENDBRANCH  27  28
ENDBRANCH   4  27
TORSDOF 11
ENDMDL
MODEL 9
REMARK VINA RESULT:      -7.7      2.039      7.683
REMARK  Name = 
REMARK  14 active torsions:
REMARK  status: ('A' for Active; 'I' for Inactive)
REMARK    1  A    between atoms: C_1  and  C_2
REMARK    2  A    between atoms: C_2  and  C_3
REMARK    3  A    between atoms: C_3  and  C_4
REMARK    4  A    between atoms: C_4  and  O_5
REMARK    5  A    between atoms: O_5  and  C_6
REMARK    6  A    between atoms: C_9  and  S_10
REMARK    7  A    between atoms: S_10  and  N_13
REMARK    8  A    between atoms: N_16  and  O_17
REMARK    9  A    between atoms: O_17  and  C_18
REMARK   10  A    between atoms: C_18  and  C_19
REMARK   11  A    between atoms: C_19  and  C_20
REMARK   12  A    between atoms: C_19  and  C_21
REMARK   13  A    between atoms: C_23  and  C_24
REMARK   14  A    between atoms: N_26  and  O_27
REMARK                            x       y       z     vdW  Elec       q    Type
REMARK                         _______ _______ _______ _____ _____    ______ ____
ROOT
ATOM      1  N   UNL     1       4.018   5.369  19.088  0.00  0.00    +0.000 NA
ATOM      2  C   UNL     1       3.858   6.540  18.198  0.00  0.00    +0.000 C 
ATOM      3  C   UNL     1       2.360   6.576  18.038  0.00  0.00    +0.000 C 
ATOM      4  N   UNL     1       1.651   7.585  17.628  0.00  0.00    +0.000 NA
ATOM      5  C   UNL     1       1.724   5.255  18.298  0.00  0.00    +0.000 C 
ATOM      6  C   UNL     1       2.792   4.514  19.101  0.00  0.00    +0.000 C 
ENDROOT
BRANCH   6   7
ATOM      7  C   UNL     1       2.277   4.201  20.510  0.00  0.00    +0.000 C 
ATOM      8  O   UNL     1       1.996   5.068  21.351  0.00  0.00    +0.000 OA
ATOM      9  N   UNL     1       2.084   2.869  20.778  0.00  0.00    +0.000 N 
ATOM     10  H   UNL     1       2.538   2.118  20.256  0.00  0.00    +0.000 HD
BRANCH   9  11
ATOM     11  O   UNL     1       1.537   2.551  22.037  0.00  0.00    +0.000 OA
ATOM     12  H   UNL     1       2.129   1.839  22.362  0.00  0.00    +0.000 HD
ENDBRANCH   9  11
ENDBRANCH   6   7
BRANCH   1  13
ATOM     13  S   UNL     1       5.526   4.616  19.076  0.00  0.00    +0.000 S 
ATOM     14  O   UNL     1       5.376   3.260  19.553  0.00  0.00    +0.000 OA
ATOM     15  O   UNL     1       6.462   5.537  19.695  0.00  0.00    +0.000 OA
BRANCH  13  19
ATOM     16  C   UNL     1       6.408   4.372  14.594  0.00  0.00    +0.000 A 
ATOM     17  C   UNL     1       5.255   3.805  15.158  0.00  0.00    +0.000 A 
ATOM     18  C   UNL     1       5.006   3.901  16.514  0.00  0.00    +0.000 A 
ATOM     19  C   UNL     1       5.916   4.551  17.343  0.00  0.00    +0.000 A 
ATOM     20  C   UNL     1       7.047   5.169  16.803  0.00  0.00    +0.000 A 
ATOM     21  C   UNL     1       7.294   5.068  15.420  0.00  0.00    +0.000 A 
BRANCH  16  22
ATOM     22  O   UNL     1       6.702   4.278  13.254  0.00  0.00    +0.000 OA
BRANCH  22  23
ATOM     23  C   UNL     1       6.013   3.210  12.581  0.00  0.00    +0.000 C 
BRANCH  23  24
ATOM     24  C   UNL     1       5.334   3.711  11.327  0.00  0.00    +0.000 C 
BRANCH  24  26
ATOM     25  C   UNL     1       3.162   3.782  10.067  0.00  0.00    +0.000 C 
ATOM     26  C   UNL     1       3.918   3.140  11.218  0.00  0.00    +0.000 C 
ENDBRANCH  24  26
ENDBRANCH  23  24
ENDBRANCH  22  23
ENDBRANCH  16  22
ENDBRANCH  13  19
ENDBRANCH   1  13
BRANCH   4  27
ATOM     27  O   UNL     1       2.475   8.692  17.381  0.00  0.00    +0.000 OA
BRANCH  27  28
ATOM     28  C   UNL     1       2.269   9.669  18.405  0.00  0.00    +0.000 C 
BRANCH  28  29
ATOM     29  C   UNL     1       0.813   9.615  18.894  0.00  0.00    +0.000 C 
ATOM     30  C   UNL     1       0.748   9.366  20.402  0.00  0.00    +0.000 C 
ATOM     31  C   UNL     1       0.060  10.902  18.551  0.00  0.00    +0.000 C 
ENDBRANCH  28  29
ENDBRANCH  27  28
ENDBRANCH   4  27
TORSDOF 11
ENDMDL
