MODEL 1
REMARK VINA RESULT:      -7.3      0.000      0.000
REMARK  Name = 
REMARK  5 active torsions:
REMARK  status: ('A' for Active; 'I' for Inactive)
REMARK    1  A    between atoms: C_1  and  C_2
REMARK    2  A    between atoms: C_6  and  C_7
REMARK    3  A    between atoms: C_7  and  N_8
REMARK    4  A    between atoms: N_8  and  C_9
REMARK    5  A    between atoms: C_10  and  C_12
REMARK                            x       y       z     vdW  Elec       q    Type
REMARK                         _______ _______ _______ _____ _____    ______ ____
ROOT
ATOM      1  N   UNL     1       5.868   5.103  18.029  0.00  0.00    +0.000 N 
ATOM      2  C   UNL     1       6.004   5.332  19.461  0.00  0.00    +0.000 C 
ATOM      3  C   UNL     1       7.011   4.692  17.331  0.00  0.00    +0.000 C 
ATOM      4  O   UNL     1       8.072   4.390  17.870  0.00  0.00    +0.000 OA
ENDROOT
BRANCH   3   5
ATOM      5  C   UNL     1       6.989   4.665  15.805  0.00  0.00    +0.000 C 
ATOM      6  N   UNL     1       7.661   5.558  15.145  0.00  0.00    +0.000 NA
ATOM      7  N   UNL     1       7.729   5.437  13.792  0.00  0.00    +0.000 N 
ATOM      8  C   UNL     1       6.992   4.579  13.014  0.00  0.00    +0.000 C 
ATOM      9  O   UNL     1       7.176   4.486  11.801  0.00  0.00    +0.000 OA
ATOM     10  C   UNL     1       5.892   3.842  13.726  0.00  0.00    +0.000 C 
ATOM     11  C   UNL     1       6.251   3.521  15.160  0.00  0.00    +0.000 C 
ATOM     12  H   UNL     1       8.409   6.021  13.316  0.00  0.00    +0.000 HD
ENDBRANCH   3   5
BRANCH   1  13
ATOM     13  C   UNL     1       4.617   5.531  17.404  0.00  0.00    +0.000 C 
BRANCH  13  19
ATOM     14  C   UNL     1       2.240   6.248  19.825  0.00  0.00    +0.000 C 
ATOM     15  C   UNL     1       2.371   5.139  18.848  0.00  0.00    +0.000 A 
ATOM     16  N   UNL     1       1.337   4.200  18.871  0.00  0.00    +0.000 NA
ATOM     17  N   UNL     1       1.505   3.238  17.986  0.00  0.00    +0.000 NA
ATOM     18  S   UNL     1       2.897   3.412  17.102  0.00  0.00    +0.000 S 
ATOM     19  C   UNL     1       3.360   4.889  17.897  0.00  0.00    +0.000 A 
ENDBRANCH  13  19
ENDBRANCH   1  13
TORSDOF 3
ENDMDL
MODEL 2
REMARK VINA RESULT:      -7.2      1.232      1.649
REMARK  Name = 
REMARK  5 active torsions:
REMARK  status: ('A' for Active; 'I' for Inactive)
REMARK    1  A    between atoms: C_1  and  C_2
REMARK    2  A    between atoms: C_6  and  C_7
REMARK    3  A    between atoms: C_7  and  N_8
REMARK    4  A    between atoms: N_8  and  C_9
REMARK    5  A    between atoms: C_10  and  C_12
REMARK                            x       y       z     vdW  Elec       q    Type
REMARK                         _______ _______ _______ _____ _____    ______ ____
ROOT
ATOM      1  N   UNL     1       5.443   4.696  18.055  0.00  0.00    +0.000 N 
ATOM      2  C   UNL     1       5.376   4.901  19.496  0.00  0.00    +0.000 C 
ATOM      3  C   UNL     1       6.716   4.626  17.474  0.00  0.00    +0.000 C 
ATOM      4  O   UNL     1       7.762   4.595  18.116  0.00  0.00    +0.000 OA
ENDROOT
BRANCH   3   5
ATOM      5  C   UNL     1       6.848   4.650  15.954  0.00  0.00    +0.000 C 
ATOM      6  N   UNL     1       7.570   5.572  15.394  0.00  0.00    +0.000 NA
ATOM      7  N   UNL     1       7.775   5.497  14.052  0.00  0.00    +0.000 N 
ATOM      8  C   UNL     1       7.134   4.656  13.175  0.00  0.00    +0.000 C 
ATOM      9  O   UNL     1       7.442   4.606  11.985  0.00  0.00    +0.000 OA
ATOM     10  C   UNL     1       5.981   3.883  13.749  0.00  0.00    +0.000 C 
ATOM     11  C   UNL     1       6.198   3.518  15.201  0.00  0.00    +0.000 C 
ATOM     12  H   UNL     1       8.491   6.105  13.666  0.00  0.00    +0.000 HD
ENDBRANCH   3   5
BRANCH   1  13
ATOM     13  C   UNL     1       4.190   4.802  17.310  0.00  0.00    +0.000 C 
BRANCH  13  19
ATOM     14  C   UNL     1       3.925   1.442  18.120  0.00  0.00    +0.000 C 
ATOM     15  C   UNL     1       2.927   2.536  18.054  0.00  0.00    +0.000 A 
ATOM     16  N   UNL     1       1.623   2.175  18.404  0.00  0.00    +0.000 NA
ATOM     17  N   UNL     1       0.779   3.184  18.325  0.00  0.00    +0.000 NA
ATOM     18  S   UNL     1       1.502   4.592  17.830  0.00  0.00    +0.000 S 
ATOM     19  C   UNL     1       3.084   3.879  17.710  0.00  0.00    +0.000 A 
ENDBRANCH  13  19
ENDBRANCH   1  13
TORSDOF 3
ENDMDL
MODEL 3
REMARK VINA RESULT:      -7.0      3.368      6.741
REMARK  Name = 
REMARK  5 active torsions:
REMARK  status: ('A' for Active; 'I' for Inactive)
REMARK    1  A    between atoms: C_1  and  C_2
REMARK    2  A    between atoms: C_6  and  C_7
REMARK    3  A    between atoms: C_7  and  N_8
REMARK    4  A    between atoms: N_8  and  C_9
REMARK    5  A    between atoms: C_10  and  C_12
REMARK                            x       y       z     vdW  Elec       q    Type
REMARK                         _______ _______ _______ _____ _____    ______ ____
ROOT
ATOM      1  N   UNL     1       3.448   5.991  17.744  0.00  0.00    +0.000 N 
ATOM      2  C   UNL     1       3.947   7.168  17.046  0.00  0.00    +0.000 C 
ATOM      3  C   UNL     1       2.625   6.205  18.859  0.00  0.00    +0.000 C 
ATOM      4  O   UNL     1       2.200   7.306  19.196  0.00  0.00    +0.000 OA
ENDROOT
BRANCH   3   5
ATOM      5  C   UNL     1       2.268   5.029  19.764  0.00  0.00    +0.000 C 
ATOM      6  N   UNL     1       2.862   4.909  20.912  0.00  0.00    +0.000 NA
ATOM      7  N   UNL     1       2.437   3.928  21.752  0.00  0.00    +0.000 N 
ATOM      8  C   UNL     1       1.572   2.908  21.441  0.00  0.00    +0.000 C 
ATOM      9  O   UNL     1       1.184   2.108  22.291  0.00  0.00    +0.000 OA
ATOM     10  C   UNL     1       1.215   2.783  19.987  0.00  0.00    +0.000 C 
ATOM     11  C   UNL     1       1.158   4.126  19.292  0.00  0.00    +0.000 C 
ATOM     12  H   UNL     1       2.773   3.971  22.709  0.00  0.00    +0.000 HD
ENDBRANCH   3   5
BRANCH   1  13
ATOM     13  C   UNL     1       4.020   4.701  17.364  0.00  0.00    +0.000 C 
BRANCH  13  19
ATOM     14  C   UNL     1       6.444   4.129  14.952  0.00  0.00    +0.000 C 
ATOM     15  C   UNL     1       6.525   4.386  16.411  0.00  0.00    +0.000 A 
ATOM     16  N   UNL     1       7.819   4.435  16.936  0.00  0.00    +0.000 NA
ATOM     17  N   UNL     1       7.832   4.663  18.234  0.00  0.00    +0.000 NA
ATOM     18  S   UNL     1       6.310   4.821  18.874  0.00  0.00    +0.000 S 
ATOM     19  C   UNL     1       5.512   4.600  17.345  0.00  0.00    +0.000 A 
ENDBRANCH  13  19
ENDBRANCH   1  13
TORSDOF 3
ENDMDL
MODEL 4
REMARK VINA RESULT:      -6.9      2.806      4.306
REMARK  Name = 
REMARK  5 active torsions:
REMARK  status: ('A' for Active; 'I' for Inactive)
REMARK    1  A    between atoms: C_1  and  C_2
REMARK    2  A    between atoms: C_6  and  C_7
REMARK    3  A    between atoms: C_7  and  N_8
REMARK    4  A    between atoms: N_8  and  C_9
REMARK    5  A    between atoms: C_10  and  C_12
REMARK                            x       y       z     vdW  Elec       q    Type
REMARK                         _______ _______ _______ _____ _____    ______ ____
ROOT
ATOM      1  N   UNL     1       2.355   4.780  19.671  0.00  0.00    +0.000 N 
ATOM      2  C   UNL     1       1.151   4.387  20.389  0.00  0.00    +0.000 C 
ATOM      3  C   UNL     1       2.936   3.829  18.820  0.00  0.00    +0.000 C 
ATOM      4  O   UNL     1       2.423   2.748  18.549  0.00  0.00    +0.000 OA
ENDROOT
BRANCH   3   5
ATOM      5  C   UNL     1       4.318   4.097  18.229  0.00  0.00    +0.000 C 
ATOM      6  N   UNL     1       5.369   3.937  18.974  0.00  0.00    +0.000 NA
ATOM      7  N   UNL     1       6.591   4.058  18.390  0.00  0.00    +0.000 N 
ATOM      8  C   UNL     1       6.847   4.533  17.127  0.00  0.00    +0.000 C 
ATOM      9  O   UNL     1       7.982   4.534  16.655  0.00  0.00    +0.000 OA
ATOM     10  C   UNL     1       5.669   5.132  16.411  0.00  0.00    +0.000 C 
ATOM     11  C   UNL     1       4.370   4.441  16.763  0.00  0.00    +0.000 C 
ATOM     12  H   UNL     1       7.388   3.742  18.933  0.00  0.00    +0.000 HD
ENDBRANCH   3   5
BRANCH   1  13
ATOM     13  C   UNL     1       2.979   6.043  20.060  0.00  0.00    +0.000 C 
BRANCH  13  19
ATOM     14  C   UNL     1       0.909   8.478  21.405  0.00  0.00    +0.000 C 
ATOM     15  C   UNL     1       1.513   8.309  20.061  0.00  0.00    +0.000 A 
ATOM     16  N   UNL     1       1.227   9.327  19.147  0.00  0.00    +0.000 NA
ATOM     17  N   UNL     1       1.786   9.124  17.970  0.00  0.00    +0.000 NA
ATOM     18  S   UNL     1       2.664   7.719  17.908  0.00  0.00    +0.000 S 
ATOM     19  C   UNL     1       2.336   7.298  19.564  0.00  0.00    +0.000 A 
ENDBRANCH  13  19
ENDBRANCH   1  13
TORSDOF 3
ENDMDL
MODEL 5
REMARK VINA RESULT:      -6.8      2.901      4.424
REMARK  Name = 
REMARK  5 active torsions:
REMARK  status: ('A' for Active; 'I' for Inactive)
REMARK    1  A    between atoms: C_1  and  C_2
REMARK    2  A    between atoms: C_6  and  C_7
REMARK    3  A    between atoms: C_7  and  N_8
REMARK    4  A    between atoms: N_8  and  C_9
REMARK    5  A    between atoms: C_10  and  C_12
REMARK                            x       y       z     vdW  Elec       q    Type
REMARK                         _______ _______ _______ _____ _____    ______ ____
ROOT
ATOM      1  N   UNL     1       2.214   4.378  19.519  0.00  0.00    +0.000 N 
ATOM      2  C   UNL     1       0.957   3.901  20.078  0.00  0.00    +0.000 C 
ATOM      3  C   UNL     1       2.833   3.578  18.549  0.00  0.00    +0.000 C 
ATOM      4  O   UNL     1       2.318   2.579  18.055  0.00  0.00    +0.000 OA
ENDROOT
BRANCH   3   5
ATOM      5  C   UNL     1       4.255   3.905  18.103  0.00  0.00    +0.000 C 
ATOM      6  N   UNL     1       5.215   3.886  18.977  0.00  0.00    +0.000 NA
ATOM      7  N   UNL     1       6.488   4.055  18.533  0.00  0.00    +0.000 N 
ATOM      8  C   UNL     1       6.866   4.447  17.272  0.00  0.00    +0.000 C 
ATOM      9  O   UNL     1       8.049   4.499  16.939  0.00  0.00    +0.000 OA
ATOM     10  C   UNL     1       5.748   4.894  16.372  0.00  0.00    +0.000 C 
ATOM     11  C   UNL     1       4.465   4.134  16.629  0.00  0.00    +0.000 C 
ATOM     12  H   UNL     1       7.232   3.846  19.192  0.00  0.00    +0.000 HD
ENDBRANCH   3   5
BRANCH   1  13
ATOM     13  C   UNL     1       2.835   5.531  20.169  0.00  0.00    +0.000 C 
BRANCH  13  19
ATOM     14  C   UNL     1       3.199   7.516  17.349  0.00  0.00    +0.000 C 
ATOM     15  C   UNL     1       2.471   7.715  18.626  0.00  0.00    +0.000 A 
ATOM     16  N   UNL     1       1.767   8.919  18.729  0.00  0.00    +0.000 NA
ATOM     17  N   UNL     1       1.142   9.044  19.882  0.00  0.00    +0.000 NA
ATOM     18  S   UNL     1       1.371   7.742  20.884  0.00  0.00    +0.000 S 
ATOM     19  C   UNL     1       2.364   6.885  19.741  0.00  0.00    +0.000 A 
ENDBRANCH  13  19
ENDBRANCH   1  13
TORSDOF 3
ENDMDL
MODEL 6
REMARK VINA RESULT:      -6.8      2.756      4.106
REMARK  Name = 
REMARK  5 active torsions:
REMARK  status: ('A' for Active; 'I' for Inactive)
REMARK    1  A    between atoms: C_1  and  C_2
REMARK    2  A    between atoms: C_6  and  C_7
REMARK    3  A    between atoms: C_7  and  N_8
REMARK    4  A    between atoms: N_8  and  C_9
REMARK    5  A    between atoms: C_10  and  C_12
REMARK                            x       y       z     vdW  Elec       q    Type
REMARK                         _______ _______ _______ _____ _____    ______ ____
ROOT
ATOM      1  N   UNL     1       3.698   4.288  17.570  0.00  0.00    +0.000 N 
ATOM      2  C   UNL     1       2.821   3.188  17.193  0.00  0.00    +0.000 C 
ATOM      3  C   UNL     1       4.823   4.520  16.766  0.00  0.00    +0.000 C 
ATOM      4  O   UNL     1       5.037   3.942  15.705  0.00  0.00    +0.000 OA
ENDROOT
BRANCH   3   5
ATOM      5  C   UNL     1       5.895   5.497  17.241  0.00  0.00    +0.000 C 
ATOM      6  N   UNL     1       6.127   6.570  16.549  0.00  0.00    +0.000 NA
ATOM      7  N   UNL     1       6.995   7.485  17.058  0.00  0.00    +0.000 N 
ATOM      8  C   UNL     1       7.818   7.310  18.144  0.00  0.00    +0.000 C 
ATOM      9  O   UNL     1       8.516   8.224  18.579  0.00  0.00    +0.000 OA
ATOM     10  C   UNL     1       7.876   5.912  18.693  0.00  0.00    +0.000 C 
ATOM     11  C   UNL     1       6.554   5.188  18.560  0.00  0.00    +0.000 C 
ATOM     12  H   UNL     1       7.015   8.394  16.606  0.00  0.00    +0.000 HD
ENDBRANCH   3   5
BRANCH   1  13
ATOM     13  C   UNL     1       3.457   4.915  18.869  0.00  0.00    +0.000 C 
BRANCH  13  19
ATOM     14  C   UNL     1       4.739   1.985  20.207  0.00  0.00    +0.000 C 
ATOM     15  C   UNL     1       3.586   2.836  20.585  0.00  0.00    +0.000 A 
ATOM     16  N   UNL     1       2.874   2.410  21.710  0.00  0.00    +0.000 NA
ATOM     17  N   UNL     1       1.860   3.201  21.999  0.00  0.00    +0.000 NA
ATOM     18  S   UNL     1       1.714   4.472  20.944  0.00  0.00    +0.000 S 
ATOM     19  C   UNL     1       3.102   4.008  20.003  0.00  0.00    +0.000 A 
ENDBRANCH  13  19
ENDBRANCH   1  13
TORSDOF 3
ENDMDL
MODEL 7
REMARK VINA RESULT:      -6.7      1.241      1.560
REMARK  Name = 
REMARK  5 active torsions:
REMARK  status: ('A' for Active; 'I' for Inactive)
REMARK    1  A    between atoms: C_1  and  C_2
REMARK    2  A    between atoms: C_6  and  C_7
REMARK    3  A    between atoms: C_7  and  N_8
REMARK    4  A    between atoms: N_8  and  C_9
REMARK    5  A    between atoms: C_10  and  C_12
REMARK                            x       y       z     vdW  Elec       q    Type
REMARK                         _______ _______ _______ _____ _____    ______ ____
ROOT
ATOM      1  N   UNL     1       6.403   5.403  18.011  0.00  0.00    +0.000 N 
ATOM      2  C   UNL     1       6.713   5.601  19.421  0.00  0.00    +0.000 C 
ATOM      3  C   UNL     1       7.333   4.692  17.241  0.00  0.00    +0.000 C 
ATOM      4  O   UNL     1       8.315   4.122  17.707  0.00  0.00    +0.000 OA
ENDROOT
BRANCH   3   5
ATOM      5  C   UNL     1       7.179   4.657  15.724  0.00  0.00    +0.000 C 
ATOM      6  N   UNL     1       7.838   5.509  14.999  0.00  0.00    +0.000 NA
ATOM      7  N   UNL     1       7.783   5.377  13.647  0.00  0.00    +0.000 N 
ATOM      8  C   UNL     1       6.940   4.552  12.943  0.00  0.00    +0.000 C 
ATOM      9  O   UNL     1       7.016   4.442  11.720  0.00  0.00    +0.000 OA
ATOM     10  C   UNL     1       5.870   3.878  13.754  0.00  0.00    +0.000 C 
ATOM     11  C   UNL     1       6.333   3.548  15.156  0.00  0.00    +0.000 C 
ATOM     12  H   UNL     1       8.450   5.922  13.109  0.00  0.00    +0.000 HD
ENDBRANCH   3   5
BRANCH   1  13
ATOM     13  C   UNL     1       5.265   6.145  17.471  0.00  0.00    +0.000 C 
BRANCH  13  19
ATOM     14  C   UNL     1       3.671   3.066  17.483  0.00  0.00    +0.000 C 
ATOM     15  C   UNL     1       3.219   4.429  17.857  0.00  0.00    +0.000 A 
ATOM     16  N   UNL     1       1.907   4.512  18.331  0.00  0.00    +0.000 NA
ATOM     17  N   UNL     1       1.558   5.743  18.645  0.00  0.00    +0.000 NA
ATOM     18  S   UNL     1       2.771   6.843  18.384  0.00  0.00    +0.000 S 
ATOM     19  C   UNL     1       3.901   5.645  17.823  0.00  0.00    +0.000 A 
ENDBRANCH  13  19
ENDBRANCH   1  13
TORSDOF 3
ENDMDL
MODEL 8
REMARK VINA RESULT:      -6.7      3.567      6.625
REMARK  Name = 
REMARK  5 active torsions:
REMARK  status: ('A' for Active; 'I' for Inactive)
REMARK    1  A    between atoms: C_1  and  C_2
REMARK    2  A    between atoms: C_6  and  C_7
REMARK    3  A    between atoms: C_7  and  N_8
REMARK    4  A    between atoms: N_8  and  C_9
REMARK    5  A    between atoms: C_10  and  C_12
REMARK                            x       y       z     vdW  Elec       q    Type
REMARK                         _______ _______ _______ _____ _____    ______ ____
ROOT
ATOM      1  N   UNL     1       3.399   6.043  17.835  0.00  0.00    +0.000 N 
ATOM      2  C   UNL     1       3.886   7.237  17.159  0.00  0.00    +0.000 C 
ATOM      3  C   UNL     1       2.584   6.226  18.961  0.00  0.00    +0.000 C 
ATOM      4  O   UNL     1       2.155   7.317  19.325  0.00  0.00    +0.000 OA
ENDROOT
BRANCH   3   5
ATOM      5  C   UNL     1       2.243   5.029  19.842  0.00  0.00    +0.000 C 
ATOM      6  N   UNL     1       2.829   4.900  20.993  0.00  0.00    +0.000 NA
ATOM      7  N   UNL     1       2.416   3.897  21.813  0.00  0.00    +0.000 N 
ATOM      8  C   UNL     1       1.572   2.866  21.478  0.00  0.00    +0.000 C 
ATOM      9  O   UNL     1       1.193   2.045  22.311  0.00  0.00    +0.000 OA
ATOM     10  C   UNL     1       1.229   2.760  20.019  0.00  0.00    +0.000 C 
ATOM     11  C   UNL     1       1.153   4.114  19.347  0.00  0.00    +0.000 C 
ATOM     12  H   UNL     1       2.744   3.930  22.774  0.00  0.00    +0.000 HD
ENDBRANCH   3   5
BRANCH   1  13
ATOM     13  C   UNL     1       3.977   4.765  17.422  0.00  0.00    +0.000 C 
BRANCH  13  19
ATOM     14  C   UNL     1       6.753   5.423  19.392  0.00  0.00    +0.000 C 
ATOM     15  C   UNL     1       6.607   4.960  17.991  0.00  0.00    +0.000 A 
ATOM     16  N   UNL     1       7.807   4.710  17.318  0.00  0.00    +0.000 NA
ATOM     17  N   UNL     1       7.619   4.304  16.079  0.00  0.00    +0.000 NA
ATOM     18  S   UNL     1       6.015   4.209  15.668  0.00  0.00    +0.000 S 
ATOM     19  C   UNL     1       5.460   4.719  17.236  0.00  0.00    +0.000 A 
ENDBRANCH  13  19
ENDBRANCH   1  13
TORSDOF 3
ENDMDL
MODEL 9
REMARK VINA RESULT:      -6.5      1.624      1.785
REMARK  Name = 
REMARK  5 active torsions:
REMARK  status: ('A' for Active; 'I' for Inactive)
REMARK    1  A    between atoms: C_1  and  C_2
REMARK    2  A    between atoms: C_6  and  C_7
REMARK    3  A    between atoms: C_7  and  N_8
REMARK    4  A    between atoms: N_8  and  C_9
REMARK    5  A    between atoms: C_10  and  C_12
REMARK                            x       y       z     vdW  Elec       q    Type
REMARK                         _______ _______ _______ _____ _____    ______ ____
ROOT
ATOM      1  N   UNL     1       5.791   5.005  17.995  0.00  0.00    +0.000 N 
ATOM      2  C   UNL     1       5.894   5.238  19.429  0.00  0.00    +0.000 C 
ATOM      3  C   UNL     1       6.967   4.674  17.309  0.00  0.00    +0.000 C 
ATOM      4  O   UNL     1       8.040   4.443  17.861  0.00  0.00    +0.000 OA
ENDROOT
BRANCH   3   5
ATOM      5  C   UNL     1       6.965   4.651  15.783  0.00  0.00    +0.000 C 
ATOM      6  N   UNL     1       7.636   5.553  15.134  0.00  0.00    +0.000 NA
ATOM      7  N   UNL     1       7.722   5.436  13.782  0.00  0.00    +0.000 N 
ATOM      8  C   UNL     1       7.005   4.572  12.992  0.00  0.00    +0.000 C 
ATOM      9  O   UNL     1       7.207   4.484  11.782  0.00  0.00    +0.000 OA
ATOM     10  C   UNL     1       5.905   3.821  13.688  0.00  0.00    +0.000 C 
ATOM     11  C   UNL     1       6.249   3.500  15.126  0.00  0.00    +0.000 C 
ATOM     12  H   UNL     1       8.403   6.029  13.317  0.00  0.00    +0.000 HD
ENDBRANCH   3   5
BRANCH   1  13
ATOM     13  C   UNL     1       4.521   5.349  17.356  0.00  0.00    +0.000 C 
BRANCH  13  19
ATOM     14  C   UNL     1       2.436   4.533  20.003  0.00  0.00    +0.000 C 
ATOM     15  C   UNL     1       2.668   5.799  19.265  0.00  0.00    +0.000 A 
ATOM     16  N   UNL     1       1.933   6.897  19.721  0.00  0.00    +0.000 NA
ATOM     17  N   UNL     1       2.176   7.992  19.029  0.00  0.00    +0.000 NA
ATOM     18  S   UNL     1       3.279   7.755  17.814  0.00  0.00    +0.000 S 
ATOM     19  C   UNL     1       3.516   6.074  18.193  0.00  0.00    +0.000 A 
ENDBRANCH  13  19
ENDBRANCH   1  13
TORSDOF 3
ENDMDL
