MODEL 1
REMARK VINA RESULT:      -9.5      0.000      0.000
REMARK  Name = 
REMARK  10 active torsions:
REMARK  status: ('A' for Active; 'I' for Inactive)
REMARK    1  A    between atoms: C_1  and  C_2
REMARK    2  A    between atoms: C_2  and  N_3
REMARK    3  A    between atoms: C_4  and  C_6
REMARK    4  A    between atoms: C_10  and  C_11
REMARK    5  A    between atoms: C_18  and  O_19
REMARK    6  A    between atoms: O_19  and  C_20
REMARK    7  A    between atoms: C_20  and  C_21
REMARK    8  A    between atoms: C_21  and  C_22
REMARK    9  A    between atoms: C_22  and  N_23
REMARK   10  A    between atoms: C_27  and  C_28
REMARK                            x       y       z     vdW  Elec       q    Type
REMARK                         _______ _______ _______ _____ _____    ______ ____
ROOT
ATOM      1  C   UNL     1       4.243   5.003  17.187  0.00  0.00    +0.000 C 
ATOM      2  C   UNL     1       4.829   3.637  17.614  0.00  0.00    +0.000 C 
ATOM      3  C   UNL     1       4.025   3.288  18.849  0.00  0.00    +0.000 C 
ATOM      4  O   UNL     1       4.246   2.314  19.556  0.00  0.00    +0.000 OA
ATOM      5  C   UNL     1       2.894   4.271  19.065  0.00  0.00    +0.000 C 
ATOM      6  C   UNL     1       1.684   3.731  18.277  0.00  0.00    +0.000 C 
ATOM      7  C   UNL     1       2.508   4.544  20.513  0.00  0.00    +0.000 C 
ATOM      8  C   UNL     1       1.583   5.765  20.609  0.00  0.00    +0.000 C 
ATOM      9  C   UNL     1       2.181   7.020  19.924  0.00  0.00    +0.000 C 
ATOM     10  C   UNL     1       1.324   8.272  20.038  0.00  0.00    +0.000 A 
ATOM     11  C   UNL     1       0.563   8.510  21.193  0.00  0.00    +0.000 A 
ATOM     12  C   UNL     1      -0.154   9.694  21.356  0.00  0.00    +0.000 A 
ATOM     13  C   UNL     1      -0.121  10.673  20.373  0.00  0.00    +0.000 A 
ATOM     14  C   UNL     1       0.648  10.464  19.228  0.00  0.00    +0.000 A 
ATOM     15  C   UNL     1       1.374   9.276  19.053  0.00  0.00    +0.000 A 
ATOM     16  C   UNL     1       2.151   9.098  17.773  0.00  0.00    +0.000 C 
ATOM     17  C   UNL     1       3.199   7.991  17.840  0.00  0.00    +0.000 C 
ATOM     18  C   UNL     1       2.607   6.717  18.449  0.00  0.00    +0.000 C 
ATOM     19  C   UNL     1       3.586   5.529  18.476  0.00  0.00    +0.000 C 
ENDROOT
BRANCH   1  21
ATOM     20  N   UNL     1       6.386   6.231  17.329  0.00  0.00    +0.000 N 
ATOM     21  C   UNL     1       5.291   5.908  16.563  0.00  0.00    +0.000 C 
ATOM     22  O   UNL     1       5.142   6.317  15.405  0.00  0.00    +0.000 OA
ATOM     23  H   UNL     1       6.503   5.864  18.257  0.00  0.00    +0.000 HD
BRANCH  20  25
ATOM     24  C   UNL     1       7.718   8.272  17.712  0.00  0.00    +0.000 C 
ATOM     25  C   UNL     1       7.416   7.103  16.788  0.00  0.00    +0.000 C 
ENDBRANCH  20  25
ENDBRANCH   1  21
BRANCH  13  26
ATOM     26  O   UNL     1      -0.793  11.861  20.417  0.00  0.00    +0.000 OA
BRANCH  26  27
ATOM     27  C   UNL     1      -1.765  12.062  19.390  0.00  0.00    +0.000 C 
BRANCH  27  28
ATOM     28  C   UNL     1      -3.049  12.503  20.068  0.00  0.00    +0.000 C 
BRANCH  28  29
ATOM     29  C   UNL     1      -2.819  12.961  21.505  0.00  0.00    +0.000 C 
BRANCH  29  30
ATOM     30  N   UNL     1      -3.804  12.399  22.425  0.00  0.00    +0.000 NA
ATOM     31  C   UNL     1      -3.285  12.162  23.780  0.00  0.00    +0.000 C 
ATOM     32  C   UNL     1      -4.362  12.653  24.730  0.00  0.00    +0.000 C 
ATOM     33  C   UNL     1      -5.612  12.650  23.874  0.00  0.00    +0.000 C 
ATOM     34  C   UNL     1      -5.090  13.103  22.513  0.00  0.00    +0.000 C 
ATOM     35  C   UNL     1      -5.030  14.634  22.434  0.00  0.00    +0.000 C 
ENDBRANCH  29  30
ENDBRANCH  28  29
ENDBRANCH  27  28
ENDBRANCH  26  27
ENDBRANCH  13  26
TORSDOF 7
ENDMDL
MODEL 2
REMARK VINA RESULT:      -9.4      1.496      2.088
REMARK  Name = 
REMARK  10 active torsions:
REMARK  status: ('A' for Active; 'I' for Inactive)
REMARK    1  A    between atoms: C_1  and  C_2
REMARK    2  A    between atoms: C_2  and  N_3
REMARK    3  A    between atoms: C_4  and  C_6
REMARK    4  A    between atoms: C_10  and  C_11
REMARK    5  A    between atoms: C_18  and  O_19
REMARK    6  A    between atoms: O_19  and  C_20
REMARK    7  A    between atoms: C_20  and  C_21
REMARK    8  A    between atoms: C_21  and  C_22
REMARK    9  A    between atoms: C_22  and  N_23
REMARK   10  A    between atoms: C_27  and  C_28
REMARK                            x       y       z     vdW  Elec       q    Type
REMARK                         _______ _______ _______ _____ _____    ______ ____
ROOT
ATOM      1  C   UNL     1       4.034   4.730  17.365  0.00  0.00    +0.000 C 
ATOM      2  C   UNL     1       4.534   3.353  17.860  0.00  0.00    +0.000 C 
ATOM      3  C   UNL     1       3.723   3.121  19.117  0.00  0.00    +0.000 C 
ATOM      4  O   UNL     1       3.888   2.174  19.873  0.00  0.00    +0.000 OA
ATOM      5  C   UNL     1       2.660   4.186  19.289  0.00  0.00    +0.000 C 
ATOM      6  C   UNL     1       1.409   3.685  18.539  0.00  0.00    +0.000 C 
ATOM      7  C   UNL     1       2.307   4.559  20.722  0.00  0.00    +0.000 C 
ATOM      8  C   UNL     1       1.464   5.840  20.761  0.00  0.00    +0.000 C 
ATOM      9  C   UNL     1       2.134   7.016  20.006  0.00  0.00    +0.000 C 
ATOM     10  C   UNL     1       1.361   8.325  20.060  0.00  0.00    +0.000 A 
ATOM     11  C   UNL     1       0.628   8.673  21.206  0.00  0.00    +0.000 A 
ATOM     12  C   UNL     1      -0.010   9.907  21.311  0.00  0.00    +0.000 A 
ATOM     13  C   UNL     1       0.077  10.829  20.278  0.00  0.00    +0.000 A 
ATOM     14  C   UNL     1       0.819  10.511  19.140  0.00  0.00    +0.000 A 
ATOM     15  C   UNL     1       1.465   9.271  19.023  0.00  0.00    +0.000 A 
ATOM     16  C   UNL     1       2.215   8.976  17.749  0.00  0.00    +0.000 C 
ATOM     17  C   UNL     1       3.191   7.809  17.867  0.00  0.00    +0.000 C 
ATOM     18  C   UNL     1       2.524   6.610  18.547  0.00  0.00    +0.000 C 
ATOM     19  C   UNL     1       3.425   5.363  18.630  0.00  0.00    +0.000 C 
ENDROOT
BRANCH   1  21
ATOM     20  N   UNL     1       6.203   5.915  17.457  0.00  0.00    +0.000 N 
ATOM     21  C   UNL     1       5.131   5.531  16.687  0.00  0.00    +0.000 C 
ATOM     22  O   UNL     1       5.040   5.806  15.484  0.00  0.00    +0.000 OA
ATOM     23  H   UNL     1       6.272   5.656  18.425  0.00  0.00    +0.000 HD
BRANCH  20  25
ATOM     24  C   UNL     1       7.738   7.819  17.777  0.00  0.00    +0.000 C 
ATOM     25  C   UNL     1       7.278   6.694  16.865  0.00  0.00    +0.000 C 
ENDBRANCH  20  25
ENDBRANCH   1  21
BRANCH  13  26
ATOM     26  O   UNL     1      -0.517  12.059  20.264  0.00  0.00    +0.000 OA
BRANCH  26  27
ATOM     27  C   UNL     1      -1.801  12.134  20.888  0.00  0.00    +0.000 C 
BRANCH  27  28
ATOM     28  C   UNL     1      -2.830  12.269  19.781  0.00  0.00    +0.000 C 
BRANCH  28  29
ATOM     29  C   UNL     1      -4.097  12.980  20.248  0.00  0.00    +0.000 C 
BRANCH  29  30
ATOM     30  N   UNL     1      -5.205  12.798  19.316  0.00  0.00    +0.000 NA
ATOM     31  C   UNL     1      -5.044  11.648  18.415  0.00  0.00    +0.000 C 
ATOM     32  C   UNL     1      -6.395  10.957  18.377  0.00  0.00    +0.000 C 
ATOM     33  C   UNL     1      -7.355  12.037  18.832  0.00  0.00    +0.000 C 
ATOM     34  C   UNL     1      -6.552  12.773  19.902  0.00  0.00    +0.000 C 
ATOM     35  C   UNL     1      -6.685  12.072  21.260  0.00  0.00    +0.000 C 
ENDBRANCH  29  30
ENDBRANCH  28  29
ENDBRANCH  27  28
ENDBRANCH  26  27
ENDBRANCH  13  26
TORSDOF 7
ENDMDL
MODEL 3
REMARK VINA RESULT:      -9.3      1.244      1.546
REMARK  Name = 
REMARK  10 active torsions:
REMARK  status: ('A' for Active; 'I' for Inactive)
REMARK    1  A    between atoms: C_1  and  C_2
REMARK    2  A    between atoms: C_2  and  N_3
REMARK    3  A    between atoms: C_4  and  C_6
REMARK    4  A    between atoms: C_10  and  C_11
REMARK    5  A    between atoms: C_18  and  O_19
REMARK    6  A    between atoms: O_19  and  C_20
REMARK    7  A    between atoms: C_20  and  C_21
REMARK    8  A    between atoms: C_21  and  C_22
REMARK    9  A    between atoms: C_22  and  N_23
REMARK   10  A    between atoms: C_27  and  C_28
REMARK                            x       y       z     vdW  Elec       q    Type
REMARK                         _______ _______ _______ _____ _____    ______ ____
ROOT
ATOM      1  C   UNL     1       4.116   4.876  17.443  0.00  0.00    +0.000 C 
ATOM      2  C   UNL     1       4.684   3.523  17.931  0.00  0.00    +0.000 C 
ATOM      3  C   UNL     1       3.876   3.239  19.180  0.00  0.00    +0.000 C 
ATOM      4  O   UNL     1       4.085   2.295  19.930  0.00  0.00    +0.000 OA
ATOM      5  C   UNL     1       2.756   4.244  19.350  0.00  0.00    +0.000 C 
ATOM      6  C   UNL     1       1.540   3.684  18.585  0.00  0.00    +0.000 C 
ATOM      7  C   UNL     1       2.372   4.586  20.783  0.00  0.00    +0.000 C 
ATOM      8  C   UNL     1       1.462   5.821  20.824  0.00  0.00    +0.000 C 
ATOM      9  C   UNL     1       2.075   7.037  20.084  0.00  0.00    +0.000 C 
ATOM     10  C   UNL     1       1.233   8.303  20.141  0.00  0.00    +0.000 A 
ATOM     11  C   UNL     1       0.474   8.601  21.283  0.00  0.00    +0.000 A 
ATOM     12  C   UNL     1      -0.229   9.799  21.392  0.00  0.00    +0.000 A 
ATOM     13  C   UNL     1      -0.183  10.733  20.367  0.00  0.00    +0.000 A 
ATOM     14  C   UNL     1       0.584  10.464  19.234  0.00  0.00    +0.000 A 
ATOM     15  C   UNL     1       1.296   9.261  19.113  0.00  0.00    +0.000 A 
ATOM     16  C   UNL     1       2.071   9.017  17.843  0.00  0.00    +0.000 C 
ATOM     17  C   UNL     1       3.106   7.902  17.961  0.00  0.00    +0.000 C 
ATOM     18  C   UNL     1       2.499   6.664  18.625  0.00  0.00    +0.000 C 
ATOM     19  C   UNL     1       3.464   5.466  18.707  0.00  0.00    +0.000 C 
ENDROOT
BRANCH   1  21
ATOM     20  N   UNL     1       6.323   5.991  17.493  0.00  0.00    +0.000 N 
ATOM     21  C   UNL     1       5.174   5.739  16.780  0.00  0.00    +0.000 C 
ATOM     22  O   UNL     1       4.986   6.179  15.640  0.00  0.00    +0.000 OA
ATOM     23  H   UNL     1       6.469   5.600  18.407  0.00  0.00    +0.000 HD
BRANCH  20  25
ATOM     24  C   UNL     1       7.520   8.142  17.650  0.00  0.00    +0.000 C 
ATOM     25  C   UNL     1       7.367   6.822  16.914  0.00  0.00    +0.000 C 
ENDBRANCH  20  25
ENDBRANCH   1  21
BRANCH  13  26
ATOM     26  O   UNL     1      -0.842  11.930  20.358  0.00  0.00    +0.000 OA
BRANCH  26  27
ATOM     27  C   UNL     1      -2.087  11.947  19.656  0.00  0.00    +0.000 C 
BRANCH  27  28
ATOM     28  C   UNL     1      -3.094  12.647  20.550  0.00  0.00    +0.000 C 
BRANCH  28  29
ATOM     29  C   UNL     1      -4.502  12.630  19.963  0.00  0.00    +0.000 C 
BRANCH  29  30
ATOM     30  N   UNL     1      -5.482  12.083  20.897  0.00  0.00    +0.000 NA
ATOM     31  C   UNL     1      -5.829  12.994  21.997  0.00  0.00    +0.000 C 
ATOM     32  C   UNL     1      -7.338  12.913  22.143  0.00  0.00    +0.000 C 
ATOM     33  C   UNL     1      -7.684  11.593  21.484  0.00  0.00    +0.000 C 
ATOM     34  C   UNL     1      -6.712  11.540  20.307  0.00  0.00    +0.000 C 
ATOM     35  C   UNL     1      -7.277  12.300  19.100  0.00  0.00    +0.000 C 
ENDBRANCH  29  30
ENDBRANCH  28  29
ENDBRANCH  27  28
ENDBRANCH  26  27
ENDBRANCH  13  26
TORSDOF 7
ENDMDL
MODEL 4
REMARK VINA RESULT:      -9.2      0.729      1.179
REMARK  Name = 
REMARK  10 active torsions:
REMARK  status: ('A' for Active; 'I' for Inactive)
REMARK    1  A    between atoms: C_1  and  C_2
REMARK    2  A    between atoms: C_2  and  N_3
REMARK    3  A    between atoms: C_4  and  C_6
REMARK    4  A    between atoms: C_10  and  C_11
REMARK    5  A    between atoms: C_18  and  O_19
REMARK    6  A    between atoms: O_19  and  C_20
REMARK    7  A    between atoms: C_20  and  C_21
REMARK    8  A    between atoms: C_21  and  C_22
REMARK    9  A    between atoms: C_22  and  N_23
REMARK   10  A    between atoms: C_27  and  C_28
REMARK                            x       y       z     vdW  Elec       q    Type
REMARK                         _______ _______ _______ _____ _____    ______ ____
ROOT
ATOM      1  C   UNL     1       4.190   4.967  17.085  0.00  0.00    +0.000 C 
ATOM      2  C   UNL     1       4.745   3.572  17.452  0.00  0.00    +0.000 C 
ATOM      3  C   UNL     1       3.943   3.194  18.680  0.00  0.00    +0.000 C 
ATOM      4  O   UNL     1       4.146   2.188  19.347  0.00  0.00    +0.000 OA
ATOM      5  C   UNL     1       2.839   4.195  18.945  0.00  0.00    +0.000 C 
ATOM      6  C   UNL     1       1.609   3.715  18.148  0.00  0.00    +0.000 C 
ATOM      7  C   UNL     1       2.471   4.420  20.406  0.00  0.00    +0.000 C 
ATOM      8  C   UNL     1       1.578   5.657  20.559  0.00  0.00    +0.000 C 
ATOM      9  C   UNL     1       2.200   6.924  19.918  0.00  0.00    +0.000 C 
ATOM     10  C   UNL     1       1.376   8.191  20.089  0.00  0.00    +0.000 A 
ATOM     11  C   UNL     1       0.630   8.402  21.259  0.00  0.00    +0.000 A 
ATOM     12  C   UNL     1      -0.057   9.595  21.475  0.00  0.00    +0.000 A 
ATOM     13  C   UNL     1      -0.007  10.611  20.532  0.00  0.00    +0.000 A 
ATOM     14  C   UNL     1       0.746  10.429  19.372  0.00  0.00    +0.000 A 
ATOM     15  C   UNL     1       1.442   9.232  19.144  0.00  0.00    +0.000 A 
ATOM     16  C   UNL     1       2.203   9.085  17.851  0.00  0.00    +0.000 C 
ATOM     17  C   UNL     1       3.224   7.952  17.865  0.00  0.00    +0.000 C 
ATOM     18  C   UNL     1       2.606   6.670  18.429  0.00  0.00    +0.000 C 
ATOM     19  C   UNL     1       3.556   5.458  18.400  0.00  0.00    +0.000 C 
ENDROOT
BRANCH   1  21
ATOM     20  N   UNL     1       6.315   6.218  17.290  0.00  0.00    +0.000 N 
ATOM     21  C   UNL     1       5.254   5.871  16.487  0.00  0.00    +0.000 C 
ATOM     22  O   UNL     1       5.148   6.258  15.317  0.00  0.00    +0.000 OA
ATOM     23  H   UNL     1       6.397   5.868  18.229  0.00  0.00    +0.000 HD
BRANCH  20  25
ATOM     24  C   UNL     1       7.809   8.111  17.807  0.00  0.00    +0.000 C 
ATOM     25  C   UNL     1       7.358   7.090  16.776  0.00  0.00    +0.000 C 
ENDBRANCH  20  25
ENDBRANCH   1  21
BRANCH  13  26
ATOM     26  O   UNL     1      -0.650  11.812  20.629  0.00  0.00    +0.000 OA
BRANCH  26  27
ATOM     27  C   UNL     1      -1.543  11.950  21.736  0.00  0.00    +0.000 C 
BRANCH  27  28
ATOM     28  C   UNL     1      -2.582  12.986  21.347  0.00  0.00    +0.000 C 
BRANCH  28  29
ATOM     29  C   UNL     1      -2.952  13.902  22.509  0.00  0.00    +0.000 C 
BRANCH  29  30
ATOM     30  N   UNL     1      -4.395  14.073  22.638  0.00  0.00    +0.000 NA
ATOM     31  C   UNL     1      -5.169  13.437  21.562  0.00  0.00    +0.000 C 
ATOM     32  C   UNL     1      -6.339  12.749  22.242  0.00  0.00    +0.000 C 
ATOM     33  C   UNL     1      -6.443  13.467  23.572  0.00  0.00    +0.000 C 
ATOM     34  C   UNL     1      -4.981  13.716  23.936  0.00  0.00    +0.000 C 
ATOM     35  C   UNL     1      -4.379  12.491  24.635  0.00  0.00    +0.000 C 
ENDBRANCH  29  30
ENDBRANCH  28  29
ENDBRANCH  27  28
ENDBRANCH  26  27
ENDBRANCH  13  26
TORSDOF 7
ENDMDL
MODEL 5
REMARK VINA RESULT:      -9.2      0.828      1.152
REMARK  Name = 
REMARK  10 active torsions:
REMARK  status: ('A' for Active; 'I' for Inactive)
REMARK    1  A    between atoms: C_1  and  C_2
REMARK    2  A    between atoms: C_2  and  N_3
REMARK    3  A    between atoms: C_4  and  C_6
REMARK    4  A    between atoms: C_10  and  C_11
REMARK    5  A    between atoms: C_18  and  O_19
REMARK    6  A    between atoms: O_19  and  C_20
REMARK    7  A    between atoms: C_20  and  C_21
REMARK    8  A    between atoms: C_21  and  C_22
REMARK    9  A    between atoms: C_22  and  N_23
REMARK   10  A    between atoms: C_27  and  C_28
REMARK                            x       y       z     vdW  Elec       q    Type
REMARK                         _______ _______ _______ _____ _____    ______ ____
ROOT
ATOM      1  C   UNL     1       4.221   4.967  17.069  0.00  0.00    +0.000 C 
ATOM      2  C   UNL     1       4.778   3.561  17.392  0.00  0.00    +0.000 C 
ATOM      3  C   UNL     1       3.958   3.132  18.591  0.00  0.00    +0.000 C 
ATOM      4  O   UNL     1       4.156   2.102  19.222  0.00  0.00    +0.000 OA
ATOM      5  C   UNL     1       2.844   4.117  18.876  0.00  0.00    +0.000 C 
ATOM      6  C   UNL     1       1.630   3.663  18.041  0.00  0.00    +0.000 C 
ATOM      7  C   UNL     1       2.452   4.284  20.338  0.00  0.00    +0.000 C 
ATOM      8  C   UNL     1       1.549   5.511  20.524  0.00  0.00    +0.000 C 
ATOM      9  C   UNL     1       2.176   6.804  19.942  0.00  0.00    +0.000 C 
ATOM     10  C   UNL     1       1.342   8.059  20.148  0.00  0.00    +0.000 A 
ATOM     11  C   UNL     1       0.576   8.222  21.313  0.00  0.00    +0.000 A 
ATOM     12  C   UNL     1      -0.120   9.403  21.563  0.00  0.00    +0.000 A 
ATOM     13  C   UNL     1      -0.061  10.454  20.661  0.00  0.00    +0.000 A 
ATOM     14  C   UNL     1       0.713  10.321  19.507  0.00  0.00    +0.000 A 
ATOM     15  C   UNL     1       1.418   9.136  19.245  0.00  0.00    +0.000 A 
ATOM     16  C   UNL     1       2.201   9.043  17.960  0.00  0.00    +0.000 C 
ATOM     17  C   UNL     1       3.228   7.915  17.947  0.00  0.00    +0.000 C 
ATOM     18  C   UNL     1       2.607   6.609  18.451  0.00  0.00    +0.000 C 
ATOM     19  C   UNL     1       3.564   5.404  18.392  0.00  0.00    +0.000 C 
ENDROOT
BRANCH   1  21
ATOM     20  N   UNL     1       6.417   6.085  17.289  0.00  0.00    +0.000 N 
ATOM     21  C   UNL     1       5.291   5.898  16.524  0.00  0.00    +0.000 C 
ATOM     22  O   UNL     1       5.129   6.446  15.427  0.00  0.00    +0.000 OA
ATOM     23  H   UNL     1       6.542   5.607  18.164  0.00  0.00    +0.000 HD
BRANCH  20  25
ATOM     24  C   UNL     1       7.616   8.199  17.711  0.00  0.00    +0.000 C 
ATOM     25  C   UNL     1       7.469   6.974  16.824  0.00  0.00    +0.000 C 
ENDBRANCH  20  25
ENDBRANCH   1  21
BRANCH  13  26
ATOM     26  O   UNL     1      -0.711  11.648  20.793  0.00  0.00    +0.000 OA
BRANCH  26  27
ATOM     27  C   UNL     1      -0.459  12.360  22.006  0.00  0.00    +0.000 C 
BRANCH  27  28
ATOM     28  C   UNL     1      -1.532  11.951  22.998  0.00  0.00    +0.000 C 
BRANCH  28  29
ATOM     29  C   UNL     1      -2.587  13.035  23.194  0.00  0.00    +0.000 C 
BRANCH  29  30
ATOM     30  N   UNL     1      -3.927  12.567  22.854  0.00  0.00    +0.000 NA
ATOM     31  C   UNL     1      -4.961  12.969  23.819  0.00  0.00    +0.000 C 
ATOM     32  C   UNL     1      -6.148  13.424  22.990  0.00  0.00    +0.000 C 
ATOM     33  C   UNL     1      -5.910  12.768  21.645  0.00  0.00    +0.000 C 
ATOM     34  C   UNL     1      -4.393  12.856  21.492  0.00  0.00    +0.000 C 
ATOM     35  C   UNL     1      -3.982  14.215  20.911  0.00  0.00    +0.000 C 
ENDBRANCH  29  30
ENDBRANCH  28  29
ENDBRANCH  27  28
ENDBRANCH  26  27
ENDBRANCH  13  26
TORSDOF 7
ENDMDL
MODEL 6
REMARK VINA RESULT:      -9.2      2.038      3.278
REMARK  Name = 
REMARK  10 active torsions:
REMARK  status: ('A' for Active; 'I' for Inactive)
REMARK    1  A    between atoms: C_1  and  C_2
REMARK    2  A    between atoms: C_2  and  N_3
REMARK    3  A    between atoms: C_4  and  C_6
REMARK    4  A    between atoms: C_10  and  C_11
REMARK    5  A    between atoms: C_18  and  O_19
REMARK    6  A    between atoms: O_19  and  C_20
REMARK    7  A    between atoms: C_20  and  C_21
REMARK    8  A    between atoms: C_21  and  C_22
REMARK    9  A    between atoms: C_22  and  N_23
REMARK   10  A    between atoms: C_27  and  C_28
REMARK                            x       y       z     vdW  Elec       q    Type
REMARK                         _______ _______ _______ _____ _____    ______ ____
ROOT
ATOM      1  C   UNL     1       4.032   4.893  16.988  0.00  0.00    +0.000 C 
ATOM      2  C   UNL     1       4.483   3.437  17.248  0.00  0.00    +0.000 C 
ATOM      3  C   UNL     1       3.673   3.037  18.463  0.00  0.00    +0.000 C 
ATOM      4  O   UNL     1       3.807   1.974  19.055  0.00  0.00    +0.000 OA
ATOM      5  C   UNL     1       2.654   4.098  18.818  0.00  0.00    +0.000 C 
ATOM      6  C   UNL     1       1.379   3.772  18.016  0.00  0.00    +0.000 C 
ATOM      7  C   UNL     1       2.327   4.248  20.298  0.00  0.00    +0.000 C 
ATOM      8  C   UNL     1       1.535   5.537  20.554  0.00  0.00    +0.000 C 
ATOM      9  C   UNL     1       2.244   6.794  19.989  0.00  0.00    +0.000 C 
ATOM     10  C   UNL     1       1.524   8.105  20.263  0.00  0.00    +0.000 A 
ATOM     11  C   UNL     1       0.815   8.290  21.460  0.00  0.00    +0.000 A 
ATOM     12  C   UNL     1       0.226   9.514  21.772  0.00  0.00    +0.000 A 
ATOM     13  C   UNL     1       0.340  10.587  20.899  0.00  0.00    +0.000 A 
ATOM     14  C   UNL     1       1.060  10.429  19.715  0.00  0.00    +0.000 A 
ATOM     15  C   UNL     1       1.657   9.201  19.391  0.00  0.00    +0.000 A 
ATOM     16  C   UNL     1       2.384   9.088  18.076  0.00  0.00    +0.000 C 
ATOM     17  C   UNL     1       3.315   7.881  17.991  0.00  0.00    +0.000 C 
ATOM     18  C   UNL     1       2.607   6.614  18.478  0.00  0.00    +0.000 C 
ATOM     19  C   UNL     1       3.459   5.338  18.347  0.00  0.00    +0.000 C 
ENDROOT
BRANCH   1  21
ATOM     20  N   UNL     1       6.272   5.920  17.216  0.00  0.00    +0.000 N 
ATOM     21  C   UNL     1       5.155   5.752  16.432  0.00  0.00    +0.000 C 
ATOM     22  O   UNL     1       5.043   6.262  15.311  0.00  0.00    +0.000 OA
ATOM     23  H   UNL     1       6.355   5.473  18.112  0.00  0.00    +0.000 HD
BRANCH  20  25
ATOM     24  C   UNL     1       7.537   8.009  17.563  0.00  0.00    +0.000 C 
ATOM     25  C   UNL     1       7.373   6.741  16.741  0.00  0.00    +0.000 C 
ENDBRANCH  20  25
ENDBRANCH   1  21
BRANCH  13  26
ATOM     26  O   UNL     1      -0.205  11.824  21.092  0.00  0.00    +0.000 OA
BRANCH  26  27
ATOM     27  C   UNL     1      -1.598  11.941  20.793  0.00  0.00    +0.000 C 
BRANCH  27  28
ATOM     28  C   UNL     1      -1.722  12.086  19.287  0.00  0.00    +0.000 C 
BRANCH  28  29
ATOM     29  C   UNL     1      -2.427  10.895  18.645  0.00  0.00    +0.000 C 
BRANCH  29  30
ATOM     30  N   UNL     1      -2.571  11.054  17.201  0.00  0.00    +0.000 NA
ATOM     31  C   UNL     1      -2.190   9.863  16.430  0.00  0.00    +0.000 C 
ATOM     32  C   UNL     1      -3.263   9.693  15.369  0.00  0.00    +0.000 C 
ATOM     33  C   UNL     1      -3.885  11.071  15.276  0.00  0.00    +0.000 C 
ATOM     34  C   UNL     1      -3.871  11.546  16.727  0.00  0.00    +0.000 C 
ATOM     35  C   UNL     1      -5.105  11.032  17.479  0.00  0.00    +0.000 C 
ENDBRANCH  29  30
ENDBRANCH  28  29
ENDBRANCH  27  28
ENDBRANCH  26  27
ENDBRANCH  13  26
TORSDOF 7
ENDMDL
MODEL 7
REMARK VINA RESULT:      -9.2      2.411      3.794
REMARK  Name = 
REMARK  10 active torsions:
REMARK  status: ('A' for Active; 'I' for Inactive)
REMARK    1  A    between atoms: C_1  and  C_2
REMARK    2  A    between atoms: C_2  and  N_3
REMARK    3  A    between atoms: C_4  and  C_6
REMARK    4  A    between atoms: C_10  and  C_11
REMARK    5  A    between atoms: C_18  and  O_19
REMARK    6  A    between atoms: O_19  and  C_20
REMARK    7  A    between atoms: C_20  and  C_21
REMARK    8  A    between atoms: C_21  and  C_22
REMARK    9  A    between atoms: C_22  and  N_23
REMARK   10  A    between atoms: C_27  and  C_28
REMARK                            x       y       z     vdW  Elec       q    Type
REMARK                         _______ _______ _______ _____ _____    ______ ____
ROOT
ATOM      1  C   UNL     1       4.243   5.282  17.182  0.00  0.00    +0.000 C 
ATOM      2  C   UNL     1       4.870   3.921  17.565  0.00  0.00    +0.000 C 
ATOM      3  C   UNL     1       4.077   3.507  18.787  0.00  0.00    +0.000 C 
ATOM      4  O   UNL     1       4.327   2.517  19.462  0.00  0.00    +0.000 OA
ATOM      5  C   UNL     1       2.916   4.447  19.033  0.00  0.00    +0.000 C 
ATOM      6  C   UNL     1       1.724   3.897  18.226  0.00  0.00    +0.000 C 
ATOM      7  C   UNL     1       2.521   4.660  20.488  0.00  0.00    +0.000 C 
ATOM      8  C   UNL     1       1.560   5.848  20.624  0.00  0.00    +0.000 C 
ATOM      9  C   UNL     1       2.119   7.143  19.981  0.00  0.00    +0.000 C 
ATOM     10  C   UNL     1       1.224   8.364  20.135  0.00  0.00    +0.000 A 
ATOM     11  C   UNL     1       0.455   8.541  21.296  0.00  0.00    +0.000 A 
ATOM     12  C   UNL     1      -0.298   9.696  21.497  0.00  0.00    +0.000 A 
ATOM     13  C   UNL     1      -0.294  10.707  20.548  0.00  0.00    +0.000 A 
ATOM     14  C   UNL     1       0.481  10.560  19.397  0.00  0.00    +0.000 A 
ATOM     15  C   UNL     1       1.244   9.401  19.184  0.00  0.00    +0.000 A 
ATOM     16  C   UNL     1       2.026   9.289  17.900  0.00  0.00    +0.000 C 
ATOM     17  C   UNL     1       3.108   8.213  17.932  0.00  0.00    +0.000 C 
ATOM     18  C   UNL     1       2.554   6.903  18.498  0.00  0.00    +0.000 C 
ATOM     19  C   UNL     1       3.570   5.744  18.487  0.00  0.00    +0.000 C 
ENDROOT
BRANCH   1  21
ATOM     20  N   UNL     1       6.295   6.647  17.402  0.00  0.00    +0.000 N 
ATOM     21  C   UNL     1       5.263   6.238  16.590  0.00  0.00    +0.000 C 
ATOM     22  O   UNL     1       5.148   6.613  15.417  0.00  0.00    +0.000 OA
ATOM     23  H   UNL     1       6.387   6.307  18.343  0.00  0.00    +0.000 HD
BRANCH  20  25
ATOM     24  C   UNL     1       8.102   8.211  18.009  0.00  0.00    +0.000 C 
ATOM     25  C   UNL     1       7.295   7.571  16.893  0.00  0.00    +0.000 C 
ENDBRANCH  20  25
ENDBRANCH   1  21
BRANCH  13  26
ATOM     26  O   UNL     1      -1.002  11.872  20.630  0.00  0.00    +0.000 OA
BRANCH  26  27
ATOM     27  C   UNL     1      -1.002  12.682  19.453  0.00  0.00    +0.000 C 
BRANCH  27  28
ATOM     28  C   UNL     1      -1.026  14.130  19.906  0.00  0.00    +0.000 C 
BRANCH  28  29
ATOM     29  C   UNL     1       0.363  14.651  20.261  0.00  0.00    +0.000 C 
BRANCH  29  30
ATOM     30  N   UNL     1       1.310  14.489  19.162  0.00  0.00    +0.000 NA
ATOM     31  C   UNL     1       1.744  15.757  18.558  0.00  0.00    +0.000 C 
ATOM     32  C   UNL     1       3.243  15.630  18.358  0.00  0.00    +0.000 C 
ATOM     33  C   UNL     1       3.474  14.133  18.374  0.00  0.00    +0.000 C 
ATOM     34  C   UNL     1       2.485  13.650  19.432  0.00  0.00    +0.000 C 
ATOM     35  C   UNL     1       3.090  13.766  20.837  0.00  0.00    +0.000 C 
ENDBRANCH  29  30
ENDBRANCH  28  29
ENDBRANCH  27  28
ENDBRANCH  26  27
ENDBRANCH  13  26
TORSDOF 7
ENDMDL
MODEL 8
REMARK VINA RESULT:      -9.2      2.548      3.773
REMARK  Name = 
REMARK  10 active torsions:
REMARK  status: ('A' for Active; 'I' for Inactive)
REMARK    1  A    between atoms: C_1  and  C_2
REMARK    2  A    between atoms: C_2  and  N_3
REMARK    3  A    between atoms: C_4  and  C_6
REMARK    4  A    between atoms: C_10  and  C_11
REMARK    5  A    between atoms: C_18  and  O_19
REMARK    6  A    between atoms: O_19  and  C_20
REMARK    7  A    between atoms: C_20  and  C_21
REMARK    8  A    between atoms: C_21  and  C_22
REMARK    9  A    between atoms: C_22  and  N_23
REMARK   10  A    between atoms: C_27  and  C_28
REMARK                            x       y       z     vdW  Elec       q    Type
REMARK                         _______ _______ _______ _____ _____    ______ ____
ROOT
ATOM      1  C   UNL     1       4.031   4.693  17.348  0.00  0.00    +0.000 C 
ATOM      2  C   UNL     1       4.519   3.312  17.844  0.00  0.00    +0.000 C 
ATOM      3  C   UNL     1       3.702   3.089  19.100  0.00  0.00    +0.000 C 
ATOM      4  O   UNL     1       3.858   2.140  19.857  0.00  0.00    +0.000 OA
ATOM      5  C   UNL     1       2.648   4.162  19.268  0.00  0.00    +0.000 C 
ATOM      6  C   UNL     1       1.395   3.671  18.516  0.00  0.00    +0.000 C 
ATOM      7  C   UNL     1       2.295   4.539  20.701  0.00  0.00    +0.000 C 
ATOM      8  C   UNL     1       1.463   5.827  20.737  0.00  0.00    +0.000 C 
ATOM      9  C   UNL     1       2.144   6.997  19.983  0.00  0.00    +0.000 C 
ATOM     10  C   UNL     1       1.382   8.313  20.034  0.00  0.00    +0.000 A 
ATOM     11  C   UNL     1       0.650   8.667  21.178  0.00  0.00    +0.000 A 
ATOM     12  C   UNL     1       0.022   9.907  21.281  0.00  0.00    +0.000 A 
ATOM     13  C   UNL     1       0.119  10.827  20.248  0.00  0.00    +0.000 A 
ATOM     14  C   UNL     1       0.861  10.503  19.112  0.00  0.00    +0.000 A 
ATOM     15  C   UNL     1       1.497   9.258  18.997  0.00  0.00    +0.000 A 
ATOM     16  C   UNL     1       2.247   8.955  17.725  0.00  0.00    +0.000 C 
ATOM     17  C   UNL     1       3.213   7.780  17.846  0.00  0.00    +0.000 C 
ATOM     18  C   UNL     1       2.534   6.587  18.525  0.00  0.00    +0.000 C 
ATOM     19  C   UNL     1       3.425   5.333  18.610  0.00  0.00    +0.000 C 
ENDROOT
BRANCH   1  21
ATOM     20  N   UNL     1       6.235   5.814  17.430  0.00  0.00    +0.000 N 
ATOM     21  C   UNL     1       5.137   5.485  16.671  0.00  0.00    +0.000 C 
ATOM     22  O   UNL     1       5.028   5.801  15.481  0.00  0.00    +0.000 OA
ATOM     23  H   UNL     1       6.317   5.522  18.388  0.00  0.00    +0.000 HD
BRANCH  20  25
ATOM     24  C   UNL     1       7.653   7.819  17.655  0.00  0.00    +0.000 C 
ATOM     25  C   UNL     1       7.320   6.581  16.840  0.00  0.00    +0.000 C 
ENDBRANCH  20  25
ENDBRANCH   1  21
BRANCH  13  26
ATOM     26  O   UNL     1      -0.465  12.062  20.232  0.00  0.00    +0.000 OA
BRANCH  26  27
ATOM     27  C   UNL     1      -1.213  12.379  19.057  0.00  0.00    +0.000 C 
BRANCH  27  28
ATOM     28  C   UNL     1      -0.454  13.471  18.324  0.00  0.00    +0.000 C 
BRANCH  28  29
ATOM     29  C   UNL     1      -0.154  14.670  19.218  0.00  0.00    +0.000 C 
BRANCH  29  30
ATOM     30  N   UNL     1       1.279  14.919  19.343  0.00  0.00    +0.000 NA
ATOM     31  C   UNL     1       2.107  14.087  18.458  0.00  0.00    +0.000 C 
ATOM     32  C   UNL     1       3.155  15.017  17.873  0.00  0.00    +0.000 C 
ATOM     33  C   UNL     1       3.178  16.177  18.849  0.00  0.00    +0.000 C 
ATOM     34  C   UNL     1       1.709  16.319  19.239  0.00  0.00    +0.000 C 
ATOM     35  C   UNL     1       0.957  17.183  18.219  0.00  0.00    +0.000 C 
ENDBRANCH  29  30
ENDBRANCH  28  29
ENDBRANCH  27  28
ENDBRANCH  26  27
ENDBRANCH  13  26
TORSDOF 7
ENDMDL
MODEL 9
REMARK VINA RESULT:      -9.0      2.398      3.746
REMARK  Name = 
REMARK  10 active torsions:
REMARK  status: ('A' for Active; 'I' for Inactive)
REMARK    1  A    between atoms: C_1  and  C_2
REMARK    2  A    between atoms: C_2  and  N_3
REMARK    3  A    between atoms: C_4  and  C_6
REMARK    4  A    between atoms: C_10  and  C_11
REMARK    5  A    between atoms: C_18  and  O_19
REMARK    6  A    between atoms: O_19  and  C_20
REMARK    7  A    between atoms: C_20  and  C_21
REMARK    8  A    between atoms: C_21  and  C_22
REMARK    9  A    between atoms: C_22  and  N_23
REMARK   10  A    between atoms: C_27  and  C_28
REMARK                            x       y       z     vdW  Elec       q    Type
REMARK                         _______ _______ _______ _____ _____    ______ ____
ROOT
ATOM      1  C   UNL     1       4.069   4.732  17.172  0.00  0.00    +0.000 C 
ATOM      2  C   UNL     1       4.572   3.326  17.574  0.00  0.00    +0.000 C 
ATOM      3  C   UNL     1       3.768   3.015  18.819  0.00  0.00    +0.000 C 
ATOM      4  O   UNL     1       3.938   2.021  19.512  0.00  0.00    +0.000 OA
ATOM      5  C   UNL     1       2.707   4.067  19.065  0.00  0.00    +0.000 C 
ATOM      6  C   UNL     1       1.451   3.614  18.293  0.00  0.00    +0.000 C 
ATOM      7  C   UNL     1       2.363   4.347  20.522  0.00  0.00    +0.000 C 
ATOM      8  C   UNL     1       1.521   5.623  20.648  0.00  0.00    +0.000 C 
ATOM      9  C   UNL     1       2.186   6.845  19.965  0.00  0.00    +0.000 C 
ATOM     10  C   UNL     1       1.414   8.148  20.107  0.00  0.00    +0.000 A 
ATOM     11  C   UNL     1       0.689   8.422  21.278  0.00  0.00    +0.000 A 
ATOM     12  C   UNL     1       0.052   9.647  21.466  0.00  0.00    +0.000 A 
ATOM     13  C   UNL     1       0.132  10.633  20.493  0.00  0.00    +0.000 A 
ATOM     14  C   UNL     1       0.867  10.389  19.332  0.00  0.00    +0.000 A 
ATOM     15  C   UNL     1       1.512   9.159  19.132  0.00  0.00    +0.000 A 
ATOM     16  C   UNL     1       2.254   8.946  17.837  0.00  0.00    +0.000 C 
ATOM     17  C   UNL     1       3.230   7.773  17.874  0.00  0.00    +0.000 C 
ATOM     18  C   UNL     1       2.567   6.533  18.480  0.00  0.00    +0.000 C 
ATOM     19  C   UNL     1       3.468   5.284  18.478  0.00  0.00    +0.000 C 
ENDROOT
BRANCH   1  21
ATOM     20  N   UNL     1       6.248   5.894  17.319  0.00  0.00    +0.000 N 
ATOM     21  C   UNL     1       5.162   5.575  16.538  0.00  0.00    +0.000 C 
ATOM     22  O   UNL     1       5.055   5.941  15.362  0.00  0.00    +0.000 OA
ATOM     23  H   UNL     1       6.330   5.562  18.264  0.00  0.00    +0.000 HD
BRANCH  20  25
ATOM     24  C   UNL     1       7.704   7.848  17.700  0.00  0.00    +0.000 C 
ATOM     25  C   UNL     1       7.320   6.708  16.771  0.00  0.00    +0.000 C 
ENDBRANCH  20  25
ENDBRANCH   1  21
BRANCH  13  26
ATOM     26  O   UNL     1      -0.461  11.861  20.562  0.00  0.00    +0.000 OA
BRANCH  26  27
ATOM     27  C   UNL     1      -0.574  12.423  21.871  0.00  0.00    +0.000 C 
BRANCH  27  28
ATOM     28  C   UNL     1       0.136  13.764  21.845  0.00  0.00    +0.000 C 
BRANCH  28  29
ATOM     29  C   UNL     1       0.489  14.208  20.429  0.00  0.00    +0.000 C 
BRANCH  29  30
ATOM     30  N   UNL     1       1.739  14.960  20.383  0.00  0.00    +0.000 NA
ATOM     31  C   UNL     1       2.638  14.690  21.515  0.00  0.00    +0.000 C 
ATOM     32  C   UNL     1       4.027  14.551  20.918  0.00  0.00    +0.000 C 
ATOM     33  C   UNL     1       3.908  15.258  19.583  0.00  0.00    +0.000 C 
ATOM     34  C   UNL     1       2.499  14.885  19.129  0.00  0.00    +0.000 C 
ATOM     35  C   UNL     1       2.499  13.525  18.418  0.00  0.00    +0.000 C 
ENDBRANCH  29  30
ENDBRANCH  28  29
ENDBRANCH  27  28
ENDBRANCH  26  27
ENDBRANCH  13  26
TORSDOF 7
ENDMDL
