MODEL 1
REMARK VINA RESULT:      -8.7      0.000      0.000
REMARK  Name = 
REMARK  10 active torsions:
REMARK  status: ('A' for Active; 'I' for Inactive)
REMARK    1  A    between atoms: C_1  and  C_2
REMARK    2  A    between atoms: C_2  and  C_3
REMARK    3  A    between atoms: N_6  and  C_7
REMARK    4  A    between atoms: C_11  and  C_12
REMARK    5  A    between atoms: N_14  and  C_15
REMARK    6  A    between atoms: C_15  and  C_16
REMARK    7  A    between atoms: C_15  and  C_23
REMARK    8  A    between atoms: C_16  and  C_17
REMARK    9  A    between atoms: C_23  and  C_24
REMARK   10  A    between atoms: C_28  and  C_29
REMARK                            x       y       z     vdW  Elec       q    Type
REMARK                         _______ _______ _______ _____ _____    ______ ____
ROOT
ATOM      1  C   UNL     1       1.279   8.791  20.058  0.00  0.00    +0.000 A 
ATOM      2  C   UNL     1       1.126   9.586  18.914  0.00  0.00    +0.000 A 
ATOM      3  C   UNL     1       1.743   9.240  17.708  0.00  0.00    +0.000 A 
ATOM      4  C   UNL     1       2.538   8.099  17.636  0.00  0.00    +0.000 A 
ATOM      5  C   UNL     1       2.704   7.298  18.769  0.00  0.00    +0.000 A 
ATOM      6  C   UNL     1       2.060   7.632  19.963  0.00  0.00    +0.000 A 
ENDROOT
BRANCH   1  10
ATOM      7  C   UNL     1      -1.017  12.255  22.636  0.00  0.00    +0.000 A 
ATOM      8  S   UNL     1      -0.930  10.550  22.891  0.00  0.00    +0.000 S 
ATOM      9  C   UNL     1       0.121  10.369  21.553  0.00  0.00    +0.000 A 
ATOM     10  N   UNL     1       0.590   9.142  21.231  0.00  0.00    +0.000 N 
ATOM     11  N   UNL     1       0.413  11.496  20.953  0.00  0.00    +0.000 NA
ATOM     12  C   UNL     1      -0.224  12.580  21.538  0.00  0.00    +0.000 A 
ATOM     13  H   UNL     1       0.366   8.371  21.846  0.00  0.00    +0.000 HD
BRANCH  12  14
ATOM     14  C   UNL     1       0.018  13.906  20.956  0.00  0.00    +0.000 A 
ATOM     15  C   UNL     1      -0.750  14.449  19.920  0.00  0.00    +0.000 A 
ATOM     16  C   UNL     1      -0.435  15.689  19.354  0.00  0.00    +0.000 A 
ATOM     17  C   UNL     1       0.667  16.403  19.807  0.00  0.00    +0.000 A 
ATOM     18  C   UNL     1       1.442  15.885  20.838  0.00  0.00    +0.000 A 
ATOM     19  C   UNL     1       1.125  14.648  21.403  0.00  0.00    +0.000 A 
ENDBRANCH  12  14
BRANCH   7  21
ATOM     20  C   UNL     1      -3.299  12.794  23.705  0.00  0.00    +0.000 C 
ATOM     21  C   UNL     1      -1.823  13.135  23.555  0.00  0.00    +0.000 C 
ENDBRANCH   7  21
ENDBRANCH   1  10
BRANCH   5  22
ATOM     22  C   UNL     1       3.665   6.174  18.739  0.00  0.00    +0.000 C 
ATOM     23  O   UNL     1       4.258   5.851  19.768  0.00  0.00    +0.000 OA
ATOM     24  N   UNL     1       3.833   5.523  17.535  0.00  0.00    +0.000 N 
ATOM     25  H   UNL     1       3.347   5.851  16.707  0.00  0.00    +0.000 HD
BRANCH  24  26
ATOM     26  C   UNL     1       4.684   4.336  17.451  0.00  0.00    +0.000 C 
BRANCH  26  27
ATOM     27  C   UNL     1       5.518   4.285  16.149  0.00  0.00    +0.000 C 
ATOM     28  C   UNL     1       7.008   4.466  16.286  0.00  0.00    +0.000 C 
ATOM     29  O   UNL     1       5.030   4.064  15.038  0.00  0.00    +0.000 OA
ENDBRANCH  26  27
BRANCH  26  30
ATOM     30  C   UNL     1       3.909   3.016  17.657  0.00  0.00    +0.000 C 
BRANCH  30  31
ATOM     31  C   UNL     1       3.008   2.868  18.869  0.00  0.00    +0.000 A 
ATOM     32  C   UNL     1       3.484   2.617  20.163  0.00  0.00    +0.000 A 
ATOM     33  C   UNL     1       2.618   2.579  21.256  0.00  0.00    +0.000 A 
ATOM     34  C   UNL     1       1.253   2.757  21.074  0.00  0.00    +0.000 A 
ATOM     35  C   UNL     1       0.750   2.950  19.790  0.00  0.00    +0.000 A 
ATOM     36  C   UNL     1       1.619   3.002  18.696  0.00  0.00    +0.000 A 
ENDBRANCH  30  31
ENDBRANCH  26  30
ENDBRANCH  24  26
ENDBRANCH   5  22
TORSDOF 8
ENDMDL
MODEL 2
REMARK VINA RESULT:      -8.6      2.495      5.101
REMARK  Name = 
REMARK  10 active torsions:
REMARK  status: ('A' for Active; 'I' for Inactive)
REMARK    1  A    between atoms: C_1  and  C_2
REMARK    2  A    between atoms: C_2  and  C_3
REMARK    3  A    between atoms: N_6  and  C_7
REMARK    4  A    between atoms: C_11  and  C_12
REMARK    5  A    between atoms: N_14  and  C_15
REMARK    6  A    between atoms: C_15  and  C_16
REMARK    7  A    between atoms: C_15  and  C_23
REMARK    8  A    between atoms: C_16  and  C_17
REMARK    9  A    between atoms: C_23  and  C_24
REMARK   10  A    between atoms: C_28  and  C_29
REMARK                            x       y       z     vdW  Elec       q    Type
REMARK                         _______ _______ _______ _____ _____    ______ ____
ROOT
ATOM      1  C   UNL     1       1.899   6.056  20.517  0.00  0.00    +0.000 A 
ATOM      2  C   UNL     1       0.848   5.160  20.759  0.00  0.00    +0.000 A 
ATOM      3  C   UNL     1       0.781   3.932  20.094  0.00  0.00    +0.000 A 
ATOM      4  C   UNL     1       1.758   3.592  19.162  0.00  0.00    +0.000 A 
ATOM      5  C   UNL     1       2.809   4.476  18.906  0.00  0.00    +0.000 A 
ATOM      6  C   UNL     1       2.888   5.687  19.596  0.00  0.00    +0.000 A 
ENDROOT
BRANCH   1  10
ATOM      7  C   UNL     1       0.108  10.540  21.300  0.00  0.00    +0.000 A 
ATOM      8  S   UNL     1       1.223   9.606  22.232  0.00  0.00    +0.000 S 
ATOM      9  C   UNL     1       1.199   8.353  21.068  0.00  0.00    +0.000 A 
ATOM     10  N   UNL     1       1.960   7.251  21.253  0.00  0.00    +0.000 N 
ATOM     11  N   UNL     1       0.429   8.602  20.037  0.00  0.00    +0.000 NA
ATOM     12  C   UNL     1      -0.209   9.828  20.145  0.00  0.00    +0.000 A 
ATOM     13  H   UNL     1       2.589   7.236  22.045  0.00  0.00    +0.000 HD
BRANCH  12  14
ATOM     14  C   UNL     1      -1.105  10.228  19.053  0.00  0.00    +0.000 A 
ATOM     15  C   UNL     1      -0.974   9.768  17.738  0.00  0.00    +0.000 A 
ATOM     16  C   UNL     1      -1.813  10.233  16.719  0.00  0.00    +0.000 A 
ATOM     17  C   UNL     1      -2.790  11.181  16.996  0.00  0.00    +0.000 A 
ATOM     18  C   UNL     1      -2.939  11.649  18.297  0.00  0.00    +0.000 A 
ATOM     19  C   UNL     1      -2.103  11.182  19.313  0.00  0.00    +0.000 A 
ENDBRANCH  12  14
BRANCH   7  21
ATOM     20  C   UNL     1       0.285  13.098  21.045  0.00  0.00    +0.000 C 
ATOM     21  C   UNL     1      -0.331  11.905  21.761  0.00  0.00    +0.000 C 
ENDBRANCH   7  21
ENDBRANCH   1  10
BRANCH   5  22
ATOM     22  C   UNL     1       3.761   4.187  17.812  0.00  0.00    +0.000 C 
ATOM     23  O   UNL     1       3.398   3.512  16.849  0.00  0.00    +0.000 OA
ATOM     24  N   UNL     1       5.028   4.721  17.925  0.00  0.00    +0.000 N 
ATOM     25  H   UNL     1       5.288   5.242  18.756  0.00  0.00    +0.000 HD
BRANCH  24  26
ATOM     26  C   UNL     1       5.992   4.570  16.835  0.00  0.00    +0.000 C 
BRANCH  26  27
ATOM     27  C   UNL     1       7.433   4.954  17.248  0.00  0.00    +0.000 C 
ATOM     28  C   UNL     1       7.671   6.391  17.633  0.00  0.00    +0.000 C 
ATOM     29  O   UNL     1       8.359   4.142  17.314  0.00  0.00    +0.000 OA
ENDBRANCH  26  27
BRANCH  26  30
ATOM     30  C   UNL     1       5.575   5.313  15.547  0.00  0.00    +0.000 C 
BRANCH  30  31
ATOM     31  C   UNL     1       6.069   4.805  14.205  0.00  0.00    +0.000 A 
ATOM     32  C   UNL     1       7.271   5.216  13.616  0.00  0.00    +0.000 A 
ATOM     33  C   UNL     1       7.722   4.649  12.423  0.00  0.00    +0.000 A 
ATOM     34  C   UNL     1       6.961   3.683  11.777  0.00  0.00    +0.000 A 
ATOM     35  C   UNL     1       5.735   3.300  12.313  0.00  0.00    +0.000 A 
ATOM     36  C   UNL     1       5.290   3.858  13.516  0.00  0.00    +0.000 A 
ENDBRANCH  30  31
ENDBRANCH  26  30
ENDBRANCH  24  26
ENDBRANCH   5  22
TORSDOF 8
ENDMDL
MODEL 3
REMARK VINA RESULT:      -8.6      2.511      4.922
REMARK  Name = 
REMARK  10 active torsions:
REMARK  status: ('A' for Active; 'I' for Inactive)
REMARK    1  A    between atoms: C_1  and  C_2
REMARK    2  A    between atoms: C_2  and  C_3
REMARK    3  A    between atoms: N_6  and  C_7
REMARK    4  A    between atoms: C_11  and  C_12
REMARK    5  A    between atoms: N_14  and  C_15
REMARK    6  A    between atoms: C_15  and  C_16
REMARK    7  A    between atoms: C_15  and  C_23
REMARK    8  A    between atoms: C_16  and  C_17
REMARK    9  A    between atoms: C_23  and  C_24
REMARK   10  A    between atoms: C_28  and  C_29
REMARK                            x       y       z     vdW  Elec       q    Type
REMARK                         _______ _______ _______ _____ _____    ______ ____
ROOT
ATOM      1  C   UNL     1       1.844   6.338  20.645  0.00  0.00    +0.000 A 
ATOM      2  C   UNL     1       0.985   5.231  20.696  0.00  0.00    +0.000 A 
ATOM      3  C   UNL     1       1.185   4.126  19.864  0.00  0.00    +0.000 A 
ATOM      4  C   UNL     1       2.239   4.121  18.953  0.00  0.00    +0.000 A 
ATOM      5  C   UNL     1       3.101   5.218  18.888  0.00  0.00    +0.000 A 
ATOM      6  C   UNL     1       2.916   6.307  19.743  0.00  0.00    +0.000 A 
ENDROOT
BRANCH   1  10
ATOM      7  C   UNL     1      -0.425  10.555  21.638  0.00  0.00    +0.000 A 
ATOM      8  S   UNL     1       0.522   9.532  22.658  0.00  0.00    +0.000 S 
ATOM      9  C   UNL     1       0.859   8.483  21.349  0.00  0.00    +0.000 A 
ATOM     10  N   UNL     1       1.644   7.399  21.543  0.00  0.00    +0.000 N 
ATOM     11  N   UNL     1       0.324   8.862  20.214  0.00  0.00    +0.000 NA
ATOM     12  C   UNL     1      -0.417  10.027  20.350  0.00  0.00    +0.000 A 
ATOM     13  H   UNL     1       2.078   7.284  22.449  0.00  0.00    +0.000 HD
BRANCH  12  14
ATOM     14  C   UNL     1      -1.074  10.559  19.149  0.00  0.00    +0.000 A 
ATOM     15  C   UNL     1      -1.902   9.797  18.319  0.00  0.00    +0.000 A 
ATOM     16  C   UNL     1      -2.449  10.333  17.147  0.00  0.00    +0.000 A 
ATOM     17  C   UNL     1      -2.163  11.641  16.778  0.00  0.00    +0.000 A 
ATOM     18  C   UNL     1      -1.344  12.418  17.591  0.00  0.00    +0.000 A 
ATOM     19  C   UNL     1      -0.801  11.882  18.761  0.00  0.00    +0.000 A 
ENDBRANCH  12  14
BRANCH   7  21
ATOM     20  C   UNL     1      -2.067  11.629  23.310  0.00  0.00    +0.000 C 
ATOM     21  C   UNL     1      -1.064  11.807  22.179  0.00  0.00    +0.000 C 
ENDBRANCH   7  21
ENDBRANCH   1  10
BRANCH   5  22
ATOM     22  C   UNL     1       4.126   5.284  17.823  0.00  0.00    +0.000 C 
ATOM     23  O   UNL     1       4.088   6.193  16.995  0.00  0.00    +0.000 OA
ATOM     24  N   UNL     1       5.102   4.310  17.831  0.00  0.00    +0.000 N 
ATOM     25  H   UNL     1       5.068   3.561  18.515  0.00  0.00    +0.000 HD
BRANCH  24  26
ATOM     26  C   UNL     1       6.209   4.367  16.877  0.00  0.00    +0.000 C 
BRANCH  26  27
ATOM     27  C   UNL     1       7.538   4.828  17.522  0.00  0.00    +0.000 C 
ATOM     28  C   UNL     1       7.630   6.276  17.932  0.00  0.00    +0.000 C 
ATOM     29  O   UNL     1       8.482   4.068  17.748  0.00  0.00    +0.000 OA
ENDBRANCH  26  27
BRANCH  26  30
ATOM     30  C   UNL     1       5.888   5.210  15.623  0.00  0.00    +0.000 C 
BRANCH  30  31
ATOM     31  C   UNL     1       6.285   4.685  14.256  0.00  0.00    +0.000 A 
ATOM     32  C   UNL     1       5.572   3.695  13.568  0.00  0.00    +0.000 A 
ATOM     33  C   UNL     1       5.930   3.313  12.275  0.00  0.00    +0.000 A 
ATOM     34  C   UNL     1       7.031   3.888  11.655  0.00  0.00    +0.000 A 
ATOM     35  C   UNL     1       7.791   4.832  12.341  0.00  0.00    +0.000 A 
ATOM     36  C   UNL     1       7.424   5.226  13.632  0.00  0.00    +0.000 A 
ENDBRANCH  30  31
ENDBRANCH  26  30
ENDBRANCH  24  26
ENDBRANCH   5  22
TORSDOF 8
ENDMDL
MODEL 4
REMARK VINA RESULT:      -8.4      2.479      4.998
REMARK  Name = 
REMARK  10 active torsions:
REMARK  status: ('A' for Active; 'I' for Inactive)
REMARK    1  A    between atoms: C_1  and  C_2
REMARK    2  A    between atoms: C_2  and  C_3
REMARK    3  A    between atoms: N_6  and  C_7
REMARK    4  A    between atoms: C_11  and  C_12
REMARK    5  A    between atoms: N_14  and  C_15
REMARK    6  A    between atoms: C_15  and  C_16
REMARK    7  A    between atoms: C_15  and  C_23
REMARK    8  A    between atoms: C_16  and  C_17
REMARK    9  A    between atoms: C_23  and  C_24
REMARK   10  A    between atoms: C_28  and  C_29
REMARK                            x       y       z     vdW  Elec       q    Type
REMARK                         _______ _______ _______ _____ _____    ______ ____
ROOT
ATOM      1  C   UNL     1       1.797   6.154  20.558  0.00  0.00    +0.000 A 
ATOM      2  C   UNL     1       0.786   5.187  20.661  0.00  0.00    +0.000 A 
ATOM      3  C   UNL     1       0.823   4.022  19.890  0.00  0.00    +0.000 A 
ATOM      4  C   UNL     1       1.865   3.817  18.988  0.00  0.00    +0.000 A 
ATOM      5  C   UNL     1       2.877   4.772  18.872  0.00  0.00    +0.000 A 
ATOM      6  C   UNL     1       2.852   5.920  19.668  0.00  0.00    +0.000 A 
ENDROOT
BRANCH   1  10
ATOM      7  C   UNL     1      -0.191  10.511  21.548  0.00  0.00    +0.000 A 
ATOM      8  S   UNL     1       0.857   9.522  22.500  0.00  0.00    +0.000 S 
ATOM      9  C   UNL     1       0.980   8.377  21.235  0.00  0.00    +0.000 A 
ATOM     10  N   UNL     1       1.753   7.279  21.398  0.00  0.00    +0.000 N 
ATOM     11  N   UNL     1       0.306   8.700  20.159  0.00  0.00    +0.000 NA
ATOM     12  C   UNL     1      -0.376   9.899  20.311  0.00  0.00    +0.000 A 
ATOM     13  H   UNL     1       2.304   7.207  22.243  0.00  0.00    +0.000 HD
BRANCH  12  14
ATOM     14  C   UNL     1      -1.175  10.376  19.176  0.00  0.00    +0.000 A 
ATOM     15  C   UNL     1      -2.128  11.396  19.274  0.00  0.00    +0.000 A 
ATOM     16  C   UNL     1      -2.912  11.766  18.176  0.00  0.00    +0.000 A 
ATOM     17  C   UNL     1      -2.767  11.109  16.961  0.00  0.00    +0.000 A 
ATOM     18  C   UNL     1      -1.824  10.095  16.840  0.00  0.00    +0.000 A 
ATOM     19  C   UNL     1      -1.040   9.728  17.935  0.00  0.00    +0.000 A 
ENDBRANCH  12  14
BRANCH   7  21
ATOM     20  C   UNL     1       0.037  13.076  21.659  0.00  0.00    +0.000 C 
ATOM     21  C   UNL     1      -0.712  11.820  22.081  0.00  0.00    +0.000 C 
ENDBRANCH   7  21
ENDBRANCH   1  10
BRANCH   5  22
ATOM     22  C   UNL     1       3.900   4.632  17.813  0.00  0.00    +0.000 C 
ATOM     23  O   UNL     1       3.684   3.900  16.848  0.00  0.00    +0.000 OA
ATOM     24  N   UNL     1       5.060   5.364  17.959  0.00  0.00    +0.000 N 
ATOM     25  H   UNL     1       5.205   5.926  18.792  0.00  0.00    +0.000 HD
BRANCH  24  26
ATOM     26  C   UNL     1       6.073   5.361  16.904  0.00  0.00    +0.000 C 
BRANCH  26  27
ATOM     27  C   UNL     1       7.319   6.206  17.262  0.00  0.00    +0.000 C 
ATOM     28  C   UNL     1       7.886   6.032  18.647  0.00  0.00    +0.000 C 
ATOM     29  O   UNL     1       7.876   6.964  16.464  0.00  0.00    +0.000 OA
ENDBRANCH  26  27
BRANCH  26  30
ATOM     30  C   UNL     1       5.513   5.768  15.523  0.00  0.00    +0.000 C 
BRANCH  30  31
ATOM     31  C   UNL     1       5.989   5.031  14.285  0.00  0.00    +0.000 A 
ATOM     32  C   UNL     1       7.242   5.238  13.694  0.00  0.00    +0.000 A 
ATOM     33  C   UNL     1       7.665   4.470  12.609  0.00  0.00    +0.000 A 
ATOM     34  C   UNL     1       6.829   3.501  12.070  0.00  0.00    +0.000 A 
ATOM     35  C   UNL     1       5.556   3.317  12.603  0.00  0.00    +0.000 A 
ATOM     36  C   UNL     1       5.137   4.077  13.700  0.00  0.00    +0.000 A 
ENDBRANCH  30  31
ENDBRANCH  26  30
ENDBRANCH  24  26
ENDBRANCH   5  22
TORSDOF 8
ENDMDL
MODEL 5
REMARK VINA RESULT:      -8.4      3.016     10.608
REMARK  Name = 
REMARK  10 active torsions:
REMARK  status: ('A' for Active; 'I' for Inactive)
REMARK    1  A    between atoms: C_1  and  C_2
REMARK    2  A    between atoms: C_2  and  C_3
REMARK    3  A    between atoms: N_6  and  C_7
REMARK    4  A    between atoms: C_11  and  C_12
REMARK    5  A    between atoms: N_14  and  C_15
REMARK    6  A    between atoms: C_15  and  C_16
REMARK    7  A    between atoms: C_15  and  C_23
REMARK    8  A    between atoms: C_16  and  C_17
REMARK    9  A    between atoms: C_23  and  C_24
REMARK   10  A    between atoms: C_28  and  C_29
REMARK                            x       y       z     vdW  Elec       q    Type
REMARK                         _______ _______ _______ _____ _____    ______ ____
ROOT
ATOM      1  C   UNL     1       0.962   9.830  18.509  0.00  0.00    +0.000 A 
ATOM      2  C   UNL     1      -0.156   9.821  17.662  0.00  0.00    +0.000 A 
ATOM      3  C   UNL     1      -1.374  10.370  18.072  0.00  0.00    +0.000 A 
ATOM      4  C   UNL     1      -1.495  10.921  19.346  0.00  0.00    +0.000 A 
ATOM      5  C   UNL     1      -0.392  10.933  20.202  0.00  0.00    +0.000 A 
ATOM      6  C   UNL     1       0.831  10.412  19.776  0.00  0.00    +0.000 A 
ENDROOT
BRANCH   1  10
ATOM      7  C   UNL     1       3.871   5.952  17.859  0.00  0.00    +0.000 A 
ATOM      8  S   UNL     1       3.998   7.558  17.236  0.00  0.00    +0.000 S 
ATOM      9  C   UNL     1       2.612   8.044  18.112  0.00  0.00    +0.000 A 
ATOM     10  N   UNL     1       2.183   9.324  18.032  0.00  0.00    +0.000 N 
ATOM     11  N   UNL     1       2.084   7.091  18.840  0.00  0.00    +0.000 NA
ATOM     12  C   UNL     1       2.770   5.893  18.709  0.00  0.00    +0.000 A 
ATOM     13  H   UNL     1       2.749   9.983  17.513  0.00  0.00    +0.000 HD
BRANCH  12  14
ATOM     14  C   UNL     1       2.277   4.740  19.474  0.00  0.00    +0.000 A 
ATOM     15  C   UNL     1       1.427   3.765  18.941  0.00  0.00    +0.000 A 
ATOM     16  C   UNL     1       0.931   2.722  19.732  0.00  0.00    +0.000 A 
ATOM     17  C   UNL     1       1.266   2.647  21.078  0.00  0.00    +0.000 A 
ATOM     18  C   UNL     1       2.113   3.603  21.627  0.00  0.00    +0.000 A 
ATOM     19  C   UNL     1       2.609   4.642  20.836  0.00  0.00    +0.000 A 
ENDBRANCH  12  14
BRANCH   7  21
ATOM     20  C   UNL     1       4.410   3.795  16.556  0.00  0.00    +0.000 C 
ATOM     21  C   UNL     1       4.883   4.898  17.492  0.00  0.00    +0.000 C 
ENDBRANCH   7  21
ENDBRANCH   1  10
BRANCH   5  22
ATOM     22  C   UNL     1      -0.556  11.378  21.604  0.00  0.00    +0.000 C 
ATOM     23  O   UNL     1       0.124  10.862  22.491  0.00  0.00    +0.000 OA
ATOM     24  N   UNL     1      -1.469  12.383  21.841  0.00  0.00    +0.000 N 
ATOM     25  H   UNL     1      -2.030  12.751  21.080  0.00  0.00    +0.000 HD
BRANCH  24  26
ATOM     26  C   UNL     1      -1.611  12.950  23.182  0.00  0.00    +0.000 C 
BRANCH  26  27
ATOM     27  C   UNL     1      -3.073  12.940  23.689  0.00  0.00    +0.000 C 
ATOM     28  C   UNL     1      -3.729  14.279  23.903  0.00  0.00    +0.000 C 
ATOM     29  O   UNL     1      -3.719  11.906  23.878  0.00  0.00    +0.000 OA
ENDBRANCH  26  27
BRANCH  26  30
ATOM     30  C   UNL     1      -0.994  14.360  23.315  0.00  0.00    +0.000 C 
BRANCH  30  31
ATOM     31  C   UNL     1      -0.487  15.066  22.072  0.00  0.00    +0.000 A 
ATOM     32  C   UNL     1      -1.311  15.793  21.202  0.00  0.00    +0.000 A 
ATOM     33  C   UNL     1      -0.778  16.497  20.123  0.00  0.00    +0.000 A 
ATOM     34  C   UNL     1       0.587  16.462  19.869  0.00  0.00    +0.000 A 
ATOM     35  C   UNL     1       1.419  15.700  20.685  0.00  0.00    +0.000 A 
ATOM     36  C   UNL     1       0.886  15.005  21.776  0.00  0.00    +0.000 A 
ENDBRANCH  30  31
ENDBRANCH  26  30
ENDBRANCH  24  26
ENDBRANCH   5  22
TORSDOF 8
ENDMDL
MODEL 6
REMARK VINA RESULT:      -8.4      2.582      4.770
REMARK  Name = 
REMARK  10 active torsions:
REMARK  status: ('A' for Active; 'I' for Inactive)
REMARK    1  A    between atoms: C_1  and  C_2
REMARK    2  A    between atoms: C_2  and  C_3
REMARK    3  A    between atoms: N_6  and  C_7
REMARK    4  A    between atoms: C_11  and  C_12
REMARK    5  A    between atoms: N_14  and  C_15
REMARK    6  A    between atoms: C_15  and  C_16
REMARK    7  A    between atoms: C_15  and  C_23
REMARK    8  A    between atoms: C_16  and  C_17
REMARK    9  A    between atoms: C_23  and  C_24
REMARK   10  A    between atoms: C_28  and  C_29
REMARK                            x       y       z     vdW  Elec       q    Type
REMARK                         _______ _______ _______ _____ _____    ______ ____
ROOT
ATOM      1  C   UNL     1       0.155  11.000  20.739  0.00  0.00    +0.000 A 
ATOM      2  C   UNL     1       0.021  10.536  22.056  0.00  0.00    +0.000 A 
ATOM      3  C   UNL     1       0.540   9.296  22.439  0.00  0.00    +0.000 A 
ATOM      4  C   UNL     1       1.185   8.492  21.502  0.00  0.00    +0.000 A 
ATOM      5  C   UNL     1       1.321   8.937  20.185  0.00  0.00    +0.000 A 
ATOM      6  C   UNL     1       0.829  10.191  19.815  0.00  0.00    +0.000 A 
ENDROOT
BRANCH   1  10
ATOM      7  C   UNL     1       1.101  15.453  18.953  0.00  0.00    +0.000 A 
ATOM      8  S   UNL     1      -0.407  14.699  19.326  0.00  0.00    +0.000 S 
ATOM      9  C   UNL     1       0.396  13.310  19.920  0.00  0.00    +0.000 A 
ATOM     10  N   UNL     1      -0.326  12.278  20.414  0.00  0.00    +0.000 N 
ATOM     11  N   UNL     1       1.702  13.389  19.867  0.00  0.00    +0.000 NA
ATOM     12  C   UNL     1       2.131  14.587  19.315  0.00  0.00    +0.000 A 
ATOM     13  H   UNL     1      -1.328  12.394  20.491  0.00  0.00    +0.000 HD
BRANCH  12  14
ATOM     14  C   UNL     1       3.578  14.803  19.196  0.00  0.00    +0.000 A 
ATOM     15  C   UNL     1       4.276  14.721  17.986  0.00  0.00    +0.000 A 
ATOM     16  C   UNL     1       5.666  14.867  17.937  0.00  0.00    +0.000 A 
ATOM     17  C   UNL     1       6.387  15.083  19.105  0.00  0.00    +0.000 A 
ATOM     18  C   UNL     1       5.714  15.170  20.318  0.00  0.00    +0.000 A 
ATOM     19  C   UNL     1       4.326  15.027  20.365  0.00  0.00    +0.000 A 
ENDBRANCH  12  14
BRANCH   7  21
ATOM     20  C   UNL     1      -0.184  17.463  17.979  0.00  0.00    +0.000 C 
ATOM     21  C   UNL     1       1.148  16.842  18.371  0.00  0.00    +0.000 C 
ENDBRANCH   7  21
ENDBRANCH   1  10
BRANCH   5  22
ATOM     22  C   UNL     1       1.867   8.027  19.155  0.00  0.00    +0.000 C 
ATOM     23  O   UNL     1       2.094   8.452  18.023  0.00  0.00    +0.000 OA
ATOM     24  N   UNL     1       2.117   6.725  19.537  0.00  0.00    +0.000 N 
ATOM     25  H   UNL     1       1.880   6.415  20.473  0.00  0.00    +0.000 HD
BRANCH  24  26
ATOM     26  C   UNL     1       2.756   5.794  18.607  0.00  0.00    +0.000 C 
BRANCH  26  27
ATOM     27  C   UNL     1       1.957   4.481  18.426  0.00  0.00    +0.000 C 
ATOM     28  C   UNL     1       2.082   3.450  19.518  0.00  0.00    +0.000 C 
ATOM     29  O   UNL     1       1.209   4.269  17.469  0.00  0.00    +0.000 OA
ENDBRANCH  26  27
BRANCH  26  30
ATOM     30  C   UNL     1       4.229   5.494  18.963  0.00  0.00    +0.000 C 
BRANCH  30  31
ATOM     31  C   UNL     1       5.236   5.302  17.844  0.00  0.00    +0.000 A 
ATOM     32  C   UNL     1       6.499   4.724  18.029  0.00  0.00    +0.000 A 
ATOM     33  C   UNL     1       7.351   4.490  16.950  0.00  0.00    +0.000 A 
ATOM     34  C   UNL     1       6.972   4.860  15.666  0.00  0.00    +0.000 A 
ATOM     35  C   UNL     1       5.746   5.489  15.465  0.00  0.00    +0.000 A 
ATOM     36  C   UNL     1       4.886   5.711  16.546  0.00  0.00    +0.000 A 
ENDBRANCH  30  31
ENDBRANCH  26  30
ENDBRANCH  24  26
ENDBRANCH   5  22
TORSDOF 8
ENDMDL
MODEL 7
REMARK VINA RESULT:      -8.4      2.628      4.916
REMARK  Name = 
REMARK  10 active torsions:
REMARK  status: ('A' for Active; 'I' for Inactive)
REMARK    1  A    between atoms: C_1  and  C_2
REMARK    2  A    between atoms: C_2  and  C_3
REMARK    3  A    between atoms: N_6  and  C_7
REMARK    4  A    between atoms: C_11  and  C_12
REMARK    5  A    between atoms: N_14  and  C_15
REMARK    6  A    between atoms: C_15  and  C_16
REMARK    7  A    between atoms: C_15  and  C_23
REMARK    8  A    between atoms: C_16  and  C_17
REMARK    9  A    between atoms: C_23  and  C_24
REMARK   10  A    between atoms: C_28  and  C_29
REMARK                            x       y       z     vdW  Elec       q    Type
REMARK                         _______ _______ _______ _____ _____    ______ ____
ROOT
ATOM      1  C   UNL     1       0.208  10.996  20.677  0.00  0.00    +0.000 A 
ATOM      2  C   UNL     1      -0.021  10.582  21.998  0.00  0.00    +0.000 A 
ATOM      3  C   UNL     1       0.435   9.342  22.454  0.00  0.00    +0.000 A 
ATOM      4  C   UNL     1       1.111   8.487  21.586  0.00  0.00    +0.000 A 
ATOM      5  C   UNL     1       1.342   8.882  20.267  0.00  0.00    +0.000 A 
ATOM      6  C   UNL     1       0.913  10.136  19.825  0.00  0.00    +0.000 A 
ENDROOT
BRANCH   1  10
ATOM      7  C   UNL     1       1.404  15.360  18.824  0.00  0.00    +0.000 A 
ATOM      8  S   UNL     1      -0.148  14.661  19.116  0.00  0.00    +0.000 S 
ATOM      9  C   UNL     1       0.572  13.270  19.806  0.00  0.00    +0.000 A 
ATOM     10  N   UNL     1      -0.212  12.276  20.281  0.00  0.00    +0.000 N 
ATOM     11  N   UNL     1       1.881  13.313  19.841  0.00  0.00    +0.000 NA
ATOM     12  C   UNL     1       2.381  14.480  19.282  0.00  0.00    +0.000 A 
ATOM     13  H   UNL     1      -1.213  12.421  20.285  0.00  0.00    +0.000 HD
BRANCH  12  14
ATOM     14  C   UNL     1       3.839  14.651  19.257  0.00  0.00    +0.000 A 
ATOM     15  C   UNL     1       4.598  14.991  20.382  0.00  0.00    +0.000 A 
ATOM     16  C   UNL     1       5.977  15.210  20.290  0.00  0.00    +0.000 A 
ATOM     17  C   UNL     1       6.619  15.108  19.062  0.00  0.00    +0.000 A 
ATOM     18  C   UNL     1       5.885  14.768  17.932  0.00  0.00    +0.000 A 
ATOM     19  C   UNL     1       4.509  14.547  18.026  0.00  0.00    +0.000 A 
ENDBRANCH  12  14
BRANCH   7  21
ATOM     20  C   UNL     1       0.239  17.502  17.989  0.00  0.00    +0.000 C 
ATOM     21  C   UNL     1       1.531  16.728  18.205  0.00  0.00    +0.000 C 
ENDBRANCH   7  21
ENDBRANCH   1  10
BRANCH   5  22
ATOM     22  C   UNL     1       1.923   7.921  19.304  0.00  0.00    +0.000 C 
ATOM     23  O   UNL     1       2.150   8.277  18.148  0.00  0.00    +0.000 OA
ATOM     24  N   UNL     1       2.202   6.654  19.772  0.00  0.00    +0.000 N 
ATOM     25  H   UNL     1       1.962   6.400  20.724  0.00  0.00    +0.000 HD
BRANCH  24  26
ATOM     26  C   UNL     1       2.874   5.681  18.911  0.00  0.00    +0.000 C 
BRANCH  26  27
ATOM     27  C   UNL     1       2.271   4.260  19.023  0.00  0.00    +0.000 C 
ATOM     28  C   UNL     1       2.059   3.507  17.735  0.00  0.00    +0.000 C 
ATOM     29  O   UNL     1       2.006   3.719  20.098  0.00  0.00    +0.000 OA
ENDBRANCH  26  27
BRANCH  26  30
ATOM     30  C   UNL     1       4.405   5.644  19.115  0.00  0.00    +0.000 C 
BRANCH  30  31
ATOM     31  C   UNL     1       5.307   5.423  17.915  0.00  0.00    +0.000 A 
ATOM     32  C   UNL     1       6.577   4.838  17.997  0.00  0.00    +0.000 A 
ATOM     33  C   UNL     1       7.327   4.577  16.851  0.00  0.00    +0.000 A 
ATOM     34  C   UNL     1       6.837   4.927  15.599  0.00  0.00    +0.000 A 
ATOM     35  C   UNL     1       5.603   5.563  15.497  0.00  0.00    +0.000 A 
ATOM     36  C   UNL     1       4.844   5.812  16.645  0.00  0.00    +0.000 A 
ENDBRANCH  30  31
ENDBRANCH  26  30
ENDBRANCH  24  26
ENDBRANCH   5  22
TORSDOF 8
ENDMDL
MODEL 8
REMARK VINA RESULT:      -8.3      3.542      4.793
REMARK  Name = 
REMARK  10 active torsions:
REMARK  status: ('A' for Active; 'I' for Inactive)
REMARK    1  A    between atoms: C_1  and  C_2
REMARK    2  A    between atoms: C_2  and  C_3
REMARK    3  A    between atoms: N_6  and  C_7
REMARK    4  A    between atoms: C_11  and  C_12
REMARK    5  A    between atoms: N_14  and  C_15
REMARK    6  A    between atoms: C_15  and  C_16
REMARK    7  A    between atoms: C_15  and  C_23
REMARK    8  A    between atoms: C_16  and  C_17
REMARK    9  A    between atoms: C_23  and  C_24
REMARK   10  A    between atoms: C_28  and  C_29
REMARK                            x       y       z     vdW  Elec       q    Type
REMARK                         _______ _______ _______ _____ _____    ______ ____
ROOT
ATOM      1  C   UNL     1      -0.872  10.942  18.038  0.00  0.00    +0.000 A 
ATOM      2  C   UNL     1      -0.429  12.126  18.645  0.00  0.00    +0.000 A 
ATOM      3  C   UNL     1       0.779  12.166  19.348  0.00  0.00    +0.000 A 
ATOM      4  C   UNL     1       1.552  11.013  19.470  0.00  0.00    +0.000 A 
ATOM      5  C   UNL     1       1.121   9.826  18.875  0.00  0.00    +0.000 A 
ATOM      6  C   UNL     1      -0.070   9.799  18.146  0.00  0.00    +0.000 A 
ENDROOT
BRANCH   1  10
ATOM      7  C   UNL     1      -5.631  12.052  17.842  0.00  0.00    +0.000 A 
ATOM      8  S   UNL     1      -4.542  11.589  16.584  0.00  0.00    +0.000 S 
ATOM      9  C   UNL     1      -3.275  11.375  17.714  0.00  0.00    +0.000 A 
ATOM     10  N   UNL     1      -2.059  10.963  17.288  0.00  0.00    +0.000 N 
ATOM     11  N   UNL     1      -3.625  11.613  18.954  0.00  0.00    +0.000 NA
ATOM     12  C   UNL     1      -4.951  12.007  19.056  0.00  0.00    +0.000 A 
ATOM     13  H   UNL     1      -1.957  10.715  16.313  0.00  0.00    +0.000 HD
BRANCH  12  14
ATOM     14  C   UNL     1      -5.470  12.307  20.396  0.00  0.00    +0.000 A 
ATOM     15  C   UNL     1      -6.704  11.847  20.869  0.00  0.00    +0.000 A 
ATOM     16  C   UNL     1      -7.184  12.217  22.130  0.00  0.00    +0.000 A 
ATOM     17  C   UNL     1      -6.442  13.071  22.936  0.00  0.00    +0.000 A 
ATOM     18  C   UNL     1      -5.211  13.537  22.488  0.00  0.00    +0.000 A 
ATOM     19  C   UNL     1      -4.732  13.164  21.231  0.00  0.00    +0.000 A 
ENDBRANCH  12  14
BRANCH   7  21
ATOM     20  C   UNL     1      -7.343  13.767  16.963  0.00  0.00    +0.000 C 
ATOM     21  C   UNL     1      -7.068  12.384  17.536  0.00  0.00    +0.000 C 
ENDBRANCH   7  21
ENDBRANCH   1  10
BRANCH   5  22
ATOM     22  C   UNL     1       1.858   8.568  19.128  0.00  0.00    +0.000 C 
ATOM     23  O   UNL     1       1.774   8.022  20.228  0.00  0.00    +0.000 OA
ATOM     24  N   UNL     1       2.601   8.055  18.085  0.00  0.00    +0.000 N 
ATOM     25  H   UNL     1       2.666   8.563  17.209  0.00  0.00    +0.000 HD
BRANCH  24  26
ATOM     26  C   UNL     1       3.271   6.763  18.223  0.00  0.00    +0.000 C 
BRANCH  26  27
ATOM     27  C   UNL     1       4.508   6.623  17.303  0.00  0.00    +0.000 C 
ATOM     28  C   UNL     1       5.723   5.954  17.891  0.00  0.00    +0.000 C 
ATOM     29  O   UNL     1       4.522   6.990  16.126  0.00  0.00    +0.000 OA
ENDBRANCH  26  27
BRANCH  26  30
ATOM     30  C   UNL     1       2.317   5.561  18.044  0.00  0.00    +0.000 C 
BRANCH  30  31
ATOM     31  C   UNL     1       2.271   4.486  19.114  0.00  0.00    +0.000 A 
ATOM     32  C   UNL     1       3.308   3.572  19.340  0.00  0.00    +0.000 A 
ATOM     33  C   UNL     1       3.252   2.662  20.396  0.00  0.00    +0.000 A 
ATOM     34  C   UNL     1       2.140   2.624  21.228  0.00  0.00    +0.000 A 
ATOM     35  C   UNL     1       1.072   3.483  20.988  0.00  0.00    +0.000 A 
ATOM     36  C   UNL     1       1.134   4.405  19.938  0.00  0.00    +0.000 A 
ENDBRANCH  30  31
ENDBRANCH  26  30
ENDBRANCH  24  26
ENDBRANCH   5  22
TORSDOF 8
ENDMDL
MODEL 9
REMARK VINA RESULT:      -8.3      2.604      4.930
REMARK  Name = 
REMARK  10 active torsions:
REMARK  status: ('A' for Active; 'I' for Inactive)
REMARK    1  A    between atoms: C_1  and  C_2
REMARK    2  A    between atoms: C_2  and  C_3
REMARK    3  A    between atoms: N_6  and  C_7
REMARK    4  A    between atoms: C_11  and  C_12
REMARK    5  A    between atoms: N_14  and  C_15
REMARK    6  A    between atoms: C_15  and  C_16
REMARK    7  A    between atoms: C_15  and  C_23
REMARK    8  A    between atoms: C_16  and  C_17
REMARK    9  A    between atoms: C_23  and  C_24
REMARK   10  A    between atoms: C_28  and  C_29
REMARK                            x       y       z     vdW  Elec       q    Type
REMARK                         _______ _______ _______ _____ _____    ______ ____
ROOT
ATOM      1  C   UNL     1       0.123  11.010  20.699  0.00  0.00    +0.000 A 
ATOM      2  C   UNL     1      -0.097  10.525  21.996  0.00  0.00    +0.000 A 
ATOM      3  C   UNL     1       0.366   9.263  22.382  0.00  0.00    +0.000 A 
ATOM      4  C   UNL     1       1.041   8.460  21.466  0.00  0.00    +0.000 A 
ATOM      5  C   UNL     1       1.265   8.928  20.169  0.00  0.00    +0.000 A 
ATOM      6  C   UNL     1       0.828  10.202  19.798  0.00  0.00    +0.000 A 
ENDROOT
BRANCH   1  10
ATOM      7  C   UNL     1       1.272  15.447  18.993  0.00  0.00    +0.000 A 
ATOM      8  S   UNL     1      -0.271  14.741  19.313  0.00  0.00    +0.000 S 
ATOM      9  C   UNL     1       0.466  13.319  19.914  0.00  0.00    +0.000 A 
ATOM     10  N   UNL     1      -0.304  12.308  20.374  0.00  0.00    +0.000 N 
ATOM     11  N   UNL     1       1.776  13.355  19.901  0.00  0.00    +0.000 NA
ATOM     12  C   UNL     1       2.261  14.543  19.375  0.00  0.00    +0.000 A 
ATOM     13  H   UNL     1      -1.304  12.457  20.423  0.00  0.00    +0.000 HD
BRANCH  12  14
ATOM     14  C   UNL     1       3.718  14.710  19.302  0.00  0.00    +0.000 A 
ATOM     15  C   UNL     1       4.510  15.077  20.395  0.00  0.00    +0.000 A 
ATOM     16  C   UNL     1       5.886  15.290  20.256  0.00  0.00    +0.000 A 
ATOM     17  C   UNL     1       6.492  15.154  19.013  0.00  0.00    +0.000 A 
ATOM     18  C   UNL     1       5.724  14.787  17.914  0.00  0.00    +0.000 A 
ATOM     19  C   UNL     1       4.351  14.572  18.055  0.00  0.00    +0.000 A 
ENDBRANCH  12  14
BRANCH   7  21
ATOM     20  C   UNL     1       1.672  17.957  19.421  0.00  0.00    +0.000 C 
ATOM     21  C   UNL     1       1.383  16.839  18.429  0.00  0.00    +0.000 C 
ENDBRANCH   7  21
ENDBRANCH   1  10
BRANCH   5  22
ATOM     22  C   UNL     1       1.845   8.023  19.152  0.00  0.00    +0.000 C 
ATOM     23  O   UNL     1       2.141   8.463  18.041  0.00  0.00    +0.000 OA
ATOM     24  N   UNL     1       2.046   6.710  19.522  0.00  0.00    +0.000 N 
ATOM     25  H   UNL     1       1.752   6.389  20.439  0.00  0.00    +0.000 HD
BRANCH  24  26
ATOM     26  C   UNL     1       2.712   5.780  18.610  0.00  0.00    +0.000 C 
BRANCH  26  27
ATOM     27  C   UNL     1       2.012   4.403  18.535  0.00  0.00    +0.000 C 
ATOM     28  C   UNL     1       1.927   3.611  19.814  0.00  0.00    +0.000 C 
ATOM     29  O   UNL     1       1.495   3.959  17.507  0.00  0.00    +0.000 OA
ENDBRANCH  26  27
BRANCH  26  30
ATOM     30  C   UNL     1       4.219   5.613  18.907  0.00  0.00    +0.000 C 
BRANCH  30  31
ATOM     31  C   UNL     1       5.170   5.309  17.764  0.00  0.00    +0.000 A 
ATOM     32  C   UNL     1       4.883   5.591  16.422  0.00  0.00    +0.000 A 
ATOM     33  C   UNL     1       5.829   5.373  15.420  0.00  0.00    +0.000 A 
ATOM     34  C   UNL     1       7.071   4.837  15.735  0.00  0.00    +0.000 A 
ATOM     35  C   UNL     1       7.358   4.496  17.054  0.00  0.00    +0.000 A 
ATOM     36  C   UNL     1       6.414   4.726  18.060  0.00  0.00    +0.000 A 
ENDBRANCH  30  31
ENDBRANCH  26  30
ENDBRANCH  24  26
ENDBRANCH   5  22
TORSDOF 8
ENDMDL
