MODEL 1
REMARK VINA RESULT:      -7.9      0.000      0.000
REMARK  Name = 
REMARK  9 active torsions:
REMARK  status: ('A' for Active; 'I' for Inactive)
REMARK    1  A    between atoms: C_2  and  C_3
REMARK    2  A    between atoms: C_3  and  C_4
REMARK    3  A    between atoms: C_7  and  C_8
REMARK    4  A    between atoms: C_8  and  C_9
REMARK    5  A    between atoms: C_9  and  O_11
REMARK    6  A    between atoms: O_11  and  C_12
REMARK    7  A    between atoms: C_12  and  C_13
REMARK    8  A    between atoms: C_17  and  C_18
REMARK    9  A    between atoms: C_18  and  C_19
REMARK                            x       y       z     vdW  Elec       q    Type
REMARK                         _______ _______ _______ _____ _____    ______ ____
ROOT
ATOM      1  C   UNL     1       7.018   5.816  17.240  0.00  0.00    +0.000 C 
ATOM      2  C   UNL     1       5.910   5.901  18.330  0.00  0.00    +0.000 C 
ATOM      3  C   UNL     1       5.333   4.517  18.662  0.00  0.00    +0.000 C 
ATOM      4  C   UNL     1       4.660   3.830  17.449  0.00  0.00    +0.000 C 
ATOM      5  C   UNL     1       5.448   4.129  16.202  0.00  0.00    +0.000 A 
ATOM      6  N   UNL     1       5.221   3.523  14.999  0.00  0.00    +0.000 N 
ATOM      7  C   UNL     1       6.075   4.019  14.040  0.00  0.00    +0.000 A 
ATOM      8  C   UNL     1       6.184   3.685  12.672  0.00  0.00    +0.000 A 
ATOM      9  C   UNL     1       7.168   4.373  11.939  0.00  0.00    +0.000 A 
ATOM     10  C   UNL     1       8.015   5.296  12.542  0.00  0.00    +0.000 A 
ATOM     11  C   UNL     1       7.899   5.581  13.904  0.00  0.00    +0.000 A 
ATOM     12  C   UNL     1       6.900   4.956  14.680  0.00  0.00    +0.000 A 
ATOM     13  C   UNL     1       6.489   5.031  16.054  0.00  0.00    +0.000 A 
ATOM     14  H   UNL     1       4.523   2.813  14.824  0.00  0.00    +0.000 HD
ENDROOT
BRANCH   8  15
ATOM     15  C   UNL     1       5.333   2.650  11.975  0.00  0.00    +0.000 C 
ATOM     16  C   UNL     1       4.114   3.244  11.287  0.00  0.00    +0.000 C 
ENDBRANCH   8  15
BRANCH   1  17
ATOM     17  C   UNL     1       7.553   7.226  16.918  0.00  0.00    +0.000 C 
BRANCH  17  19
ATOM     18  C   UNL     1       8.419   9.254  18.150  0.00  0.00    +0.000 C 
ATOM     19  C   UNL     1       8.036   7.967  18.145  0.00  0.00    +0.000 C 
ENDBRANCH  17  19
ENDBRANCH   1  17
BRANCH   4  20
ATOM     20  C   UNL     1       3.205   4.279  17.276  0.00  0.00    +0.000 C 
BRANCH  20  21
ATOM     21  C   UNL     1       2.227   3.253  17.785  0.00  0.00    +0.000 C 
ATOM     22  O   UNL     1       2.182   2.084  17.426  0.00  0.00    +0.000 OA
BRANCH  21  23
ATOM     23  O   UNL     1       1.323   3.863  18.600  0.00  0.00    +0.000 OA
BRANCH  23  24
ATOM     24  C   UNL     1       1.590   3.754  20.004  0.00  0.00    +0.000 C 
ATOM     25  C   UNL     1       1.734   5.159  20.563  0.00  0.00    +0.000 C 
ENDBRANCH  23  24
ENDBRANCH  21  23
ENDBRANCH  20  21
ENDBRANCH   4  20
TORSDOF 7
ENDMDL
MODEL 2
REMARK VINA RESULT:      -7.6      0.767      1.056
REMARK  Name = 
REMARK  9 active torsions:
REMARK  status: ('A' for Active; 'I' for Inactive)
REMARK    1  A    between atoms: C_2  and  C_3
REMARK    2  A    between atoms: C_3  and  C_4
REMARK    3  A    between atoms: C_7  and  C_8
REMARK    4  A    between atoms: C_8  and  C_9
REMARK    5  A    between atoms: C_9  and  O_11
REMARK    6  A    between atoms: O_11  and  C_12
REMARK    7  A    between atoms: C_12  and  C_13
REMARK    8  A    between atoms: C_17  and  C_18
REMARK    9  A    between atoms: C_18  and  C_19
REMARK                            x       y       z     vdW  Elec       q    Type
REMARK                         _______ _______ _______ _____ _____    ______ ____
ROOT
ATOM      1  C   UNL     1       7.020   5.799  17.253  0.00  0.00    +0.000 C 
ATOM      2  C   UNL     1       5.925   5.848  18.358  0.00  0.00    +0.000 C 
ATOM      3  C   UNL     1       5.389   4.447  18.688  0.00  0.00    +0.000 C 
ATOM      4  C   UNL     1       4.719   3.750  17.479  0.00  0.00    +0.000 C 
ATOM      5  C   UNL     1       5.482   4.077  16.224  0.00  0.00    +0.000 A 
ATOM      6  N   UNL     1       5.255   3.473  15.021  0.00  0.00    +0.000 N 
ATOM      7  C   UNL     1       6.083   3.997  14.054  0.00  0.00    +0.000 A 
ATOM      8  C   UNL     1       6.182   3.675  12.682  0.00  0.00    +0.000 A 
ATOM      9  C   UNL     1       7.138   4.393  11.941  0.00  0.00    +0.000 A 
ATOM     10  C   UNL     1       7.967   5.334  12.538  0.00  0.00    +0.000 A 
ATOM     11  C   UNL     1       7.862   5.608  13.904  0.00  0.00    +0.000 A 
ATOM     12  C   UNL     1       6.891   4.952  14.689  0.00  0.00    +0.000 A 
ATOM     13  C   UNL     1       6.496   5.007  16.068  0.00  0.00    +0.000 A 
ATOM     14  H   UNL     1       4.574   2.746  14.850  0.00  0.00    +0.000 HD
ENDROOT
BRANCH   8  15
ATOM     15  C   UNL     1       5.350   2.622  11.990  0.00  0.00    +0.000 C 
ATOM     16  C   UNL     1       4.116   3.190  11.307  0.00  0.00    +0.000 C 
ENDBRANCH   8  15
BRANCH   1  17
ATOM     17  C   UNL     1       7.513   7.225  16.933  0.00  0.00    +0.000 C 
BRANCH  17  19
ATOM     18  C   UNL     1       8.361   9.258  18.168  0.00  0.00    +0.000 C 
ATOM     19  C   UNL     1       8.024   7.959  18.152  0.00  0.00    +0.000 C 
ENDBRANCH  17  19
ENDBRANCH   1  17
BRANCH   4  20
ATOM     20  C   UNL     1       3.250   4.161  17.328  0.00  0.00    +0.000 C 
BRANCH  20  21
ATOM     21  C   UNL     1       2.602   4.458  18.656  0.00  0.00    +0.000 C 
ATOM     22  O   UNL     1       2.397   5.577  19.104  0.00  0.00    +0.000 OA
BRANCH  21  23
ATOM     23  O   UNL     1       2.407   3.290  19.329  0.00  0.00    +0.000 OA
BRANCH  23  24
ATOM     24  C   UNL     1       1.185   3.207  20.074  0.00  0.00    +0.000 C 
ATOM     25  C   UNL     1       1.525   2.730  21.475  0.00  0.00    +0.000 C 
ENDBRANCH  23  24
ENDBRANCH  21  23
ENDBRANCH  20  21
ENDBRANCH   4  20
TORSDOF 7
ENDMDL
MODEL 3
REMARK VINA RESULT:      -7.5      0.964      1.102
REMARK  Name = 
REMARK  9 active torsions:
REMARK  status: ('A' for Active; 'I' for Inactive)
REMARK    1  A    between atoms: C_2  and  C_3
REMARK    2  A    between atoms: C_3  and  C_4
REMARK    3  A    between atoms: C_7  and  C_8
REMARK    4  A    between atoms: C_8  and  C_9
REMARK    5  A    between atoms: C_9  and  O_11
REMARK    6  A    between atoms: O_11  and  C_12
REMARK    7  A    between atoms: C_12  and  C_13
REMARK    8  A    between atoms: C_17  and  C_18
REMARK    9  A    between atoms: C_18  and  C_19
REMARK                            x       y       z     vdW  Elec       q    Type
REMARK                         _______ _______ _______ _____ _____    ______ ____
ROOT
ATOM      1  C   UNL     1       7.093   5.769  17.203  0.00  0.00    +0.000 C 
ATOM      2  C   UNL     1       6.019   5.784  18.329  0.00  0.00    +0.000 C 
ATOM      3  C   UNL     1       5.517   4.370  18.653  0.00  0.00    +0.000 C 
ATOM      4  C   UNL     1       4.837   3.673  17.450  0.00  0.00    +0.000 C 
ATOM      5  C   UNL     1       5.569   4.029  16.185  0.00  0.00    +0.000 A 
ATOM      6  N   UNL     1       5.330   3.433  14.979  0.00  0.00    +0.000 N 
ATOM      7  C   UNL     1       6.129   3.984  14.002  0.00  0.00    +0.000 A 
ATOM      8  C   UNL     1       6.208   3.679  12.625  0.00  0.00    +0.000 A 
ATOM      9  C   UNL     1       7.135   4.423  11.874  0.00  0.00    +0.000 A 
ATOM     10  C   UNL     1       7.958   5.374  12.466  0.00  0.00    +0.000 A 
ATOM     11  C   UNL     1       7.874   5.631  13.837  0.00  0.00    +0.000 A 
ATOM     12  C   UNL     1       6.931   4.947  14.633  0.00  0.00    +0.000 A 
ATOM     13  C   UNL     1       6.562   4.980  16.020  0.00  0.00    +0.000 A 
ATOM     14  H   UNL     1       4.660   2.695  14.813  0.00  0.00    +0.000 HD
ENDROOT
BRANCH   8  15
ATOM     15  C   UNL     1       5.383   2.618  11.937  0.00  0.00    +0.000 C 
ATOM     16  C   UNL     1       4.155   3.178  11.235  0.00  0.00    +0.000 C 
ENDBRANCH   8  15
BRANCH   1  17
ATOM     17  C   UNL     1       7.553   7.207  16.890  0.00  0.00    +0.000 C 
BRANCH  17  19
ATOM     18  C   UNL     1       8.396   9.243  18.124  0.00  0.00    +0.000 C 
ATOM     19  C   UNL     1       8.051   7.946  18.112  0.00  0.00    +0.000 C 
ENDBRANCH  17  19
ENDBRANCH   1  17
BRANCH   4  20
ATOM     20  C   UNL     1       3.358   4.057  17.332  0.00  0.00    +0.000 C 
BRANCH  20  21
ATOM     21  C   UNL     1       2.641   3.979  18.655  0.00  0.00    +0.000 C 
ATOM     22  O   UNL     1       2.240   2.949  19.179  0.00  0.00    +0.000 OA
BRANCH  21  23
ATOM     23  O   UNL     1       2.393   5.241  19.104  0.00  0.00    +0.000 OA
BRANCH  23  24
ATOM     24  C   UNL     1       2.295   6.246  18.087  0.00  0.00    +0.000 C 
ATOM     25  C   UNL     1       2.505   7.599  18.745  0.00  0.00    +0.000 C 
ENDBRANCH  23  24
ENDBRANCH  21  23
ENDBRANCH  20  21
ENDBRANCH   4  20
TORSDOF 7
ENDMDL
MODEL 4
REMARK VINA RESULT:      -6.9      3.272      7.584
REMARK  Name = 
REMARK  9 active torsions:
REMARK  status: ('A' for Active; 'I' for Inactive)
REMARK    1  A    between atoms: C_2  and  C_3
REMARK    2  A    between atoms: C_3  and  C_4
REMARK    3  A    between atoms: C_7  and  C_8
REMARK    4  A    between atoms: C_8  and  C_9
REMARK    5  A    between atoms: C_9  and  O_11
REMARK    6  A    between atoms: O_11  and  C_12
REMARK    7  A    between atoms: C_12  and  C_13
REMARK    8  A    between atoms: C_17  and  C_18
REMARK    9  A    between atoms: C_18  and  C_19
REMARK                            x       y       z     vdW  Elec       q    Type
REMARK                         _______ _______ _______ _____ _____    ______ ____
ROOT
ATOM      1  C   UNL     1       3.170   4.442  20.558  0.00  0.00    +0.000 C 
ATOM      2  C   UNL     1       3.854   3.420  19.602  0.00  0.00    +0.000 C 
ATOM      3  C   UNL     1       5.108   4.012  18.943  0.00  0.00    +0.000 C 
ATOM      4  C   UNL     1       4.810   5.253  18.067  0.00  0.00    +0.000 C 
ATOM      5  C   UNL     1       3.740   6.084  18.723  0.00  0.00    +0.000 A 
ATOM      6  N   UNL     1       3.383   7.332  18.296  0.00  0.00    +0.000 N 
ATOM      7  C   UNL     1       2.361   7.832  19.071  0.00  0.00    +0.000 A 
ATOM      8  C   UNL     1       1.686   9.070  18.981  0.00  0.00    +0.000 A 
ATOM      9  C   UNL     1       0.673   9.298  19.929  0.00  0.00    +0.000 A 
ATOM     10  C   UNL     1       0.384   8.372  20.925  0.00  0.00    +0.000 A 
ATOM     11  C   UNL     1       1.090   7.169  21.002  0.00  0.00    +0.000 A 
ATOM     12  C   UNL     1       2.087   6.866  20.051  0.00  0.00    +0.000 A 
ATOM     13  C   UNL     1       2.960   5.751  19.818  0.00  0.00    +0.000 A 
ATOM     14  H   UNL     1       3.799   7.826  17.519  0.00  0.00    +0.000 HD
ENDROOT
BRANCH   8  15
ATOM     15  C   UNL     1       1.995  10.139  17.960  0.00  0.00    +0.000 C 
ATOM     16  C   UNL     1       1.726  11.546  18.469  0.00  0.00    +0.000 C 
ENDBRANCH   8  15
BRANCH   1  17
ATOM     17  C   UNL     1       1.903   3.820  21.179  0.00  0.00    +0.000 C 
BRANCH  17  19
ATOM     18  C   UNL     1       0.737   2.610  19.294  0.00  0.00    +0.000 C 
ATOM     19  C   UNL     1       0.790   3.622  20.174  0.00  0.00    +0.000 C 
ENDBRANCH  17  19
ENDBRANCH   1  17
BRANCH   4  20
ATOM     20  C   UNL     1       4.379   4.858  16.650  0.00  0.00    +0.000 C 
BRANCH  20  21
ATOM     21  C   UNL     1       5.334   5.367  15.602  0.00  0.00    +0.000 C 
ATOM     22  O   UNL     1       5.282   6.473  15.081  0.00  0.00    +0.000 OA
BRANCH  21  23
ATOM     23  O   UNL     1       6.171   4.359  15.233  0.00  0.00    +0.000 OA
BRANCH  23  24
ATOM     24  C   UNL     1       6.742   4.483  13.924  0.00  0.00    +0.000 C 
ATOM     25  C   UNL     1       5.929   3.619  12.976  0.00  0.00    +0.000 C 
ENDBRANCH  23  24
ENDBRANCH  21  23
ENDBRANCH  20  21
ENDBRANCH   4  20
TORSDOF 7
ENDMDL
MODEL 5
REMARK VINA RESULT:      -6.8      3.135      7.270
REMARK  Name = 
REMARK  9 active torsions:
REMARK  status: ('A' for Active; 'I' for Inactive)
REMARK    1  A    between atoms: C_2  and  C_3
REMARK    2  A    between atoms: C_3  and  C_4
REMARK    3  A    between atoms: C_7  and  C_8
REMARK    4  A    between atoms: C_8  and  C_9
REMARK    5  A    between atoms: C_9  and  O_11
REMARK    6  A    between atoms: O_11  and  C_12
REMARK    7  A    between atoms: C_12  and  C_13
REMARK    8  A    between atoms: C_17  and  C_18
REMARK    9  A    between atoms: C_18  and  C_19
REMARK                            x       y       z     vdW  Elec       q    Type
REMARK                         _______ _______ _______ _____ _____    ______ ____
ROOT
ATOM      1  C   UNL     1       4.439   4.163  19.343  0.00  0.00    +0.000 C 
ATOM      2  C   UNL     1       5.218   3.496  18.172  0.00  0.00    +0.000 C 
ATOM      3  C   UNL     1       6.276   4.442  17.584  0.00  0.00    +0.000 C 
ATOM      4  C   UNL     1       5.673   5.736  16.987  0.00  0.00    +0.000 C 
ATOM      5  C   UNL     1       4.526   6.197  17.845  0.00  0.00    +0.000 A 
ATOM      6  N   UNL     1       3.903   7.403  17.693  0.00  0.00    +0.000 N 
ATOM      7  C   UNL     1       2.875   7.534  18.600  0.00  0.00    +0.000 A 
ATOM      8  C   UNL     1       1.973   8.604  18.790  0.00  0.00    +0.000 A 
ATOM      9  C   UNL     1       1.020   8.441  19.812  0.00  0.00    +0.000 A 
ATOM     10  C   UNL     1       1.000   7.308  20.617  0.00  0.00    +0.000 A 
ATOM     11  C   UNL     1       1.925   6.281  20.420  0.00  0.00    +0.000 A 
ATOM     12  C   UNL     1       2.876   6.368  19.380  0.00  0.00    +0.000 A 
ATOM     13  C   UNL     1       3.921   5.516  18.889  0.00  0.00    +0.000 A 
ATOM     14  H   UNL     1       4.149   8.107  17.010  0.00  0.00    +0.000 HD
ENDROOT
BRANCH   8  15
ATOM     15  C   UNL     1       1.984   9.883  17.987  0.00  0.00    +0.000 C 
ATOM     16  C   UNL     1       1.207  11.010  18.651  0.00  0.00    +0.000 C 
ENDBRANCH   8  15
BRANCH   1  17
ATOM     17  C   UNL     1       3.371   3.193  19.889  0.00  0.00    +0.000 C 
BRANCH  17  19
ATOM     18  C   UNL     1       1.077   2.634  18.992  0.00  0.00    +0.000 C 
ATOM     19  C   UNL     1       2.406   2.719  18.825  0.00  0.00    +0.000 C 
ENDBRANCH  17  19
ENDBRANCH   1  17
BRANCH   4  20
ATOM     20  C   UNL     1       5.204   5.532  15.543  0.00  0.00    +0.000 C 
BRANCH  20  21
ATOM     21  C   UNL     1       6.281   4.937  14.672  0.00  0.00    +0.000 C 
ATOM     22  O   UNL     1       7.400   5.406  14.519  0.00  0.00    +0.000 OA
BRANCH  21  23
ATOM     23  O   UNL     1       5.766   3.880  13.985  0.00  0.00    +0.000 OA
BRANCH  23  24
ATOM     24  C   UNL     1       6.325   3.662  12.684  0.00  0.00    +0.000 C 
ATOM     25  C   UNL     1       5.279   2.959  11.838  0.00  0.00    +0.000 C 
ENDBRANCH  23  24
ENDBRANCH  21  23
ENDBRANCH  20  21
ENDBRANCH   4  20
TORSDOF 7
ENDMDL
MODEL 6
REMARK VINA RESULT:      -6.8      2.998      6.197
REMARK  Name = 
REMARK  9 active torsions:
REMARK  status: ('A' for Active; 'I' for Inactive)
REMARK    1  A    between atoms: C_2  and  C_3
REMARK    2  A    between atoms: C_3  and  C_4
REMARK    3  A    between atoms: C_7  and  C_8
REMARK    4  A    between atoms: C_8  and  C_9
REMARK    5  A    between atoms: C_9  and  O_11
REMARK    6  A    between atoms: O_11  and  C_12
REMARK    7  A    between atoms: C_12  and  C_13
REMARK    8  A    between atoms: C_17  and  C_18
REMARK    9  A    between atoms: C_18  and  C_19
REMARK                            x       y       z     vdW  Elec       q    Type
REMARK                         _______ _______ _______ _____ _____    ______ ____
ROOT
ATOM      1  C   UNL     1       5.192   5.259  16.294  0.00  0.00    +0.000 C 
ATOM      2  C   UNL     1       4.995   6.718  15.787  0.00  0.00    +0.000 C 
ATOM      3  C   UNL     1       4.916   7.717  16.950  0.00  0.00    +0.000 C 
ATOM      4  C   UNL     1       3.724   7.451  17.902  0.00  0.00    +0.000 C 
ATOM      5  C   UNL     1       3.530   5.968  18.061  0.00  0.00    +0.000 A 
ATOM      6  N   UNL     1       2.682   5.409  18.974  0.00  0.00    +0.000 N 
ATOM      7  C   UNL     1       2.694   4.036  18.867  0.00  0.00    +0.000 A 
ATOM      8  C   UNL     1       1.972   3.069  19.601  0.00  0.00    +0.000 A 
ATOM      9  C   UNL     1       2.202   1.725  19.257  0.00  0.00    +0.000 A 
ATOM     10  C   UNL     1       3.123   1.370  18.278  0.00  0.00    +0.000 A 
ATOM     11  C   UNL     1       3.842   2.352  17.591  0.00  0.00    +0.000 A 
ATOM     12  C   UNL     1       3.620   3.718  17.862  0.00  0.00    +0.000 A 
ATOM     13  C   UNL     1       4.141   4.952  17.345  0.00  0.00    +0.000 A 
ATOM     14  H   UNL     1       2.115   5.920  19.636  0.00  0.00    +0.000 HD
ENDROOT
BRANCH   8  15
ATOM     15  C   UNL     1       1.003   3.391  20.714  0.00  0.00    +0.000 C 
ATOM     16  C   UNL     1       1.266   2.594  21.983  0.00  0.00    +0.000 C 
ENDBRANCH   8  15
BRANCH   1  17
ATOM     17  C   UNL     1       5.243   4.285  15.099  0.00  0.00    +0.000 C 
BRANCH  17  19
ATOM     18  C   UNL     1       6.650   4.065  13.014  0.00  0.00    +0.000 C 
ATOM     19  C   UNL     1       6.530   4.384  14.312  0.00  0.00    +0.000 C 
ENDBRANCH  17  19
ENDBRANCH   1  17
BRANCH   4  20
ATOM     20  C   UNL     1       2.434   8.102  17.393  0.00  0.00    +0.000 C 
BRANCH  20  21
ATOM     21  C   UNL     1       1.971   9.226  18.283  0.00  0.00    +0.000 C 
ATOM     22  O   UNL     1       2.039  10.416  18.007  0.00  0.00    +0.000 OA
BRANCH  21  23
ATOM     23  O   UNL     1       1.598   8.716  19.489  0.00  0.00    +0.000 OA
BRANCH  23  24
ATOM     24  C   UNL     1       0.608   9.474  20.197  0.00  0.00    +0.000 C 
ATOM     25  C   UNL     1       0.240   8.703  21.453  0.00  0.00    +0.000 C 
ENDBRANCH  23  24
ENDBRANCH  21  23
ENDBRANCH  20  21
ENDBRANCH   4  20
TORSDOF 7
ENDMDL
MODEL 7
REMARK VINA RESULT:      -6.8      2.441      6.578
REMARK  Name = 
REMARK  9 active torsions:
REMARK  status: ('A' for Active; 'I' for Inactive)
REMARK    1  A    between atoms: C_2  and  C_3
REMARK    2  A    between atoms: C_3  and  C_4
REMARK    3  A    between atoms: C_7  and  C_8
REMARK    4  A    between atoms: C_8  and  C_9
REMARK    5  A    between atoms: C_9  and  O_11
REMARK    6  A    between atoms: O_11  and  C_12
REMARK    7  A    between atoms: C_12  and  C_13
REMARK    8  A    between atoms: C_17  and  C_18
REMARK    9  A    between atoms: C_18  and  C_19
REMARK                            x       y       z     vdW  Elec       q    Type
REMARK                         _______ _______ _______ _____ _____    ______ ____
ROOT
ATOM      1  C   UNL     1       5.905   3.927  15.882  0.00  0.00    +0.000 C 
ATOM      2  C   UNL     1       7.246   4.717  15.921  0.00  0.00    +0.000 C 
ATOM      3  C   UNL     1       8.049   4.409  17.192  0.00  0.00    +0.000 C 
ATOM      4  C   UNL     1       7.307   4.800  18.493  0.00  0.00    +0.000 C 
ATOM      5  C   UNL     1       5.839   4.505  18.341  0.00  0.00    +0.000 A 
ATOM      6  N   UNL     1       4.944   4.567  19.371  0.00  0.00    +0.000 N 
ATOM      7  C   UNL     1       3.674   4.275  18.925  0.00  0.00    +0.000 A 
ATOM      8  C   UNL     1       2.457   4.229  19.640  0.00  0.00    +0.000 A 
ATOM      9  C   UNL     1       1.311   3.894  18.898  0.00  0.00    +0.000 A 
ATOM     10  C   UNL     1       1.382   3.582  17.546  0.00  0.00    +0.000 A 
ATOM     11  C   UNL     1       2.608   3.609  16.875  0.00  0.00    +0.000 A 
ATOM     12  C   UNL     1       3.785   3.982  17.557  0.00  0.00    +0.000 A 
ATOM     13  C   UNL     1       5.163   4.142  17.188  0.00  0.00    +0.000 A 
ATOM     14  H   UNL     1       5.169   4.800  20.328  0.00  0.00    +0.000 HD
ENDROOT
BRANCH   8  15
ATOM     15  C   UNL     1       2.326   4.500  21.120  0.00  0.00    +0.000 C 
ATOM     16  C   UNL     1       2.050   3.245  21.934  0.00  0.00    +0.000 C 
ENDBRANCH   8  15
BRANCH   1  17
ATOM     17  C   UNL     1       5.118   4.282  14.604  0.00  0.00    +0.000 C 
BRANCH  17  19
ATOM     18  C   UNL     1       5.617   3.249  12.354  0.00  0.00    +0.000 C 
ATOM     19  C   UNL     1       5.931   4.102  13.342  0.00  0.00    +0.000 C 
ENDBRANCH  17  19
ENDBRANCH   1  17
BRANCH   4  20
ATOM     20  C   UNL     1       7.516   6.277  18.845  0.00  0.00    +0.000 C 
BRANCH  20  21
ATOM     21  C   UNL     1       6.938   7.199  17.802  0.00  0.00    +0.000 C 
ATOM     22  O   UNL     1       5.773   7.199  17.432  0.00  0.00    +0.000 OA
BRANCH  21  23
ATOM     23  O   UNL     1       7.943   7.932  17.247  0.00  0.00    +0.000 OA
BRANCH  23  24
ATOM     24  C   UNL     1       7.929   9.330  17.561  0.00  0.00    +0.000 C 
ATOM     25  C   UNL     1       8.855   9.552  18.744  0.00  0.00    +0.000 C 
ENDBRANCH  23  24
ENDBRANCH  21  23
ENDBRANCH  20  21
ENDBRANCH   4  20
TORSDOF 7
ENDMDL
MODEL 8
REMARK VINA RESULT:      -6.8      3.221      6.345
REMARK  Name = 
REMARK  9 active torsions:
REMARK  status: ('A' for Active; 'I' for Inactive)
REMARK    1  A    between atoms: C_2  and  C_3
REMARK    2  A    between atoms: C_3  and  C_4
REMARK    3  A    between atoms: C_7  and  C_8
REMARK    4  A    between atoms: C_8  and  C_9
REMARK    5  A    between atoms: C_9  and  O_11
REMARK    6  A    between atoms: O_11  and  C_12
REMARK    7  A    between atoms: C_12  and  C_13
REMARK    8  A    between atoms: C_17  and  C_18
REMARK    9  A    between atoms: C_18  and  C_19
REMARK                            x       y       z     vdW  Elec       q    Type
REMARK                         _______ _______ _______ _____ _____    ______ ____
ROOT
ATOM      1  C   UNL     1       5.272   5.090  16.213  0.00  0.00    +0.000 C 
ATOM      2  C   UNL     1       5.146   6.554  15.701  0.00  0.00    +0.000 C 
ATOM      3  C   UNL     1       5.157   7.563  16.859  0.00  0.00    +0.000 C 
ATOM      4  C   UNL     1       3.979   7.373  17.845  0.00  0.00    +0.000 C 
ATOM      5  C   UNL     1       3.703   5.904  18.020  0.00  0.00    +0.000 A 
ATOM      6  N   UNL     1       2.850   5.401  18.960  0.00  0.00    +0.000 N 
ATOM      7  C   UNL     1       2.778   4.029  18.863  0.00  0.00    +0.000 A 
ATOM      8  C   UNL     1       2.022   3.111  19.623  0.00  0.00    +0.000 A 
ATOM      9  C   UNL     1       2.163   1.754  19.282  0.00  0.00    +0.000 A 
ATOM     10  C   UNL     1       3.034   1.340  18.281  0.00  0.00    +0.000 A 
ATOM     11  C   UNL     1       3.790   2.273  17.567  0.00  0.00    +0.000 A 
ATOM     12  C   UNL     1       3.656   3.652  17.835  0.00  0.00    +0.000 A 
ATOM     13  C   UNL     1       4.233   4.850  17.294  0.00  0.00    +0.000 A 
ATOM     14  H   UNL     1       2.332   5.949  19.634  0.00  0.00    +0.000 HD
ENDROOT
BRANCH   8  15
ATOM     15  C   UNL     1       1.104   3.495  20.760  0.00  0.00    +0.000 C 
ATOM     16  C   UNL     1       1.324   2.660  22.012  0.00  0.00    +0.000 C 
ENDBRANCH   8  15
BRANCH   1  17
ATOM     17  C   UNL     1       5.231   4.108  15.024  0.00  0.00    +0.000 C 
BRANCH  17  19
ATOM     18  C   UNL     1       6.445   3.763  12.836  0.00  0.00    +0.000 C 
ATOM     19  C   UNL     1       6.389   4.291  14.069  0.00  0.00    +0.000 C 
ENDBRANCH  17  19
ENDBRANCH   1  17
BRANCH   4  20
ATOM     20  C   UNL     1       2.715   8.095  17.366  0.00  0.00    +0.000 C 
BRANCH  20  21
ATOM     21  C   UNL     1       2.042   8.862  18.476  0.00  0.00    +0.000 C 
ATOM     22  O   UNL     1       1.705   8.390  19.552  0.00  0.00    +0.000 OA
BRANCH  21  23
ATOM     23  O   UNL     1       1.749  10.117  18.037  0.00  0.00    +0.000 OA
BRANCH  23  24
ATOM     24  C   UNL     1       0.674  10.772  18.723  0.00  0.00    +0.000 C 
ATOM     25  C   UNL     1       1.233  12.019  19.385  0.00  0.00    +0.000 C 
ENDBRANCH  23  24
ENDBRANCH  21  23
ENDBRANCH  20  21
ENDBRANCH   4  20
TORSDOF 7
ENDMDL
MODEL 9
REMARK VINA RESULT:      -6.6      2.501      6.225
REMARK  Name = 
REMARK  9 active torsions:
REMARK  status: ('A' for Active; 'I' for Inactive)
REMARK    1  A    between atoms: C_2  and  C_3
REMARK    2  A    between atoms: C_3  and  C_4
REMARK    3  A    between atoms: C_7  and  C_8
REMARK    4  A    between atoms: C_8  and  C_9
REMARK    5  A    between atoms: C_9  and  O_11
REMARK    6  A    between atoms: O_11  and  C_12
REMARK    7  A    between atoms: C_12  and  C_13
REMARK    8  A    between atoms: C_17  and  C_18
REMARK    9  A    between atoms: C_18  and  C_19
REMARK                            x       y       z     vdW  Elec       q    Type
REMARK                         _______ _______ _______ _____ _____    ______ ____
ROOT
ATOM      1  C   UNL     1       5.919   3.819  15.861  0.00  0.00    +0.000 C 
ATOM      2  C   UNL     1       7.253   4.623  15.874  0.00  0.00    +0.000 C 
ATOM      3  C   UNL     1       8.062   4.358  17.151  0.00  0.00    +0.000 C 
ATOM      4  C   UNL     1       7.320   4.780  18.443  0.00  0.00    +0.000 C 
ATOM      5  C   UNL     1       5.855   4.468  18.304  0.00  0.00    +0.000 A 
ATOM      6  N   UNL     1       4.962   4.550  19.334  0.00  0.00    +0.000 N 
ATOM      7  C   UNL     1       3.694   4.234  18.900  0.00  0.00    +0.000 A 
ATOM      8  C   UNL     1       2.479   4.198  19.620  0.00  0.00    +0.000 A 
ATOM      9  C   UNL     1       1.334   3.831  18.891  0.00  0.00    +0.000 A 
ATOM     10  C   UNL     1       1.405   3.482  17.548  0.00  0.00    +0.000 A 
ATOM     11  C   UNL     1       2.628   3.501  16.873  0.00  0.00    +0.000 A 
ATOM     12  C   UNL     1       3.803   3.904  17.541  0.00  0.00    +0.000 A 
ATOM     13  C   UNL     1       5.179   4.065  17.164  0.00  0.00    +0.000 A 
ATOM     14  H   UNL     1       5.187   4.812  20.284  0.00  0.00    +0.000 HD
ENDROOT
BRANCH   8  15
ATOM     15  C   UNL     1       2.349   4.510  21.092  0.00  0.00    +0.000 C 
ATOM     16  C   UNL     1       2.086   3.276  21.942  0.00  0.00    +0.000 C 
ENDBRANCH   8  15
BRANCH   1  17
ATOM     17  C   UNL     1       5.125   4.131  14.577  0.00  0.00    +0.000 C 
BRANCH  17  19
ATOM     18  C   UNL     1       5.581   3.209  12.270  0.00  0.00    +0.000 C 
ATOM     19  C   UNL     1       5.948   3.961  13.319  0.00  0.00    +0.000 C 
ENDBRANCH  17  19
ENDBRANCH   1  17
BRANCH   4  20
ATOM     20  C   UNL     1       7.517   6.268  18.752  0.00  0.00    +0.000 C 
BRANCH  20  21
ATOM     21  C   UNL     1       6.903   7.155  17.700  0.00  0.00    +0.000 C 
ATOM     22  O   UNL     1       7.510   7.670  16.772  0.00  0.00    +0.000 OA
BRANCH  21  23
ATOM     23  O   UNL     1       5.602   7.397  18.024  0.00  0.00    +0.000 OA
BRANCH  23  24
ATOM     24  C   UNL     1       4.689   7.425  16.920  0.00  0.00    +0.000 C 
ATOM     25  C   UNL     1       3.282   7.536  17.481  0.00  0.00    +0.000 C 
ENDBRANCH  23  24
ENDBRANCH  21  23
ENDBRANCH  20  21
ENDBRANCH   4  20
TORSDOF 7
ENDMDL
