MODEL 1
REMARK VINA RESULT:      -7.9      0.000      0.000
REMARK  Name = 
REMARK  16 active torsions:
REMARK  status: ('A' for Active; 'I' for Inactive)
REMARK    1  A    between atoms: C_1  and  O_2
REMARK    2  A    between atoms: O_2  and  C_3
REMARK    3  A    between atoms: C_3  and  C_5
REMARK    4  A    between atoms: C_6  and  C_7
REMARK    5  A    between atoms: C_9  and  C_10
REMARK    6  A    between atoms: C_12  and  O_13
REMARK    7  A    between atoms: C_12  and  O_14
REMARK    8  A    between atoms: O_14  and  C_15
REMARK    9  A    between atoms: C_16  and  C_17
REMARK   10  A    between atoms: C_17  and  O_19
REMARK   11  A    between atoms: O_19  and  C_20
REMARK   12  A    between atoms: C_20  and  C_21
REMARK   13  A    between atoms: C_23  and  O_24
REMARK   14  A    between atoms: C_28  and  C_29
REMARK   15  A    between atoms: C_29  and  O_31
REMARK   16  A    between atoms: O_31  and  C_32
REMARK                            x       y       z     vdW  Elec       q    Type
REMARK                         _______ _______ _______ _____ _____    ______ ____
ROOT
ATOM      1  C   UNL     1      -0.398  10.364  19.130  0.00  0.00    +0.000 C 
ATOM      2  O   UNL     1      -0.435  10.141  20.337  0.00  0.00    +0.000 OA
ENDROOT
BRANCH   1  11
ATOM      3  C   UNL     1      -2.427  11.399  18.209  0.00  0.00    +0.000 C 
ATOM      4  C   UNL     1      -3.361  11.997  18.977  0.00  0.00    +0.000 C 
ATOM      5  C   UNL     1      -4.860  11.819  18.889  0.00  0.00    +0.000 C 
ATOM      6  N   UNL     1      -3.040  12.891  19.971  0.00  0.00    +0.000 NA
ATOM      7  C   UNL     1      -1.831  13.330  20.119  0.00  0.00    +0.000 C 
ATOM      8  C   UNL     1      -1.678  14.380  21.199  0.00  0.00    +0.000 C 
ATOM      9  C   UNL     1      -0.656  12.868  19.314  0.00  0.00    +0.000 C 
ATOM     10  C   UNL     1       0.591  13.393  19.322  0.00  0.00    +0.000 C 
ATOM     11  C   UNL     1      -0.958  11.638  18.465  0.00  0.00    +0.000 C 
BRANCH   3  12
ATOM     12  C   UNL     1      -2.786  10.471  17.095  0.00  0.00    +0.000 C 
ATOM     13  O   UNL     1      -3.168   9.319  17.224  0.00  0.00    +0.000 OA
BRANCH  12  15
ATOM     14  C   UNL     1      -3.187  10.352  14.798  0.00  0.00    +0.000 C 
ATOM     15  O   UNL     1      -2.659  11.100  15.897  0.00  0.00    +0.000 OA
ENDBRANCH  12  15
ENDBRANCH   3  12
BRANCH  10  16
ATOM     16  O   UNL     1       0.987  14.422  20.142  0.00  0.00    +0.000 OA
ATOM     17  H   UNL     1       0.290  14.548  20.808  0.00  0.00    +0.000 HD
ENDBRANCH  10  16
BRANCH  10  18
ATOM     18  O   UNL     1       1.541  12.832  18.481  0.00  0.00    +0.000 OA
ATOM     19  C   UNL     1       2.838  13.414  18.580  0.00  0.00    +0.000 C 
ENDBRANCH  10  18
ENDBRANCH   1  11
BRANCH   1  20
ATOM     20  O   UNL     1       0.134   9.497  18.223  0.00  0.00    +0.000 OA
BRANCH  20  21
ATOM     21  C   UNL     1       1.532   9.657  17.954  0.00  0.00    +0.000 C 
BRANCH  21  22
ATOM     22  C   UNL     1       2.344   8.430  18.311  0.00  0.00    +0.000 A 
ATOM     23  N   UNL     1       1.943   7.721  19.375  0.00  0.00    +0.000 NA
ATOM     24  C   UNL     1       2.626   6.596  19.594  0.00  0.00    +0.000 A 
ATOM     25  C   UNL     1       3.665   6.111  18.812  0.00  0.00    +0.000 A 
ATOM     26  C   UNL     1       4.340   4.894  19.042  0.00  0.00    +0.000 A 
ATOM     27  C   UNL     1       5.368   4.496  18.190  0.00  0.00    +0.000 A 
ATOM     28  C   UNL     1       5.739   5.324  17.127  0.00  0.00    +0.000 A 
ATOM     29  C   UNL     1       5.055   6.533  16.916  0.00  0.00    +0.000 A 
ATOM     30  C   UNL     1       4.008   6.933  17.738  0.00  0.00    +0.000 A 
ATOM     31  N   UNL     1       3.349   8.074  17.478  0.00  0.00    +0.000 NA
BRANCH  24  32
ATOM     32  O   UNL     1       2.200   5.923  20.696  0.00  0.00    +0.000 OA
ATOM     33  H   UNL     1       1.246   6.124  20.664  0.00  0.00    +0.000 HD
ENDBRANCH  24  32
BRANCH  28  34
ATOM     34  C   UNL     1       6.843   4.966  16.192  0.00  0.00    +0.000 C 
ATOM     35  O   UNL     1       7.890   4.456  16.551  0.00  0.00    +0.000 OA
BRANCH  34  36
ATOM     36  O   UNL     1       6.510   5.287  14.917  0.00  0.00    +0.000 OA
ATOM     37  C   UNL     1       6.092   4.172  14.128  0.00  0.00    +0.000 C 
ENDBRANCH  34  36
ENDBRANCH  28  34
ENDBRANCH  21  22
ENDBRANCH  20  21
ENDBRANCH   1  20
TORSDOF 11
ENDMDL
MODEL 2
REMARK VINA RESULT:      -7.8      1.984      3.551
REMARK  Name = 
REMARK  16 active torsions:
REMARK  status: ('A' for Active; 'I' for Inactive)
REMARK    1  A    between atoms: C_1  and  O_2
REMARK    2  A    between atoms: O_2  and  C_3
REMARK    3  A    between atoms: C_3  and  C_5
REMARK    4  A    between atoms: C_6  and  C_7
REMARK    5  A    between atoms: C_9  and  C_10
REMARK    6  A    between atoms: C_12  and  O_13
REMARK    7  A    between atoms: C_12  and  O_14
REMARK    8  A    between atoms: O_14  and  C_15
REMARK    9  A    between atoms: C_16  and  C_17
REMARK   10  A    between atoms: C_17  and  O_19
REMARK   11  A    between atoms: O_19  and  C_20
REMARK   12  A    between atoms: C_20  and  C_21
REMARK   13  A    between atoms: C_23  and  O_24
REMARK   14  A    between atoms: C_28  and  C_29
REMARK   15  A    between atoms: C_29  and  O_31
REMARK   16  A    between atoms: O_31  and  C_32
REMARK                            x       y       z     vdW  Elec       q    Type
REMARK                         _______ _______ _______ _____ _____    ______ ____
ROOT
ATOM      1  C   UNL     1       0.128  10.749  19.792  0.00  0.00    +0.000 C 
ATOM      2  O   UNL     1      -0.888  10.567  19.128  0.00  0.00    +0.000 OA
ENDROOT
BRANCH   1  11
ATOM      3  C   UNL     1       0.694  13.141  19.798  0.00  0.00    +0.000 C 
ATOM      4  C   UNL     1      -0.215  14.112  19.575  0.00  0.00    +0.000 C 
ATOM      5  C   UNL     1      -0.063  15.308  18.663  0.00  0.00    +0.000 C 
ATOM      6  N   UNL     1      -1.442  14.133  20.196  0.00  0.00    +0.000 NA
ATOM      7  C   UNL     1      -1.730  13.306  21.149  0.00  0.00    +0.000 C 
ATOM      8  C   UNL     1      -3.086  13.534  21.783  0.00  0.00    +0.000 C 
ATOM      9  C   UNL     1      -0.830  12.204  21.618  0.00  0.00    +0.000 C 
ATOM     10  C   UNL     1      -1.013  11.411  22.699  0.00  0.00    +0.000 C 
ATOM     11  C   UNL     1       0.365  11.975  20.700  0.00  0.00    +0.000 C 
BRANCH   3  12
ATOM     12  C   UNL     1       2.047  13.154  19.162  0.00  0.00    +0.000 C 
ATOM     13  O   UNL     1       2.314  12.729  18.050  0.00  0.00    +0.000 OA
BRANCH  12  15
ATOM     14  C   UNL     1       3.727  14.763  19.354  0.00  0.00    +0.000 C 
ATOM     15  O   UNL     1       2.950  13.744  19.989  0.00  0.00    +0.000 OA
ENDBRANCH  12  15
ENDBRANCH   3  12
BRANCH  10  16
ATOM     16  O   UNL     1      -2.117  11.464  23.514  0.00  0.00    +0.000 OA
ATOM     17  H   UNL     1      -2.621  12.259  23.270  0.00  0.00    +0.000 HD
ENDBRANCH  10  16
BRANCH  10  18
ATOM     18  O   UNL     1      -0.045  10.456  22.979  0.00  0.00    +0.000 OA
ATOM     19  C   UNL     1      -0.489   9.108  22.849  0.00  0.00    +0.000 C 
ENDBRANCH  10  18
ENDBRANCH   1  11
BRANCH   1  20
ATOM     20  O   UNL     1       1.187   9.891  19.795  0.00  0.00    +0.000 OA
BRANCH  20  21
ATOM     21  C   UNL     1       1.486   9.267  18.541  0.00  0.00    +0.000 C 
BRANCH  21  22
ATOM     22  C   UNL     1       2.357   8.038  18.688  0.00  0.00    +0.000 A 
ATOM     23  N   UNL     1       2.105   7.232  19.727  0.00  0.00    +0.000 NA
ATOM     24  C   UNL     1       2.830   6.112  19.762  0.00  0.00    +0.000 A 
ATOM     25  C   UNL     1       3.771   5.724  18.819  0.00  0.00    +0.000 A 
ATOM     26  C   UNL     1       4.491   4.512  18.858  0.00  0.00    +0.000 A 
ATOM     27  C   UNL     1       5.411   4.216  17.855  0.00  0.00    +0.000 A 
ATOM     28  C   UNL     1       5.632   5.139  16.830  0.00  0.00    +0.000 A 
ATOM     29  C   UNL     1       4.906   6.342  16.810  0.00  0.00    +0.000 A 
ATOM     30  C   UNL     1       3.963   6.642  17.786  0.00  0.00    +0.000 A 
ATOM     31  N   UNL     1       3.256   7.781  17.709  0.00  0.00    +0.000 NA
BRANCH  24  32
ATOM     32  O   UNL     1       2.557   5.338  20.846  0.00  0.00    +0.000 OA
ATOM     33  H   UNL     1       3.461   5.170  21.172  0.00  0.00    +0.000 HD
ENDBRANCH  24  32
BRANCH  28  34
ATOM     34  C   UNL     1       6.617   4.893  15.739  0.00  0.00    +0.000 C 
ATOM     35  O   UNL     1       7.791   4.630  15.938  0.00  0.00    +0.000 OA
BRANCH  34  36
ATOM     36  O   UNL     1       6.021   5.001  14.526  0.00  0.00    +0.000 OA
ATOM     37  C   UNL     1       6.162   3.842  13.703  0.00  0.00    +0.000 C 
ENDBRANCH  34  36
ENDBRANCH  28  34
ENDBRANCH  21  22
ENDBRANCH  20  21
ENDBRANCH   1  20
TORSDOF 11
ENDMDL
MODEL 3
REMARK VINA RESULT:      -7.7      2.476      4.668
REMARK  Name = 
REMARK  16 active torsions:
REMARK  status: ('A' for Active; 'I' for Inactive)
REMARK    1  A    between atoms: C_1  and  O_2
REMARK    2  A    between atoms: O_2  and  C_3
REMARK    3  A    between atoms: C_3  and  C_5
REMARK    4  A    between atoms: C_6  and  C_7
REMARK    5  A    between atoms: C_9  and  C_10
REMARK    6  A    between atoms: C_12  and  O_13
REMARK    7  A    between atoms: C_12  and  O_14
REMARK    8  A    between atoms: O_14  and  C_15
REMARK    9  A    between atoms: C_16  and  C_17
REMARK   10  A    between atoms: C_17  and  O_19
REMARK   11  A    between atoms: O_19  and  C_20
REMARK   12  A    between atoms: C_20  and  C_21
REMARK   13  A    between atoms: C_23  and  O_24
REMARK   14  A    between atoms: C_28  and  C_29
REMARK   15  A    between atoms: C_29  and  O_31
REMARK   16  A    between atoms: O_31  and  C_32
REMARK                            x       y       z     vdW  Elec       q    Type
REMARK                         _______ _______ _______ _____ _____    ______ ____
ROOT
ATOM      1  C   UNL     1      -0.670  11.073  22.417  0.00  0.00    +0.000 C 
ATOM      2  O   UNL     1      -0.396  10.763  23.572  0.00  0.00    +0.000 OA
ENDROOT
BRANCH   1  11
ATOM      3  C   UNL     1      -0.125  12.947  20.923  0.00  0.00    +0.000 C 
ATOM      4  C   UNL     1      -0.481  12.979  19.623  0.00  0.00    +0.000 C 
ATOM      5  C   UNL     1       0.393  13.358  18.449  0.00  0.00    +0.000 C 
ATOM      6  N   UNL     1      -1.750  12.665  19.196  0.00  0.00    +0.000 NA
ATOM      7  C   UNL     1      -2.717  12.476  20.035  0.00  0.00    +0.000 C 
ATOM      8  C   UNL     1      -4.065  12.235  19.388  0.00  0.00    +0.000 C 
ATOM      9  C   UNL     1      -2.562  12.485  21.525  0.00  0.00    +0.000 C 
ATOM     10  C   UNL     1      -3.553  12.442  22.444  0.00  0.00    +0.000 C 
ATOM     11  C   UNL     1      -1.106  12.486  21.976  0.00  0.00    +0.000 C 
BRANCH   3  12
ATOM     12  C   UNL     1       1.240  13.342  21.386  0.00  0.00    +0.000 C 
ATOM     13  O   UNL     1       2.287  12.819  21.041  0.00  0.00    +0.000 OA
BRANCH  12  15
ATOM     14  C   UNL     1       1.545  15.643  21.634  0.00  0.00    +0.000 C 
ATOM     15  O   UNL     1       1.162  14.402  22.233  0.00  0.00    +0.000 OA
ENDBRANCH  12  15
ENDBRANCH   3  12
BRANCH  10  16
ATOM     16  O   UNL     1      -4.886  12.319  22.134  0.00  0.00    +0.000 OA
ATOM     17  H   UNL     1      -5.165  11.426  22.400  0.00  0.00    +0.000 HD
ENDBRANCH  10  16
BRANCH  10  18
ATOM     18  O   UNL     1      -3.201  12.483  23.786  0.00  0.00    +0.000 OA
ATOM     19  C   UNL     1      -3.514  13.708  24.444  0.00  0.00    +0.000 C 
ENDBRANCH  10  18
ENDBRANCH   1  11
BRANCH   1  20
ATOM     20  O   UNL     1      -0.638  10.193  21.376  0.00  0.00    +0.000 OA
BRANCH  20  21
ATOM     21  C   UNL     1       0.113   8.993  21.599  0.00  0.00    +0.000 C 
BRANCH  21  22
ATOM     22  C   UNL     1       0.942   8.586  20.400  0.00  0.00    +0.000 A 
ATOM     23  N   UNL     1       0.988   9.443  19.371  0.00  0.00    +0.000 NA
ATOM     24  C   UNL     1       1.808   9.090  18.379  0.00  0.00    +0.000 A 
ATOM     25  C   UNL     1       2.606   7.955  18.349  0.00  0.00    +0.000 A 
ATOM     26  C   UNL     1       3.497   7.630  17.306  0.00  0.00    +0.000 A 
ATOM     27  C   UNL     1       4.259   6.466  17.378  0.00  0.00    +0.000 A 
ATOM     28  C   UNL     1       4.112   5.615  18.477  0.00  0.00    +0.000 A 
ATOM     29  C   UNL     1       3.217   5.956  19.505  0.00  0.00    +0.000 A 
ATOM     30  C   UNL     1       2.470   7.127  19.465  0.00  0.00    +0.000 A 
ATOM     31  N   UNL     1       1.658   7.442  20.487  0.00  0.00    +0.000 NA
BRANCH  24  32
ATOM     32  O   UNL     1       1.805   9.977  17.348  0.00  0.00    +0.000 OA
ATOM     33  H   UNL     1       0.845  10.078  17.210  0.00  0.00    +0.000 HD
ENDBRANCH  24  32
BRANCH  28  34
ATOM     34  C   UNL     1       4.881   4.344  18.605  0.00  0.00    +0.000 C 
ATOM     35  O   UNL     1       4.415   3.247  18.353  0.00  0.00    +0.000 OA
BRANCH  34  36
ATOM     36  O   UNL     1       6.144   4.594  19.030  0.00  0.00    +0.000 OA
ATOM     37  C   UNL     1       7.113   4.638  17.982  0.00  0.00    +0.000 C 
ENDBRANCH  34  36
ENDBRANCH  28  34
ENDBRANCH  21  22
ENDBRANCH  20  21
ENDBRANCH   1  20
TORSDOF 11
ENDMDL
MODEL 4
REMARK VINA RESULT:      -7.6      2.490      4.832
REMARK  Name = 
REMARK  16 active torsions:
REMARK  status: ('A' for Active; 'I' for Inactive)
REMARK    1  A    between atoms: C_1  and  O_2
REMARK    2  A    between atoms: O_2  and  C_3
REMARK    3  A    between atoms: C_3  and  C_5
REMARK    4  A    between atoms: C_6  and  C_7
REMARK    5  A    between atoms: C_9  and  C_10
REMARK    6  A    between atoms: C_12  and  O_13
REMARK    7  A    between atoms: C_12  and  O_14
REMARK    8  A    between atoms: O_14  and  C_15
REMARK    9  A    between atoms: C_16  and  C_17
REMARK   10  A    between atoms: C_17  and  O_19
REMARK   11  A    between atoms: O_19  and  C_20
REMARK   12  A    between atoms: C_20  and  C_21
REMARK   13  A    between atoms: C_23  and  O_24
REMARK   14  A    between atoms: C_28  and  C_29
REMARK   15  A    between atoms: C_29  and  O_31
REMARK   16  A    between atoms: O_31  and  C_32
REMARK                            x       y       z     vdW  Elec       q    Type
REMARK                         _______ _______ _______ _____ _____    ______ ____
ROOT
ATOM      1  C   UNL     1      -0.766  11.619  22.145  0.00  0.00    +0.000 C 
ATOM      2  O   UNL     1      -1.524  11.218  23.023  0.00  0.00    +0.000 OA
ENDROOT
BRANCH   1  11
ATOM      3  C   UNL     1      -0.476  14.058  22.043  0.00  0.00    +0.000 C 
ATOM      4  C   UNL     1       0.675  14.646  21.660  0.00  0.00    +0.000 C 
ATOM      5  C   UNL     1       1.379  15.796  22.343  0.00  0.00    +0.000 C 
ATOM      6  N   UNL     1       1.370  14.253  20.540  0.00  0.00    +0.000 NA
ATOM      7  C   UNL     1       0.873  13.401  19.702  0.00  0.00    +0.000 C 
ATOM      8  C   UNL     1       1.731  13.158  18.479  0.00  0.00    +0.000 C 
ATOM      9  C   UNL     1      -0.434  12.693  19.886  0.00  0.00    +0.000 C 
ATOM     10  C   UNL     1      -1.070  11.913  18.981  0.00  0.00    +0.000 C 
ATOM     11  C   UNL     1      -1.021  12.872  21.282  0.00  0.00    +0.000 C 
BRANCH   3  12
ATOM     12  C   UNL     1      -1.254  14.525  23.230  0.00  0.00    +0.000 C 
ATOM     13  O   UNL     1      -0.833  14.598  24.373  0.00  0.00    +0.000 OA
BRANCH  12  15
ATOM     14  C   UNL     1      -2.565  16.192  22.255  0.00  0.00    +0.000 C 
ATOM     15  O   UNL     1      -2.508  14.896  22.856  0.00  0.00    +0.000 OA
ENDBRANCH  12  15
ENDBRANCH   3  12
BRANCH  10  16
ATOM     16  O   UNL     1      -0.561  11.598  17.745  0.00  0.00    +0.000 OA
ATOM     17  H   UNL     1      -1.305  11.579  17.120  0.00  0.00    +0.000 HD
ENDBRANCH  10  16
BRANCH  10  18
ATOM     18  O   UNL     1      -2.292  11.362  19.339  0.00  0.00    +0.000 OA
ATOM     19  C   UNL     1      -3.381  11.743  18.503  0.00  0.00    +0.000 C 
ENDBRANCH  10  18
ENDBRANCH   1  11
BRANCH   1  20
ATOM     20  O   UNL     1       0.397  10.990  21.813  0.00  0.00    +0.000 OA
BRANCH  20  21
ATOM     21  C   UNL     1       0.371   9.559  21.878  0.00  0.00    +0.000 C 
BRANCH  21  22
ATOM     22  C   UNL     1       1.026   8.903  20.682  0.00  0.00    +0.000 A 
ATOM     23  N   UNL     1       1.143   9.642  19.570  0.00  0.00    +0.000 NA
ATOM     24  C   UNL     1       1.814   9.059  18.574  0.00  0.00    +0.000 A 
ATOM     25  C   UNL     1       2.399   7.802  18.615  0.00  0.00    +0.000 A 
ATOM     26  C   UNL     1       3.141   7.229  17.561  0.00  0.00    +0.000 A 
ATOM     27  C   UNL     1       3.694   5.959  17.708  0.00  0.00    +0.000 A 
ATOM     28  C   UNL     1       3.484   5.251  18.894  0.00  0.00    +0.000 A 
ATOM     29  C   UNL     1       2.741   5.839  19.932  0.00  0.00    +0.000 A 
ATOM     30  C   UNL     1       2.206   7.116  19.815  0.00  0.00    +0.000 A 
ATOM     31  N   UNL     1       1.539   7.662  20.845  0.00  0.00    +0.000 NA
BRANCH  24  32
ATOM     32  O   UNL     1       1.886   9.835  17.460  0.00  0.00    +0.000 OA
ATOM     33  H   UNL     1       1.183   9.429  16.919  0.00  0.00    +0.000 HD
ENDBRANCH  24  32
BRANCH  28  34
ATOM     34  C   UNL     1       4.031   3.881  19.107  0.00  0.00    +0.000 C 
ATOM     35  O   UNL     1       5.204   3.653  19.345  0.00  0.00    +0.000 OA
BRANCH  34  36
ATOM     36  O   UNL     1       3.046   2.954  19.000  0.00  0.00    +0.000 OA
ATOM     37  C   UNL     1       3.473   1.715  18.431  0.00  0.00    +0.000 C 
ENDBRANCH  34  36
ENDBRANCH  28  34
ENDBRANCH  21  22
ENDBRANCH  20  21
ENDBRANCH   1  20
TORSDOF 11
ENDMDL
MODEL 5
REMARK VINA RESULT:      -7.5      2.415      4.826
REMARK  Name = 
REMARK  16 active torsions:
REMARK  status: ('A' for Active; 'I' for Inactive)
REMARK    1  A    between atoms: C_1  and  O_2
REMARK    2  A    between atoms: O_2  and  C_3
REMARK    3  A    between atoms: C_3  and  C_5
REMARK    4  A    between atoms: C_6  and  C_7
REMARK    5  A    between atoms: C_9  and  C_10
REMARK    6  A    between atoms: C_12  and  O_13
REMARK    7  A    between atoms: C_12  and  O_14
REMARK    8  A    between atoms: O_14  and  C_15
REMARK    9  A    between atoms: C_16  and  C_17
REMARK   10  A    between atoms: C_17  and  O_19
REMARK   11  A    between atoms: O_19  and  C_20
REMARK   12  A    between atoms: C_20  and  C_21
REMARK   13  A    between atoms: C_23  and  O_24
REMARK   14  A    between atoms: C_28  and  C_29
REMARK   15  A    between atoms: C_29  and  O_31
REMARK   16  A    between atoms: O_31  and  C_32
REMARK                            x       y       z     vdW  Elec       q    Type
REMARK                         _______ _______ _______ _____ _____    ______ ____
ROOT
ATOM      1  C   UNL     1      -0.826  11.702  21.924  0.00  0.00    +0.000 C 
ATOM      2  O   UNL     1      -0.669  11.789  23.139  0.00  0.00    +0.000 OA
ENDROOT
BRANCH   1  11
ATOM      3  C   UNL     1       0.150  13.281  20.314  0.00  0.00    +0.000 C 
ATOM      4  C   UNL     1       0.351  12.977  19.016  0.00  0.00    +0.000 C 
ATOM      5  C   UNL     1       1.599  13.238  18.203  0.00  0.00    +0.000 C 
ATOM      6  N   UNL     1      -0.612  12.374  18.240  0.00  0.00    +0.000 NA
ATOM      7  C   UNL     1      -1.821  12.210  18.671  0.00  0.00    +0.000 C 
ATOM      8  C   UNL     1      -2.771  11.618  17.652  0.00  0.00    +0.000 C 
ATOM      9  C   UNL     1      -2.284  12.560  20.052  0.00  0.00    +0.000 C 
ATOM     10  C   UNL     1      -3.558  12.550  20.508  0.00  0.00    +0.000 C 
ATOM     11  C   UNL     1      -1.139  12.897  21.001  0.00  0.00    +0.000 C 
BRANCH   3  12
ATOM     12  C   UNL     1       1.180  13.985  21.136  0.00  0.00    +0.000 C 
ATOM     13  O   UNL     1       2.163  13.467  21.642  0.00  0.00    +0.000 OA
BRANCH  12  15
ATOM     14  C   UNL     1       1.064  15.851  22.535  0.00  0.00    +0.000 C 
ATOM     15  O   UNL     1       0.890  15.310  21.222  0.00  0.00    +0.000 OA
ENDBRANCH  12  15
ENDBRANCH   3  12
BRANCH  10  16
ATOM     16  O   UNL     1      -4.638  12.145  19.763  0.00  0.00    +0.000 OA
ATOM     17  H   UNL     1      -5.029  11.375  20.211  0.00  0.00    +0.000 HD
ENDBRANCH  10  16
BRANCH  10  18
ATOM     18  O   UNL     1      -3.784  12.931  21.823  0.00  0.00    +0.000 OA
ATOM     19  C   UNL     1      -4.953  13.722  22.018  0.00  0.00    +0.000 C 
ENDBRANCH  10  18
ENDBRANCH   1  11
BRANCH   1  20
ATOM     20  O   UNL     1      -0.758  10.524  21.242  0.00  0.00    +0.000 OA
BRANCH  20  21
ATOM     21  C   UNL     1       0.254   9.609  21.679  0.00  0.00    +0.000 C 
BRANCH  21  22
ATOM     22  C   UNL     1       0.975   8.936  20.530  0.00  0.00    +0.000 A 
ATOM     23  N   UNL     1       1.095   9.634  19.393  0.00  0.00    +0.000 NA
ATOM     24  C   UNL     1       1.823   9.043  18.443  0.00  0.00    +0.000 A 
ATOM     25  C   UNL     1       2.461   7.816  18.553  0.00  0.00    +0.000 A 
ATOM     26  C   UNL     1       3.261   7.235  17.547  0.00  0.00    +0.000 A 
ATOM     27  C   UNL     1       3.864   5.998  17.764  0.00  0.00    +0.000 A 
ATOM     28  C   UNL     1       3.647   5.330  18.971  0.00  0.00    +0.000 A 
ATOM     29  C   UNL     1       2.846   5.924  19.960  0.00  0.00    +0.000 A 
ATOM     30  C   UNL     1       2.259   7.171  19.774  0.00  0.00    +0.000 A 
ATOM     31  N   UNL     1       1.537   7.727  20.760  0.00  0.00    +0.000 NA
BRANCH  24  32
ATOM     32  O   UNL     1       1.897   9.776  17.300  0.00  0.00    +0.000 OA
ATOM     33  H   UNL     1       1.674   9.093  16.641  0.00  0.00    +0.000 HD
ENDBRANCH  24  32
BRANCH  28  34
ATOM     34  C   UNL     1       4.246   3.995  19.257  0.00  0.00    +0.000 C 
ATOM     35  O   UNL     1       5.446   3.797  19.330  0.00  0.00    +0.000 OA
BRANCH  34  36
ATOM     36  O   UNL     1       3.274   3.063  19.420  0.00  0.00    +0.000 OA
ATOM     37  C   UNL     1       3.037   2.261  18.262  0.00  0.00    +0.000 C 
ENDBRANCH  34  36
ENDBRANCH  28  34
ENDBRANCH  21  22
ENDBRANCH  20  21
ENDBRANCH   1  20
TORSDOF 11
ENDMDL
MODEL 6
REMARK VINA RESULT:      -7.5      2.602      4.715
REMARK  Name = 
REMARK  16 active torsions:
REMARK  status: ('A' for Active; 'I' for Inactive)
REMARK    1  A    between atoms: C_1  and  O_2
REMARK    2  A    between atoms: O_2  and  C_3
REMARK    3  A    between atoms: C_3  and  C_5
REMARK    4  A    between atoms: C_6  and  C_7
REMARK    5  A    between atoms: C_9  and  C_10
REMARK    6  A    between atoms: C_12  and  O_13
REMARK    7  A    between atoms: C_12  and  O_14
REMARK    8  A    between atoms: O_14  and  C_15
REMARK    9  A    between atoms: C_16  and  C_17
REMARK   10  A    between atoms: C_17  and  O_19
REMARK   11  A    between atoms: O_19  and  C_20
REMARK   12  A    between atoms: C_20  and  C_21
REMARK   13  A    between atoms: C_23  and  O_24
REMARK   14  A    between atoms: C_28  and  C_29
REMARK   15  A    between atoms: C_29  and  O_31
REMARK   16  A    between atoms: O_31  and  C_32
REMARK                            x       y       z     vdW  Elec       q    Type
REMARK                         _______ _______ _______ _____ _____    ______ ____
ROOT
ATOM      1  C   UNL     1      -0.664  11.341  22.355  0.00  0.00    +0.000 C 
ATOM      2  O   UNL     1      -0.506  10.996  23.522  0.00  0.00    +0.000 OA
ENDROOT
BRANCH   1  11
ATOM      3  C   UNL     1      -0.331  13.208  20.792  0.00  0.00    +0.000 C 
ATOM      4  C   UNL     1      -0.784  13.193  19.522  0.00  0.00    +0.000 C 
ATOM      5  C   UNL     1      -0.021  13.591  18.279  0.00  0.00    +0.000 C 
ATOM      6  N   UNL     1      -2.064  12.806  19.197  0.00  0.00    +0.000 NA
ATOM      7  C   UNL     1      -2.954  12.585  20.110  0.00  0.00    +0.000 C 
ATOM      8  C   UNL     1      -4.332  12.262  19.571  0.00  0.00    +0.000 C 
ATOM      9  C   UNL     1      -2.689  12.634  21.583  0.00  0.00    +0.000 C 
ATOM     10  C   UNL     1      -3.606  12.561  22.576  0.00  0.00    +0.000 C 
ATOM     11  C   UNL     1      -1.205  12.720  21.923  0.00  0.00    +0.000 C 
BRANCH   3  12
ATOM     12  C   UNL     1       1.041  13.683  21.143  0.00  0.00    +0.000 C 
ATOM     13  O   UNL     1       2.004  12.969  21.373  0.00  0.00    +0.000 OA
BRANCH  12  15
ATOM     14  C   UNL     1       0.827  15.625  22.421  0.00  0.00    +0.000 C 
ATOM     15  O   UNL     1       1.086  15.041  21.141  0.00  0.00    +0.000 OA
ENDBRANCH  12  15
ENDBRANCH   3  12
BRANCH  10  16
ATOM     16  O   UNL     1      -4.949  12.363  22.370  0.00  0.00    +0.000 OA
ATOM     17  H   UNL     1      -5.138  12.595  21.445  0.00  0.00    +0.000 HD
ENDBRANCH  10  16
BRANCH  10  18
ATOM     18  O   UNL     1      -3.157  12.649  23.887  0.00  0.00    +0.000 OA
ATOM     19  C   UNL     1      -3.501  13.862  24.550  0.00  0.00    +0.000 C 
ENDBRANCH  10  18
ENDBRANCH   1  11
BRANCH   1  20
ATOM     20  O   UNL     1      -0.394  10.535  21.290  0.00  0.00    +0.000 OA
BRANCH  20  21
ATOM     21  C   UNL     1       0.212   9.274  21.602  0.00  0.00    +0.000 C 
BRANCH  21  22
ATOM     22  C   UNL     1       1.003   8.699  20.446  0.00  0.00    +0.000 A 
ATOM     23  N   UNL     1       1.125   9.462  19.352  0.00  0.00    +0.000 NA
ATOM     24  C   UNL     1       1.911   8.958  18.398  0.00  0.00    +0.000 A 
ATOM     25  C   UNL     1       2.606   7.759  18.467  0.00  0.00    +0.000 A 
ATOM     26  C   UNL     1       3.466   7.272  17.461  0.00  0.00    +0.000 A 
ATOM     27  C   UNL     1       4.123   6.056  17.634  0.00  0.00    +0.000 A 
ATOM     28  C   UNL     1       3.901   5.315  18.798  0.00  0.00    +0.000 A 
ATOM     29  C   UNL     1       3.039   5.816  19.787  0.00  0.00    +0.000 A 
ATOM     30  C   UNL     1       2.398   7.041  19.646  0.00  0.00    +0.000 A 
ATOM     31  N   UNL     1       1.616   7.508  20.633  0.00  0.00    +0.000 NA
BRANCH  24  32
ATOM     32  O   UNL     1       1.986   9.754  17.298  0.00  0.00    +0.000 OA
ATOM     33  H   UNL     1       2.338   9.118  16.648  0.00  0.00    +0.000 HD
ENDBRANCH  24  32
BRANCH  28  34
ATOM     34  C   UNL     1       4.556   3.997  19.035  0.00  0.00    +0.000 C 
ATOM     35  O   UNL     1       5.763   3.850  19.121  0.00  0.00    +0.000 OA
BRANCH  34  36
ATOM     36  O   UNL     1       3.626   3.015  19.138  0.00  0.00    +0.000 OA
ATOM     37  C   UNL     1       3.219   2.466  17.883  0.00  0.00    +0.000 C 
ENDBRANCH  34  36
ENDBRANCH  28  34
ENDBRANCH  21  22
ENDBRANCH  20  21
ENDBRANCH   1  20
TORSDOF 11
ENDMDL
MODEL 7
REMARK VINA RESULT:      -7.5      1.551      3.525
REMARK  Name = 
REMARK  16 active torsions:
REMARK  status: ('A' for Active; 'I' for Inactive)
REMARK    1  A    between atoms: C_1  and  O_2
REMARK    2  A    between atoms: O_2  and  C_3
REMARK    3  A    between atoms: C_3  and  C_5
REMARK    4  A    between atoms: C_6  and  C_7
REMARK    5  A    between atoms: C_9  and  C_10
REMARK    6  A    between atoms: C_12  and  O_13
REMARK    7  A    between atoms: C_12  and  O_14
REMARK    8  A    between atoms: O_14  and  C_15
REMARK    9  A    between atoms: C_16  and  C_17
REMARK   10  A    between atoms: C_17  and  O_19
REMARK   11  A    between atoms: O_19  and  C_20
REMARK   12  A    between atoms: C_20  and  C_21
REMARK   13  A    between atoms: C_23  and  O_24
REMARK   14  A    between atoms: C_28  and  C_29
REMARK   15  A    between atoms: C_29  and  O_31
REMARK   16  A    between atoms: O_31  and  C_32
REMARK                            x       y       z     vdW  Elec       q    Type
REMARK                         _______ _______ _______ _____ _____    ______ ____
ROOT
ATOM      1  C   UNL     1       0.120  11.923  18.782  0.00  0.00    +0.000 C 
ATOM      2  O   UNL     1       0.090  13.106  18.456  0.00  0.00    +0.000 OA
ENDROOT
BRANCH   1  11
ATOM      3  C   UNL     1      -0.826  11.327  20.971  0.00  0.00    +0.000 C 
ATOM      4  C   UNL     1      -1.590  12.169  21.695  0.00  0.00    +0.000 C 
ATOM      5  C   UNL     1      -1.467  12.467  23.172  0.00  0.00    +0.000 C 
ATOM      6  N   UNL     1      -2.632  12.880  21.145  0.00  0.00    +0.000 NA
ATOM      7  C   UNL     1      -3.035  12.660  19.935  0.00  0.00    +0.000 C 
ATOM      8  C   UNL     1      -4.252  13.464  19.529  0.00  0.00    +0.000 C 
ATOM      9  C   UNL     1      -2.386  11.701  18.985  0.00  0.00    +0.000 C 
ATOM     10  C   UNL     1      -2.848  11.322  17.772  0.00  0.00    +0.000 C 
ATOM     11  C   UNL     1      -1.040  11.185  19.482  0.00  0.00    +0.000 C 
BRANCH   3  12
ATOM     12  C   UNL     1       0.269  10.516  21.585  0.00  0.00    +0.000 C 
ATOM     13  O   UNL     1       1.423  10.880  21.740  0.00  0.00    +0.000 OA
BRANCH  12  15
ATOM     14  C   UNL     1      -0.246   9.151  23.407  0.00  0.00    +0.000 C 
ATOM     15  O   UNL     1      -0.208   9.308  21.986  0.00  0.00    +0.000 OA
ENDBRANCH  12  15
ENDBRANCH   3  12
BRANCH  10  16
ATOM     16  O   UNL     1      -3.987  11.825  17.191  0.00  0.00    +0.000 OA
ATOM     17  H   UNL     1      -3.827  11.874  16.233  0.00  0.00    +0.000 HD
ENDBRANCH  10  16
BRANCH  10  18
ATOM     18  O   UNL     1      -2.105  10.399  17.049  0.00  0.00    +0.000 OA
ATOM     19  C   UNL     1      -2.735   9.933  15.859  0.00  0.00    +0.000 C 
ENDBRANCH  10  18
ENDBRANCH   1  11
BRANCH   1  20
ATOM     20  O   UNL     1       1.198  11.114  18.575  0.00  0.00    +0.000 OA
BRANCH  20  21
ATOM     21  C   UNL     1       0.935   9.894  17.872  0.00  0.00    +0.000 C 
BRANCH  21  22
ATOM     22  C   UNL     1       1.843   8.761  18.300  0.00  0.00    +0.000 A 
ATOM     23  N   UNL     1       1.539   8.134  19.444  0.00  0.00    +0.000 NA
ATOM     24  C   UNL     1       2.306   7.080  19.731  0.00  0.00    +0.000 A 
ATOM     25  C   UNL     1       3.340   6.589  18.946  0.00  0.00    +0.000 A 
ATOM     26  C   UNL     1       4.105   5.445  19.253  0.00  0.00    +0.000 A 
ATOM     27  C   UNL     1       5.119   5.033  18.391  0.00  0.00    +0.000 A 
ATOM     28  C   UNL     1       5.385   5.776  17.238  0.00  0.00    +0.000 A 
ATOM     29  C   UNL     1       4.612   6.914  16.950  0.00  0.00    +0.000 A 
ATOM     30  C   UNL     1       3.578   7.324  17.784  0.00  0.00    +0.000 A 
ATOM     31  N   UNL     1       2.832   8.391  17.453  0.00  0.00    +0.000 NA
BRANCH  24  32
ATOM     32  O   UNL     1       1.977   6.491  20.912  0.00  0.00    +0.000 OA
ATOM     33  H   UNL     1       1.918   5.559  20.630  0.00  0.00    +0.000 HD
ENDBRANCH  24  32
BRANCH  28  34
ATOM     34  C   UNL     1       6.468   5.401  16.285  0.00  0.00    +0.000 C 
ATOM     35  O   UNL     1       7.375   6.151  15.968  0.00  0.00    +0.000 OA
BRANCH  34  36
ATOM     36  O   UNL     1       6.293   4.132  15.841  0.00  0.00    +0.000 OA
ATOM     37  C   UNL     1       6.038   4.037  14.438  0.00  0.00    +0.000 C 
ENDBRANCH  34  36
ENDBRANCH  28  34
ENDBRANCH  21  22
ENDBRANCH  20  21
ENDBRANCH   1  20
TORSDOF 11
ENDMDL
MODEL 8
REMARK VINA RESULT:      -7.4      1.433      3.072
REMARK  Name = 
REMARK  16 active torsions:
REMARK  status: ('A' for Active; 'I' for Inactive)
REMARK    1  A    between atoms: C_1  and  O_2
REMARK    2  A    between atoms: O_2  and  C_3
REMARK    3  A    between atoms: C_3  and  C_5
REMARK    4  A    between atoms: C_6  and  C_7
REMARK    5  A    between atoms: C_9  and  C_10
REMARK    6  A    between atoms: C_12  and  O_13
REMARK    7  A    between atoms: C_12  and  O_14
REMARK    8  A    between atoms: O_14  and  C_15
REMARK    9  A    between atoms: C_16  and  C_17
REMARK   10  A    between atoms: C_17  and  O_19
REMARK   11  A    between atoms: O_19  and  C_20
REMARK   12  A    between atoms: C_20  and  C_21
REMARK   13  A    between atoms: C_23  and  O_24
REMARK   14  A    between atoms: C_28  and  C_29
REMARK   15  A    between atoms: C_29  and  O_31
REMARK   16  A    between atoms: O_31  and  C_32
REMARK                            x       y       z     vdW  Elec       q    Type
REMARK                         _______ _______ _______ _____ _____    ______ ____
ROOT
ATOM      1  C   UNL     1      -0.259  10.496  18.948  0.00  0.00    +0.000 C 
ATOM      2  O   UNL     1      -0.323  10.184  20.133  0.00  0.00    +0.000 OA
ENDROOT
BRANCH   1  11
ATOM      3  C   UNL     1      -2.389  11.442  18.170  0.00  0.00    +0.000 C 
ATOM      4  C   UNL     1      -3.304  11.978  19.004  0.00  0.00    +0.000 C 
ATOM      5  C   UNL     1      -4.794  11.727  19.002  0.00  0.00    +0.000 C 
ATOM      6  N   UNL     1      -2.967  12.871  19.994  0.00  0.00    +0.000 NA
ATOM      7  C   UNL     1      -1.775  13.368  20.078  0.00  0.00    +0.000 C 
ATOM      8  C   UNL     1      -1.609  14.406  21.168  0.00  0.00    +0.000 C 
ATOM      9  C   UNL     1      -0.629  12.980  19.196  0.00  0.00    +0.000 C 
ATOM     10  C   UNL     1       0.588  13.567  19.140  0.00  0.00    +0.000 C 
ATOM     11  C   UNL     1      -0.921  11.751  18.342  0.00  0.00    +0.000 C 
BRANCH   3  12
ATOM     12  C   UNL     1      -2.769  10.515  17.061  0.00  0.00    +0.000 C 
ATOM     13  O   UNL     1      -3.201   9.382  17.197  0.00  0.00    +0.000 OA
BRANCH  12  15
ATOM     14  C   UNL     1      -3.221  10.434  14.772  0.00  0.00    +0.000 C 
ATOM     15  O   UNL     1      -2.595  11.123  15.858  0.00  0.00    +0.000 OA
ENDBRANCH  12  15
ENDBRANCH   3  12
BRANCH  10  16
ATOM     16  O   UNL     1       0.982  14.601  19.954  0.00  0.00    +0.000 OA
ATOM     17  H   UNL     1       1.787  14.315  20.418  0.00  0.00    +0.000 HD
ENDBRANCH  10  16
BRANCH  10  18
ATOM     18  O   UNL     1       1.513  13.069  18.232  0.00  0.00    +0.000 OA
ATOM     19  C   UNL     1       2.783  13.712  18.268  0.00  0.00    +0.000 C 
ENDBRANCH  10  18
ENDBRANCH   1  11
BRANCH   1  20
ATOM     20  O   UNL     1       0.398   9.754  18.012  0.00  0.00    +0.000 OA
BRANCH  20  21
ATOM     21  C   UNL     1       1.829   9.791  18.081  0.00  0.00    +0.000 C 
BRANCH  21  22
ATOM     22  C   UNL     1       2.455   8.413  18.076  0.00  0.00    +0.000 A 
ATOM     23  N   UNL     1       3.485   8.214  17.244  0.00  0.00    +0.000 NA
ATOM     24  C   UNL     1       4.069   7.017  17.345  0.00  0.00    +0.000 A 
ATOM     25  C   UNL     1       3.715   6.013  18.234  0.00  0.00    +0.000 A 
ATOM     26  C   UNL     1       4.379   4.774  18.348  0.00  0.00    +0.000 A 
ATOM     27  C   UNL     1       3.945   3.835  19.282  0.00  0.00    +0.000 A 
ATOM     28  C   UNL     1       2.835   4.122  20.081  0.00  0.00    +0.000 A 
ATOM     29  C   UNL     1       2.186   5.361  19.950  0.00  0.00    +0.000 A 
ATOM     30  C   UNL     1       2.622   6.322  19.045  0.00  0.00    +0.000 A 
ATOM     31  N   UNL     1       2.004   7.512  18.980  0.00  0.00    +0.000 NA
BRANCH  24  32
ATOM     32  O   UNL     1       5.093   6.852  16.465  0.00  0.00    +0.000 OA
ATOM     33  H   UNL     1       4.775   7.400  15.724  0.00  0.00    +0.000 HD
ENDBRANCH  24  32
BRANCH  28  34
ATOM     34  C   UNL     1       2.308   3.152  21.083  0.00  0.00    +0.000 C 
ATOM     35  O   UNL     1       2.388   3.319  22.288  0.00  0.00    +0.000 OA
BRANCH  34  36
ATOM     36  O   UNL     1       1.740   2.088  20.463  0.00  0.00    +0.000 OA
ATOM     37  C   UNL     1       0.710   2.436  19.536  0.00  0.00    +0.000 C 
ENDBRANCH  34  36
ENDBRANCH  28  34
ENDBRANCH  21  22
ENDBRANCH  20  21
ENDBRANCH   1  20
TORSDOF 11
ENDMDL
MODEL 9
REMARK VINA RESULT:      -7.3      2.598      5.085
REMARK  Name = 
REMARK  16 active torsions:
REMARK  status: ('A' for Active; 'I' for Inactive)
REMARK    1  A    between atoms: C_1  and  O_2
REMARK    2  A    between atoms: O_2  and  C_3
REMARK    3  A    between atoms: C_3  and  C_5
REMARK    4  A    between atoms: C_6  and  C_7
REMARK    5  A    between atoms: C_9  and  C_10
REMARK    6  A    between atoms: C_12  and  O_13
REMARK    7  A    between atoms: C_12  and  O_14
REMARK    8  A    between atoms: O_14  and  C_15
REMARK    9  A    between atoms: C_16  and  C_17
REMARK   10  A    between atoms: C_17  and  O_19
REMARK   11  A    between atoms: O_19  and  C_20
REMARK   12  A    between atoms: C_20  and  C_21
REMARK   13  A    between atoms: C_23  and  O_24
REMARK   14  A    between atoms: C_28  and  C_29
REMARK   15  A    between atoms: C_29  and  O_31
REMARK   16  A    between atoms: O_31  and  C_32
REMARK                            x       y       z     vdW  Elec       q    Type
REMARK                         _______ _______ _______ _____ _____    ______ ____
ROOT
ATOM      1  C   UNL     1      -0.256  12.167  22.107  0.00  0.00    +0.000 C 
ATOM      2  O   UNL     1      -0.782  12.055  23.210  0.00  0.00    +0.000 OA
ENDROOT
BRANCH   1  11
ATOM      3  C   UNL     1       0.753  13.728  20.499  0.00  0.00    +0.000 C 
ATOM      4  C   UNL     1       1.065  13.380  19.234  0.00  0.00    +0.000 C 
ATOM      5  C   UNL     1       2.354  13.676  18.502  0.00  0.00    +0.000 C 
ATOM      6  N   UNL     1       0.196  12.693  18.420  0.00  0.00    +0.000 NA
ATOM      7  C   UNL     1      -1.032  12.480  18.771  0.00  0.00    +0.000 C 
ATOM      8  C   UNL     1      -1.871  11.794  17.714  0.00  0.00    +0.000 C 
ATOM      9  C   UNL     1      -1.614  12.862  20.097  0.00  0.00    +0.000 C 
ATOM     10  C   UNL     1      -2.916  12.800  20.460  0.00  0.00    +0.000 C 
ATOM     11  C   UNL     1      -0.562  13.302  21.109  0.00  0.00    +0.000 C 
BRANCH   3  12
ATOM     12  C   UNL     1       1.681  14.522  21.360  0.00  0.00    +0.000 C 
ATOM     13  O   UNL     1       1.477  15.653  21.772  0.00  0.00    +0.000 OA
BRANCH  12  15
ATOM     14  C   UNL     1       3.955  14.591  21.884  0.00  0.00    +0.000 C 
ATOM     15  O   UNL     1       2.790  13.793  21.656  0.00  0.00    +0.000 OA
ENDBRANCH  12  15
ENDBRANCH   3  12
BRANCH  10  16
ATOM     16  O   UNL     1      -3.915  12.304  19.659  0.00  0.00    +0.000 OA
ATOM     17  H   UNL     1      -4.763  12.579  20.048  0.00  0.00    +0.000 HD
ENDBRANCH  10  16
BRANCH  10  18
ATOM     18  O   UNL     1      -3.258  13.224  21.736  0.00  0.00    +0.000 OA
ATOM     19  C   UNL     1      -4.558  12.826  22.164  0.00  0.00    +0.000 C 
ENDBRANCH  10  18
ENDBRANCH   1  11
BRANCH   1  20
ATOM     20  O   UNL     1       0.659  11.282  21.620  0.00  0.00    +0.000 OA
BRANCH  20  21
ATOM     21  C   UNL     1       0.277   9.902  21.664  0.00  0.00    +0.000 C 
BRANCH  21  22
ATOM     22  C   UNL     1       0.926   9.075  20.575  0.00  0.00    +0.000 A 
ATOM     23  N   UNL     1       1.193   9.694  19.417  0.00  0.00    +0.000 NA
ATOM     24  C   UNL     1       1.854   8.956  18.523  0.00  0.00    +0.000 A 
ATOM     25  C   UNL     1       2.291   7.653  18.709  0.00  0.00    +0.000 A 
ATOM     26  C   UNL     1       3.027   6.912  17.761  0.00  0.00    +0.000 A 
ATOM     27  C   UNL     1       3.424   5.609  18.051  0.00  0.00    +0.000 A 
ATOM     28  C   UNL     1       3.064   5.037  19.274  0.00  0.00    +0.000 A 
ATOM     29  C   UNL     1       2.329   5.791  20.204  0.00  0.00    +0.000 A 
ATOM     30  C   UNL     1       1.949   7.102  19.945  0.00  0.00    +0.000 A 
ATOM     31  N   UNL     1       1.286   7.806  20.876  0.00  0.00    +0.000 NA
BRANCH  24  32
ATOM     32  O   UNL     1       2.081   9.617  17.356  0.00  0.00    +0.000 OA
ATOM     33  H   UNL     1       2.587  10.383  17.686  0.00  0.00    +0.000 HD
ENDBRANCH  24  32
BRANCH  28  34
ATOM     34  C   UNL     1       3.439   3.640  19.638  0.00  0.00    +0.000 C 
ATOM     35  O   UNL     1       3.176   3.131  20.713  0.00  0.00    +0.000 OA
BRANCH  34  36
ATOM     36  O   UNL     1       4.098   3.043  18.614  0.00  0.00    +0.000 OA
ATOM     37  C   UNL     1       3.429   1.898  18.082  0.00  0.00    +0.000 C 
ENDBRANCH  34  36
ENDBRANCH  28  34
ENDBRANCH  21  22
ENDBRANCH  20  21
ENDBRANCH   1  20
TORSDOF 11
ENDMDL
