MODEL 1
REMARK VINA RESULT:      -8.4      0.000      0.000
REMARK  Name = 
REMARK  5 active torsions:
REMARK  status: ('A' for Active; 'I' for Inactive)
REMARK    1  A    between atoms: C_1  and  N_2
REMARK    2  A    between atoms: N_2  and  C_3
REMARK    3  A    between atoms: C_4  and  C_6
REMARK    4  A    between atoms: C_16  and  N_17
REMARK    5  A    between atoms: N_27  and  C_28
REMARK                            x       y       z     vdW  Elec       q    Type
REMARK                         _______ _______ _______ _____ _____    ______ ____
ROOT
ATOM      1  C   UNL     1       3.963   6.200  17.660  0.00  0.00    +0.000 A 
ATOM      2  C   UNL     1       3.680   7.434  17.092  0.00  0.00    +0.000 A 
ATOM      3  C   UNL     1       2.757   8.106  17.909  0.00  0.00    +0.000 A 
ATOM      4  C   UNL     1       2.174   9.357  17.907  0.00  0.00    +0.000 A 
ATOM      5  N   UNL     1       1.323   9.680  18.892  0.00  0.00    +0.000 NA
ATOM      6  C   UNL     1       1.038   8.788  19.866  0.00  0.00    +0.000 A 
ATOM      7  N   UNL     1       0.242   9.215  20.922  0.00  0.00    +0.000 N 
ATOM      8  C   UNL     1       0.020  10.503  21.403  0.00  0.00    +0.000 A 
ATOM      9  C   UNL     1       0.771  11.591  20.969  0.00  0.00    +0.000 A 
ATOM     10  C   UNL     1       0.530  12.866  21.466  0.00  0.00    +0.000 A 
ATOM     11  C   UNL     1      -0.460  13.088  22.410  0.00  0.00    +0.000 A 
ATOM     12  C   UNL     1      -1.139  11.936  22.815  0.00  0.00    +0.000 A 
ATOM     13  N   UNL     1      -0.930  10.669  22.346  0.00  0.00    +0.000 NA
ATOM     14  N   UNL     1       1.506   7.530  19.907  0.00  0.00    +0.000 NA
ATOM     15  C   UNL     1       2.388   7.246  18.924  0.00  0.00    +0.000 A 
ATOM     16  N   UNL     1       3.093   6.066  18.752  0.00  0.00    +0.000 N 
ATOM     17  H   UNL     1      -0.242   8.485  21.414  0.00  0.00    +0.000 HD
ENDROOT
BRANCH  11  18
ATOM     18  N   UNL     1      -0.711  14.355  22.876  0.00  0.00    +0.000 N 
ATOM     19  C   UNL     1      -1.489  14.640  24.085  0.00  0.00    +0.000 C 
ATOM     20  C   UNL     1      -2.651  15.581  23.743  0.00  0.00    +0.000 C 
ATOM     21  O   UNL     1      -2.192  16.774  23.082  0.00  0.00    +0.000 OA
ATOM     22  C   UNL     1      -1.509  16.440  21.863  0.00  0.00    +0.000 C 
ATOM     23  C   UNL     1      -0.285  15.547  22.127  0.00  0.00    +0.000 C 
ENDBRANCH  11  18
BRANCH   1  27
ATOM     24  C   UNL     1       7.180   4.418  16.783  0.00  0.00    +0.000 C 
ATOM     25  N   UNL     1       6.282   5.401  17.364  0.00  0.00    +0.000 N 
ATOM     26  C   UNL     1       6.905   6.451  18.159  0.00  0.00    +0.000 C 
ATOM     27  C   UNL     1       4.906   5.194  17.171  0.00  0.00    +0.000 C 
ATOM     28  O   UNL     1       4.516   4.191  16.581  0.00  0.00    +0.000 OA
ENDBRANCH   1  27
BRANCH  16  29
ATOM     29  C   UNL     1       2.954   4.892  19.597  0.00  0.00    +0.000 C 
ATOM     30  C   UNL     1       2.419   5.136  21.010  0.00  0.00    +0.000 C 
ATOM     31  C   UNL     1       2.088   3.730  21.507  0.00  0.00    +0.000 C 
ATOM     32  C   UNL     1       1.750   2.906  20.262  0.00  0.00    +0.000 C 
ATOM     33  C   UNL     1       2.017   3.807  19.059  0.00  0.00    +0.000 C 
ENDBRANCH  16  29
TORSDOF 3
ENDMDL
MODEL 2
REMARK VINA RESULT:      -8.4      0.608      1.117
REMARK  Name = 
REMARK  5 active torsions:
REMARK  status: ('A' for Active; 'I' for Inactive)
REMARK    1  A    between atoms: C_1  and  N_2
REMARK    2  A    between atoms: N_2  and  C_3
REMARK    3  A    between atoms: C_4  and  C_6
REMARK    4  A    between atoms: C_16  and  N_17
REMARK    5  A    between atoms: N_27  and  C_28
REMARK                            x       y       z     vdW  Elec       q    Type
REMARK                         _______ _______ _______ _____ _____    ______ ____
ROOT
ATOM      1  C   UNL     1       4.085   6.164  17.742  0.00  0.00    +0.000 A 
ATOM      2  C   UNL     1       3.696   7.350  17.136  0.00  0.00    +0.000 A 
ATOM      3  C   UNL     1       2.766   7.998  17.963  0.00  0.00    +0.000 A 
ATOM      4  C   UNL     1       2.101   9.206  17.934  0.00  0.00    +0.000 A 
ATOM      5  N   UNL     1       1.272   9.518  18.942  0.00  0.00    +0.000 NA
ATOM      6  C   UNL     1       1.089   8.656  19.966  0.00  0.00    +0.000 A 
ATOM      7  N   UNL     1       0.313   9.078  21.038  0.00  0.00    +0.000 N 
ATOM      8  C   UNL     1       0.026  10.370  21.472  0.00  0.00    +0.000 A 
ATOM      9  C   UNL     1       0.683  11.483  20.958  0.00  0.00    +0.000 A 
ATOM     10  C   UNL     1       0.379  12.762  21.410  0.00  0.00    +0.000 A 
ATOM     11  C   UNL     1      -0.583  12.962  22.387  0.00  0.00    +0.000 A 
ATOM     12  C   UNL     1      -1.166  11.788  22.872  0.00  0.00    +0.000 A 
ATOM     13  N   UNL     1      -0.893  10.517  22.449  0.00  0.00    +0.000 NA
ATOM     14  N   UNL     1       1.642   7.434  20.039  0.00  0.00    +0.000 NA
ATOM     15  C   UNL     1       2.498   7.162  19.031  0.00  0.00    +0.000 A 
ATOM     16  N   UNL     1       3.273   6.024  18.878  0.00  0.00    +0.000 N 
ATOM     17  H   UNL     1      -0.100   8.342  21.582  0.00  0.00    +0.000 HD
ENDROOT
BRANCH  11  18
ATOM     18  N   UNL     1      -0.898  14.230  22.810  0.00  0.00    +0.000 N 
ATOM     19  C   UNL     1      -0.278  15.445  22.277  0.00  0.00    +0.000 C 
ATOM     20  C   UNL     1       0.336  16.259  23.423  0.00  0.00    +0.000 C 
ATOM     21  O   UNL     1      -0.628  16.534  24.456  0.00  0.00    +0.000 OA
ATOM     22  C   UNL     1      -1.142  15.306  24.999  0.00  0.00    +0.000 C 
ATOM     23  C   UNL     1      -1.835  14.457  23.921  0.00  0.00    +0.000 C 
ENDBRANCH  11  18
BRANCH   1  27
ATOM     24  C   UNL     1       7.368   4.419  17.057  0.00  0.00    +0.000 C 
ATOM     25  N   UNL     1       6.414   5.349  17.638  0.00  0.00    +0.000 N 
ATOM     26  C   UNL     1       6.944   6.282  18.623  0.00  0.00    +0.000 C 
ATOM     27  C   UNL     1       5.071   5.200  17.255  0.00  0.00    +0.000 C 
ATOM     28  O   UNL     1       4.748   4.283  16.505  0.00  0.00    +0.000 OA
ENDBRANCH   1  27
BRANCH  16  29
ATOM     29  C   UNL     1       3.248   4.884  19.778  0.00  0.00    +0.000 C 
ATOM     30  C   UNL     1       2.340   5.009  21.002  0.00  0.00    +0.000 C 
ATOM     31  C   UNL     1       2.283   3.581  21.544  0.00  0.00    +0.000 C 
ATOM     32  C   UNL     1       2.491   2.660  20.340  0.00  0.00    +0.000 C 
ATOM     33  C   UNL     1       2.795   3.564  19.148  0.00  0.00    +0.000 C 
ENDBRANCH  16  29
TORSDOF 3
ENDMDL
MODEL 3
REMARK VINA RESULT:      -8.2      1.934     10.519
REMARK  Name = 
REMARK  5 active torsions:
REMARK  status: ('A' for Active; 'I' for Inactive)
REMARK    1  A    between atoms: C_1  and  N_2
REMARK    2  A    between atoms: N_2  and  C_3
REMARK    3  A    between atoms: C_4  and  C_6
REMARK    4  A    between atoms: C_16  and  N_17
REMARK    5  A    between atoms: N_27  and  C_28
REMARK                            x       y       z     vdW  Elec       q    Type
REMARK                         _______ _______ _______ _____ _____    ______ ____
ROOT
ATOM      1  C   UNL     1      -0.761  13.232  22.437  0.00  0.00    +0.000 A 
ATOM      2  C   UNL     1      -1.264  11.947  22.586  0.00  0.00    +0.000 A 
ATOM      3  C   UNL     1      -0.640  11.106  21.652  0.00  0.00    +0.000 A 
ATOM      4  C   UNL     1      -0.669   9.755  21.375  0.00  0.00    +0.000 A 
ATOM      5  N   UNL     1       0.103   9.275  20.389  0.00  0.00    +0.000 NA
ATOM      6  C   UNL     1       0.891  10.107  19.674  0.00  0.00    +0.000 A 
ATOM      7  N   UNL     1       1.755   9.542  18.744  0.00  0.00    +0.000 N 
ATOM      8  C   UNL     1       2.284   8.255  18.690  0.00  0.00    +0.000 A 
ATOM      9  C   UNL     1       2.149   7.359  19.746  0.00  0.00    +0.000 A 
ATOM     10  C   UNL     1       2.688   6.080  19.668  0.00  0.00    +0.000 A 
ATOM     11  C   UNL     1       3.376   5.664  18.539  0.00  0.00    +0.000 A 
ATOM     12  C   UNL     1       3.495   6.639  17.545  0.00  0.00    +0.000 A 
ATOM     13  N   UNL     1       2.976   7.904  17.587  0.00  0.00    +0.000 NA
ATOM     14  N   UNL     1       0.929  11.441  19.831  0.00  0.00    +0.000 NA
ATOM     15  C   UNL     1       0.171  11.890  20.853  0.00  0.00    +0.000 A 
ATOM     16  N   UNL     1       0.068  13.196  21.305  0.00  0.00    +0.000 N 
ATOM     17  H   UNL     1       2.044  10.155  18.003  0.00  0.00    +0.000 HD
ENDROOT
BRANCH  11  18
ATOM     18  N   UNL     1       3.882   4.391  18.457  0.00  0.00    +0.000 N 
ATOM     19  C   UNL     1       3.626   3.481  17.338  0.00  0.00    +0.000 C 
ATOM     20  C   UNL     1       3.026   2.170  17.862  0.00  0.00    +0.000 C 
ATOM     21  O   UNL     1       3.853   1.579  18.882  0.00  0.00    +0.000 OA
ATOM     22  C   UNL     1       4.003   2.482  19.990  0.00  0.00    +0.000 C 
ATOM     23  C   UNL     1       4.660   3.802  19.559  0.00  0.00    +0.000 C 
ENDBRANCH  11  18
BRANCH   1  27
ATOM     24  C   UNL     1      -2.339  16.479  23.557  0.00  0.00    +0.000 C 
ATOM     25  N   UNL     1      -2.107  15.274  22.779  0.00  0.00    +0.000 N 
ATOM     26  C   UNL     1      -3.011  15.047  21.660  0.00  0.00    +0.000 C 
ATOM     27  C   UNL     1      -1.094  14.414  23.232  0.00  0.00    +0.000 C 
ATOM     28  O   UNL     1      -0.490  14.673  24.269  0.00  0.00    +0.000 OA
ENDBRANCH   1  27
BRANCH  16  29
ATOM     29  C   UNL     1       0.741  14.332  20.700  0.00  0.00    +0.000 C 
ATOM     30  C   UNL     1       2.190  14.105  20.264  0.00  0.00    +0.000 C 
ATOM     31  C   UNL     1       2.491  15.330  19.400  0.00  0.00    +0.000 C 
ATOM     32  C   UNL     1       1.153  15.771  18.804  0.00  0.00    +0.000 C 
ATOM     33  C   UNL     1       0.083  14.881  19.431  0.00  0.00    +0.000 C 
ENDBRANCH  16  29
TORSDOF 3
ENDMDL
MODEL 4
REMARK VINA RESULT:      -7.9      2.227     10.441
REMARK  Name = 
REMARK  5 active torsions:
REMARK  status: ('A' for Active; 'I' for Inactive)
REMARK    1  A    between atoms: C_1  and  N_2
REMARK    2  A    between atoms: N_2  and  C_3
REMARK    3  A    between atoms: C_4  and  C_6
REMARK    4  A    between atoms: C_16  and  N_17
REMARK    5  A    between atoms: N_27  and  C_28
REMARK                            x       y       z     vdW  Elec       q    Type
REMARK                         _______ _______ _______ _____ _____    ______ ____
ROOT
ATOM      1  C   UNL     1       0.168  14.423  22.146  0.00  0.00    +0.000 A 
ATOM      2  C   UNL     1      -0.604  13.326  22.502  0.00  0.00    +0.000 A 
ATOM      3  C   UNL     1      -0.225  12.231  21.711  0.00  0.00    +0.000 A 
ATOM      4  C   UNL     1      -0.568  10.895  21.654  0.00  0.00    +0.000 A 
ATOM      5  N   UNL     1       0.034  10.105  20.753  0.00  0.00    +0.000 NA
ATOM      6  C   UNL     1       0.959  10.615  19.911  0.00  0.00    +0.000 A 
ATOM      7  N   UNL     1       1.635   9.731  19.079  0.00  0.00    +0.000 N 
ATOM      8  C   UNL     1       1.858   8.364  19.229  0.00  0.00    +0.000 A 
ATOM      9  C   UNL     1       1.569   7.697  20.415  0.00  0.00    +0.000 A 
ATOM     10  C   UNL     1       1.803   6.332  20.539  0.00  0.00    +0.000 A 
ATOM     11  C   UNL     1       2.333   5.601  19.488  0.00  0.00    +0.000 A 
ATOM     12  C   UNL     1       2.626   6.357  18.350  0.00  0.00    +0.000 A 
ATOM     13  N   UNL     1       2.408   7.697  18.193  0.00  0.00    +0.000 NA
ATOM     14  N   UNL     1       1.302  11.912  19.852  0.00  0.00    +0.000 NA
ATOM     15  C   UNL     1       0.707  12.675  20.793  0.00  0.00    +0.000 A 
ATOM     16  N   UNL     1       0.919  14.023  21.031  0.00  0.00    +0.000 N 
ATOM     17  H   UNL     1       2.023  10.138  18.247  0.00  0.00    +0.000 HD
ENDROOT
BRANCH  11  18
ATOM     18  N   UNL     1       2.536   4.248  19.609  0.00  0.00    +0.000 N 
ATOM     19  C   UNL     1       3.818   3.589  19.344  0.00  0.00    +0.000 C 
ATOM     20  C   UNL     1       3.625   2.488  18.293  0.00  0.00    +0.000 C 
ATOM     21  O   UNL     1       2.591   1.562  18.676  0.00  0.00    +0.000 OA
ATOM     22  C   UNL     1       1.341   2.250  18.842  0.00  0.00    +0.000 C 
ATOM     23  C   UNL     1       1.431   3.332  19.930  0.00  0.00    +0.000 C 
ENDBRANCH  11  18
BRANCH   1  27
ATOM     24  C   UNL     1      -0.565  18.086  22.723  0.00  0.00    +0.000 C 
ATOM     25  N   UNL     1      -0.643  16.756  22.144  0.00  0.00    +0.000 N 
ATOM     26  C   UNL     1      -1.595  16.583  21.055  0.00  0.00    +0.000 C 
ATOM     27  C   UNL     1       0.142  15.758  22.744  0.00  0.00    +0.000 C 
ATOM     28  O   UNL     1       0.808  16.021  23.741  0.00  0.00    +0.000 OA
ENDBRANCH   1  27
BRANCH  16  29
ATOM     29  C   UNL     1       1.805  14.868  20.248  0.00  0.00    +0.000 C 
ATOM     30  C   UNL     1       3.252  14.389  20.113  0.00  0.00    +0.000 C 
ATOM     31  C   UNL     1       3.814  15.279  19.005  0.00  0.00    +0.000 C 
ATOM     32  C   UNL     1       2.626  15.656  18.117  0.00  0.00    +0.000 C 
ATOM     33  C   UNL     1       1.380  15.090  18.794  0.00  0.00    +0.000 C 
ENDBRANCH  16  29
TORSDOF 3
ENDMDL
MODEL 5
REMARK VINA RESULT:      -7.8      2.391     10.350
REMARK  Name = 
REMARK  5 active torsions:
REMARK  status: ('A' for Active; 'I' for Inactive)
REMARK    1  A    between atoms: C_1  and  N_2
REMARK    2  A    between atoms: N_2  and  C_3
REMARK    3  A    between atoms: C_4  and  C_6
REMARK    4  A    between atoms: C_16  and  N_17
REMARK    5  A    between atoms: N_27  and  C_28
REMARK                            x       y       z     vdW  Elec       q    Type
REMARK                         _______ _______ _______ _____ _____    ______ ____
ROOT
ATOM      1  C   UNL     1      -0.836  13.611  20.115  0.00  0.00    +0.000 A 
ATOM      2  C   UNL     1      -1.550  12.491  19.714  0.00  0.00    +0.000 A 
ATOM      3  C   UNL     1      -0.659  11.562  19.156  0.00  0.00    +0.000 A 
ATOM      4  C   UNL     1      -0.761  10.276  18.666  0.00  0.00    +0.000 A 
ATOM      5  N   UNL     1       0.343   9.660  18.216  0.00  0.00    +0.000 NA
ATOM      6  C   UNL     1       1.535  10.296  18.238  0.00  0.00    +0.000 A 
ATOM      7  N   UNL     1       2.663   9.573  17.871  0.00  0.00    +0.000 N 
ATOM      8  C   UNL     1       2.879   8.197  17.886  0.00  0.00    +0.000 A 
ATOM      9  C   UNL     1       1.988   7.318  18.494  0.00  0.00    +0.000 A 
ATOM     10  C   UNL     1       2.229   5.949  18.496  0.00  0.00    +0.000 A 
ATOM     11  C   UNL     1       3.363   5.423  17.897  0.00  0.00    +0.000 A 
ATOM     12  C   UNL     1       4.218   6.380  17.344  0.00  0.00    +0.000 A 
ATOM     13  N   UNL     1       4.012   7.731  17.322  0.00  0.00    +0.000 NA
ATOM     14  N   UNL     1       1.712  11.568  18.634  0.00  0.00    +0.000 NA
ATOM     15  C   UNL     1       0.591  12.149  19.114  0.00  0.00    +0.000 A 
ATOM     16  N   UNL     1       0.478  13.416  19.663  0.00  0.00    +0.000 N 
ATOM     17  H   UNL     1       3.438  10.124  17.550  0.00  0.00    +0.000 HD
ENDROOT
BRANCH  11  18
ATOM     18  N   UNL     1       3.580   4.068  17.880  0.00  0.00    +0.000 N 
ATOM     19  C   UNL     1       2.713   3.111  17.188  0.00  0.00    +0.000 C 
ATOM     20  C   UNL     1       2.227   2.044  18.177  0.00  0.00    +0.000 C 
ATOM     21  O   UNL     1       3.326   1.409  18.856  0.00  0.00    +0.000 OA
ATOM     22  C   UNL     1       4.094   2.382  19.584  0.00  0.00    +0.000 C 
ATOM     23  C   UNL     1       4.675   3.456  18.651  0.00  0.00    +0.000 C 
ENDBRANCH  11  18
BRANCH   1  27
ATOM     24  C   UNL     1      -2.098  15.959  22.795  0.00  0.00    +0.000 C 
ATOM     25  N   UNL     1      -1.494  14.787  22.185  0.00  0.00    +0.000 N 
ATOM     26  C   UNL     1      -1.019  13.758  23.099  0.00  0.00    +0.000 C 
ATOM     27  C   UNL     1      -1.356  14.801  20.787  0.00  0.00    +0.000 C 
ATOM     28  O   UNL     1      -1.691  15.796  20.150  0.00  0.00    +0.000 OA
ENDBRANCH   1  27
BRANCH  16  29
ATOM     29  C   UNL     1       1.569  14.370  19.765  0.00  0.00    +0.000 C 
ATOM     30  C   UNL     1       2.742  13.961  20.658  0.00  0.00    +0.000 C 
ATOM     31  C   UNL     1       3.824  14.981  20.304  0.00  0.00    +0.000 C 
ATOM     32  C   UNL     1       3.555  15.403  18.858  0.00  0.00    +0.000 C 
ATOM     33  C   UNL     1       2.253  14.723  18.442  0.00  0.00    +0.000 C 
ENDBRANCH  16  29
TORSDOF 3
ENDMDL
MODEL 6
REMARK VINA RESULT:      -7.8      1.885     10.699
REMARK  Name = 
REMARK  5 active torsions:
REMARK  status: ('A' for Active; 'I' for Inactive)
REMARK    1  A    between atoms: C_1  and  N_2
REMARK    2  A    between atoms: N_2  and  C_3
REMARK    3  A    between atoms: C_4  and  C_6
REMARK    4  A    between atoms: C_16  and  N_17
REMARK    5  A    between atoms: N_27  and  C_28
REMARK                            x       y       z     vdW  Elec       q    Type
REMARK                         _______ _______ _______ _____ _____    ______ ____
ROOT
ATOM      1  C   UNL     1      -0.505  13.896  22.446  0.00  0.00    +0.000 A 
ATOM      2  C   UNL     1      -1.038  12.680  22.850  0.00  0.00    +0.000 A 
ATOM      3  C   UNL     1      -0.575  11.675  21.986  0.00  0.00    +0.000 A 
ATOM      4  C   UNL     1      -0.696  10.302  21.925  0.00  0.00    +0.000 A 
ATOM      5  N   UNL     1      -0.078   9.637  20.937  0.00  0.00    +0.000 NA
ATOM      6  C   UNL     1       0.646  10.307  20.014  0.00  0.00    +0.000 A 
ATOM      7  N   UNL     1       1.359   9.561  19.083  0.00  0.00    +0.000 N 
ATOM      8  C   UNL     1       1.822   8.250  19.163  0.00  0.00    +0.000 A 
ATOM      9  C   UNL     1       1.786   7.527  20.352  0.00  0.00    +0.000 A 
ATOM     10  C   UNL     1       2.256   6.220  20.405  0.00  0.00    +0.000 A 
ATOM     11  C   UNL     1       2.777   5.603  19.279  0.00  0.00    +0.000 A 
ATOM     12  C   UNL     1       2.807   6.413  18.140  0.00  0.00    +0.000 A 
ATOM     13  N   UNL     1       2.352   7.699  18.052  0.00  0.00    +0.000 NA
ATOM     14  N   UNL     1       0.759  11.644  19.959  0.00  0.00    +0.000 NA
ATOM     15  C   UNL     1       0.158  12.283  20.986  0.00  0.00    +0.000 A 
ATOM     16  N   UNL     1       0.169  13.644  21.242  0.00  0.00    +0.000 N 
ATOM     17  H   UNL     1       1.575  10.039  18.228  0.00  0.00    +0.000 HD
ENDROOT
BRANCH  11  18
ATOM     18  N   UNL     1       3.214   4.303  19.332  0.00  0.00    +0.000 N 
ATOM     19  C   UNL     1       4.239   3.750  18.442  0.00  0.00    +0.000 C 
ATOM     20  C   UNL     1       3.684   2.516  17.718  0.00  0.00    +0.000 C 
ATOM     21  O   UNL     1       3.168   1.543  18.645  0.00  0.00    +0.000 OA
ATOM     22  C   UNL     1       2.112   2.116  19.435  0.00  0.00    +0.000 C 
ATOM     23  C   UNL     1       2.604   3.325  20.246  0.00  0.00    +0.000 C 
ENDBRANCH  11  18
BRANCH   1  27
ATOM     24  C   UNL     1      -1.924  17.272  23.386  0.00  0.00    +0.000 C 
ATOM     25  N   UNL     1      -1.836  15.947  22.795  0.00  0.00    +0.000 N 
ATOM     26  C   UNL     1      -2.995  15.505  22.032  0.00  0.00    +0.000 C 
ATOM     27  C   UNL     1      -0.684  15.199  23.086  0.00  0.00    +0.000 C 
ATOM     28  O   UNL     1       0.163  15.654  23.851  0.00  0.00    +0.000 OA
ENDBRANCH   1  27
BRANCH  16  29
ATOM     29  C   UNL     1       0.806  14.637  20.393  0.00  0.00    +0.000 C 
ATOM     30  C   UNL     1      -0.113  15.705  19.797  0.00  0.00    +0.000 C 
ATOM     31  C   UNL     1       0.866  16.745  19.253  0.00  0.00    +0.000 C 
ATOM     32  C   UNL     1       2.121  16.645  20.123  0.00  0.00    +0.000 C 
ATOM     33  C   UNL     1       1.902  15.466  21.068  0.00  0.00    +0.000 C 
ENDBRANCH  16  29
TORSDOF 3
ENDMDL
MODEL 7
REMARK VINA RESULT:      -7.7      2.517      3.934
REMARK  Name = 
REMARK  5 active torsions:
REMARK  status: ('A' for Active; 'I' for Inactive)
REMARK    1  A    between atoms: C_1  and  N_2
REMARK    2  A    between atoms: N_2  and  C_3
REMARK    3  A    between atoms: C_4  and  C_6
REMARK    4  A    between atoms: C_16  and  N_17
REMARK    5  A    between atoms: N_27  and  C_28
REMARK                            x       y       z     vdW  Elec       q    Type
REMARK                         _______ _______ _______ _____ _____    ______ ____
ROOT
ATOM      1  C   UNL     1       3.328   4.671  19.474  0.00  0.00    +0.000 A 
ATOM      2  C   UNL     1       2.631   5.057  20.610  0.00  0.00    +0.000 A 
ATOM      3  C   UNL     1       2.181   6.375  20.439  0.00  0.00    +0.000 A 
ATOM      4  C   UNL     1       1.398   7.247  21.167  0.00  0.00    +0.000 A 
ATOM      5  N   UNL     1       1.144   8.466  20.669  0.00  0.00    +0.000 NA
ATOM      6  C   UNL     1       1.656   8.834  19.474  0.00  0.00    +0.000 A 
ATOM      7  N   UNL     1       1.267  10.062  18.953  0.00  0.00    +0.000 N 
ATOM      8  C   UNL     1       0.124  10.815  19.211  0.00  0.00    +0.000 A 
ATOM      9  C   UNL     1      -0.945  10.304  19.941  0.00  0.00    +0.000 A 
ATOM     10  C   UNL     1      -2.075  11.076  20.183  0.00  0.00    +0.000 A 
ATOM     11  C   UNL     1      -2.170  12.372  19.702  0.00  0.00    +0.000 A 
ATOM     12  C   UNL     1      -1.069  12.790  18.950  0.00  0.00    +0.000 A 
ATOM     13  N   UNL     1       0.059  12.059  18.694  0.00  0.00    +0.000 NA
ATOM     14  N   UNL     1       2.481   8.076  18.733  0.00  0.00    +0.000 NA
ATOM     15  C   UNL     1       2.688   6.842  19.242  0.00  0.00    +0.000 A 
ATOM     16  N   UNL     1       3.423   5.817  18.669  0.00  0.00    +0.000 N 
ATOM     17  H   UNL     1       1.903  10.465  18.289  0.00  0.00    +0.000 HD
ENDROOT
BRANCH  11  18
ATOM     18  N   UNL     1      -3.278  13.138  19.968  0.00  0.00    +0.000 N 
ATOM     19  C   UNL     1      -3.242  14.386  20.735  0.00  0.00    +0.000 C 
ATOM     20  C   UNL     1      -4.216  14.295  21.917  0.00  0.00    +0.000 C 
ATOM     21  O   UNL     1      -5.544  13.944  21.486  0.00  0.00    +0.000 OA
ATOM     22  C   UNL     1      -5.532  12.675  20.812  0.00  0.00    +0.000 C 
ATOM     23  C   UNL     1      -4.626  12.701  19.571  0.00  0.00    +0.000 C 
ENDBRANCH  11  18
BRANCH   1  27
ATOM     24  C   UNL     1       3.741   1.030  18.545  0.00  0.00    +0.000 C 
ATOM     25  N   UNL     1       3.115   2.331  18.715  0.00  0.00    +0.000 N 
ATOM     26  C   UNL     1       1.730   2.440  18.278  0.00  0.00    +0.000 C 
ATOM     27  C   UNL     1       3.929   3.366  19.202  0.00  0.00    +0.000 C 
ATOM     28  O   UNL     1       5.121   3.159  19.413  0.00  0.00    +0.000 OA
ENDBRANCH   1  27
BRANCH  16  29
ATOM     29  C   UNL     1       4.152   5.925  17.416  0.00  0.00    +0.000 C 
ATOM     30  C   UNL     1       5.630   6.302  17.526  0.00  0.00    +0.000 C 
ATOM     31  C   UNL     1       6.168   6.019  16.124  0.00  0.00    +0.000 C 
ATOM     32  C   UNL     1       5.292   4.904  15.547  0.00  0.00    +0.000 C 
ATOM     33  C   UNL     1       4.183   4.652  16.567  0.00  0.00    +0.000 C 
ENDBRANCH  16  29
TORSDOF 3
ENDMDL
MODEL 8
REMARK VINA RESULT:      -7.7      1.874     10.665
REMARK  Name = 
REMARK  5 active torsions:
REMARK  status: ('A' for Active; 'I' for Inactive)
REMARK    1  A    between atoms: C_1  and  N_2
REMARK    2  A    between atoms: N_2  and  C_3
REMARK    3  A    between atoms: C_4  and  C_6
REMARK    4  A    between atoms: C_16  and  N_17
REMARK    5  A    between atoms: N_27  and  C_28
REMARK                            x       y       z     vdW  Elec       q    Type
REMARK                         _______ _______ _______ _____ _____    ______ ____
ROOT
ATOM      1  C   UNL     1      -0.745  14.443  22.844  0.00  0.00    +0.000 A 
ATOM      2  C   UNL     1      -1.139  13.159  23.194  0.00  0.00    +0.000 A 
ATOM      3  C   UNL     1      -0.722  12.269  22.191  0.00  0.00    +0.000 A 
ATOM      4  C   UNL     1      -0.756  10.901  22.017  0.00  0.00    +0.000 A 
ATOM      5  N   UNL     1      -0.224  10.372  20.906  0.00  0.00    +0.000 NA
ATOM      6  C   UNL     1       0.330  11.172  19.968  0.00  0.00    +0.000 A 
ATOM      7  N   UNL     1       0.969  10.565  18.894  0.00  0.00    +0.000 N 
ATOM      8  C   UNL     1       1.526   9.292  18.795  0.00  0.00    +0.000 A 
ATOM      9  C   UNL     1       1.691   8.472  19.908  0.00  0.00    +0.000 A 
ATOM     10  C   UNL     1       2.251   7.207  19.782  0.00  0.00    +0.000 A 
ATOM     11  C   UNL     1       2.665   6.729  18.549  0.00  0.00    +0.000 A 
ATOM     12  C   UNL     1       2.496   7.632  17.495  0.00  0.00    +0.000 A 
ATOM     13  N   UNL     1       1.947   8.881  17.582  0.00  0.00    +0.000 NA
ATOM     14  N   UNL     1       0.345  12.514  20.025  0.00  0.00    +0.000 NA
ATOM     15  C   UNL     1      -0.164  13.015  21.171  0.00  0.00    +0.000 A 
ATOM     16  N   UNL     1      -0.213  14.347  21.550  0.00  0.00    +0.000 N 
ATOM     17  H   UNL     1       1.043  11.129  18.067  0.00  0.00    +0.000 HD
ENDROOT
BRANCH  11  18
ATOM     18  N   UNL     1       3.193   5.468  18.428  0.00  0.00    +0.000 N 
ATOM     19  C   UNL     1       2.442   4.239  18.700  0.00  0.00    +0.000 C 
ATOM     20  C   UNL     1       3.184   3.400  19.748  0.00  0.00    +0.000 C 
ATOM     21  O   UNL     1       4.546   3.145  19.358  0.00  0.00    +0.000 OA
ATOM     22  C   UNL     1       5.257   4.383  19.185  0.00  0.00    +0.000 C 
ATOM     23  C   UNL     1       4.612   5.258  18.099  0.00  0.00    +0.000 C 
ENDBRANCH  11  18
BRANCH   1  27
ATOM     24  C   UNL     1      -2.126  17.738  24.078  0.00  0.00    +0.000 C 
ATOM     25  N   UNL     1      -2.037  16.488  23.343  0.00  0.00    +0.000 N 
ATOM     26  C   UNL     1      -3.153  16.180  22.460  0.00  0.00    +0.000 C 
ATOM     27  C   UNL     1      -0.930  15.670  23.619  0.00  0.00    +0.000 C 
ATOM     28  O   UNL     1      -0.125  16.001  24.485  0.00  0.00    +0.000 OA
ENDBRANCH   1  27
BRANCH  16  29
ATOM     29  C   UNL     1       0.242  15.455  20.727  0.00  0.00    +0.000 C 
ATOM     30  C   UNL     1       1.690  15.382  20.237  0.00  0.00    +0.000 C 
ATOM     31  C   UNL     1       1.754  16.474  19.171  0.00  0.00    +0.000 C 
ATOM     32  C   UNL     1       0.339  16.599  18.601  0.00  0.00    +0.000 C 
ATOM     33  C   UNL     1      -0.547  15.674  19.433  0.00  0.00    +0.000 C 
ENDBRANCH  16  29
TORSDOF 3
ENDMDL
MODEL 9
REMARK VINA RESULT:      -7.6      1.621     10.726
REMARK  Name = 
REMARK  5 active torsions:
REMARK  status: ('A' for Active; 'I' for Inactive)
REMARK    1  A    between atoms: C_1  and  N_2
REMARK    2  A    between atoms: N_2  and  C_3
REMARK    3  A    between atoms: C_4  and  C_6
REMARK    4  A    between atoms: C_16  and  N_17
REMARK    5  A    between atoms: N_27  and  C_28
REMARK                            x       y       z     vdW  Elec       q    Type
REMARK                         _______ _______ _______ _____ _____    ______ ____
ROOT
ATOM      1  C   UNL     1      -1.164  13.785  23.160  0.00  0.00    +0.000 A 
ATOM      2  C   UNL     1      -1.526  12.472  23.427  0.00  0.00    +0.000 A 
ATOM      3  C   UNL     1      -1.003  11.645  22.421  0.00  0.00    +0.000 A 
ATOM      4  C   UNL     1      -0.966  10.286  22.189  0.00  0.00    +0.000 A 
ATOM      5  N   UNL     1      -0.336   9.828  21.097  0.00  0.00    +0.000 NA
ATOM      6  C   UNL     1       0.247  10.690  20.235  0.00  0.00    +0.000 A 
ATOM      7  N   UNL     1       0.984  10.157  19.185  0.00  0.00    +0.000 N 
ATOM      8  C   UNL     1       1.601   8.913  19.074  0.00  0.00    +0.000 A 
ATOM      9  C   UNL     1       1.723   8.052  20.160  0.00  0.00    +0.000 A 
ATOM     10  C   UNL     1       2.345   6.816  20.022  0.00  0.00    +0.000 A 
ATOM     11  C   UNL     1       2.863   6.411  18.803  0.00  0.00    +0.000 A 
ATOM     12  C   UNL     1       2.729   7.351  17.778  0.00  0.00    +0.000 A 
ATOM     13  N   UNL     1       2.123   8.573  17.877  0.00  0.00    +0.000 NA
ATOM     14  N   UNL     1       0.200  12.028  20.348  0.00  0.00    +0.000 NA
ATOM     15  C   UNL     1      -0.408  12.457  21.475  0.00  0.00    +0.000 A 
ATOM     16  N   UNL     1      -0.540  13.768  21.903  0.00  0.00    +0.000 N 
ATOM     17  H   UNL     1       1.091  10.760  18.389  0.00  0.00    +0.000 HD
ENDROOT
BRANCH  11  18
ATOM     18  N   UNL     1       3.452   5.178  18.668  0.00  0.00    +0.000 N 
ATOM     19  C   UNL     1       4.866   4.981  18.338  0.00  0.00    +0.000 C 
ATOM     20  C   UNL     1       4.988   4.103  17.086  0.00  0.00    +0.000 C 
ATOM     21  O   UNL     1       4.272   2.862  17.235  0.00  0.00    +0.000 OA
ATOM     22  C   UNL     1       2.878   3.114  17.476  0.00  0.00    +0.000 C 
ATOM     23  C   UNL     1       2.665   3.938  18.756  0.00  0.00    +0.000 C 
ENDBRANCH  11  18
BRANCH   1  27
ATOM     24  C   UNL     1      -2.790  16.945  24.449  0.00  0.00    +0.000 C 
ATOM     25  N   UNL     1      -2.595  15.732  23.674  0.00  0.00    +0.000 N 
ATOM     26  C   UNL     1      -3.651  15.394  22.730  0.00  0.00    +0.000 C 
ATOM     27  C   UNL     1      -1.454  14.968  23.970  0.00  0.00    +0.000 C 
ATOM     28  O   UNL     1      -0.709  15.312  24.883  0.00  0.00    +0.000 OA
ENDBRANCH   1  27
BRANCH  16  29
ATOM     29  C   UNL     1      -0.076  14.928  21.161  0.00  0.00    +0.000 C 
ATOM     30  C   UNL     1       1.293  14.799  20.492  0.00  0.00    +0.000 C 
ATOM     31  C   UNL     1       1.341  16.006  19.557  0.00  0.00    +0.000 C 
ATOM     32  C   UNL     1      -0.111  16.315  19.184  0.00  0.00    +0.000 C 
ATOM     33  C   UNL     1      -0.982  15.370  20.009  0.00  0.00    +0.000 C 
ENDBRANCH  16  29
TORSDOF 3
ENDMDL
