MODEL 1
REMARK VINA RESULT:      -9.2      0.000      0.000
REMARK  Name = 
REMARK  12 active torsions:
REMARK  status: ('A' for Active; 'I' for Inactive)
REMARK    1  A    between atoms: C_1  and  O_2
REMARK    2  A    between atoms: O_2  and  C_3
REMARK    3  A    between atoms: C_5  and  C_6
REMARK    4  A    between atoms: C_6  and  C_7
REMARK    5  A    between atoms: N_9  and  C_10
REMARK    6  A    between atoms: C_10  and  C_11
REMARK    7  A    between atoms: C_25  and  O_26
REMARK    8  A    between atoms: O_26  and  C_27
REMARK    9  A    between atoms: C_27  and  C_28
REMARK   10  A    between atoms: C_28  and  C_29
REMARK   11  A    between atoms: C_29  and  C_30
REMARK   12  A    between atoms: C_30  and  C_31
REMARK                            x       y       z     vdW  Elec       q    Type
REMARK                         _______ _______ _______ _____ _____    ______ ____
ROOT
ATOM      1  C   UNL     1       5.901   5.423  16.739  0.00  0.00    +0.000 A 
ATOM      2  C   UNL     1       4.692   4.836  17.121  0.00  0.00    +0.000 A 
ATOM      3  C   UNL     1       4.377   4.454  18.444  0.00  0.00    +0.000 A 
ATOM      4  C   UNL     1       5.360   4.727  19.405  0.00  0.00    +0.000 A 
ATOM      5  C   UNL     1       6.554   5.381  19.063  0.00  0.00    +0.000 A 
ATOM      6  C   UNL     1       6.830   5.747  17.737  0.00  0.00    +0.000 A 
ENDROOT
BRANCH   3   7
ATOM      7  C   UNL     1       2.926   3.803  18.785  0.00  0.00    +0.000 C 
ATOM      8  C   UNL     1       2.791   2.241  18.570  0.00  0.00    +0.000 C 
ATOM      9  C   UNL     1       2.070   2.145  19.920  0.00  0.00    +0.000 C 
ATOM     10  C   UNL     1       2.729   3.458  20.317  0.00  0.00    +0.000 C 
BRANCH   7  11
ATOM     11  C   UNL     1       1.830   4.633  17.973  0.00  0.00    +0.000 C 
ATOM     12  O   UNL     1       1.090   4.142  17.102  0.00  0.00    +0.000 OA
ATOM     13  N   UNL     1       1.668   5.988  18.194  0.00  0.00    +0.000 N 
ATOM     14  H   UNL     1       0.894   6.389  17.679  0.00  0.00    +0.000 HD
BRANCH  13  15
ATOM     15  C   UNL     1       2.211   6.750  19.283  0.00  0.00    +0.000 C 
BRANCH  15  16
ATOM     16  C   UNL     1       1.688   8.149  19.391  0.00  0.00    +0.000 A 
ATOM     17  C   UNL     1       1.759   9.045  18.312  0.00  0.00    +0.000 A 
ATOM     18  C   UNL     1       1.381  10.387  18.446  0.00  0.00    +0.000 A 
ATOM     19  C   UNL     1       0.935  10.786  19.707  0.00  0.00    +0.000 A 
ATOM     20  N   UNL     1       0.488  11.985  20.199  0.00  0.00    +0.000 N 
ATOM     21  C   UNL     1       0.186  11.814  21.521  0.00  0.00    +0.000 A 
ATOM     22  N   UNL     1       0.412  10.583  21.916  0.00  0.00    +0.000 NA
ATOM     23  C   UNL     1       0.868   9.931  20.801  0.00  0.00    +0.000 A 
ATOM     24  C   UNL     1       1.259   8.598  20.651  0.00  0.00    +0.000 A 
ATOM     25  H   UNL     1       0.388  12.843  19.676  0.00  0.00    +0.000 HD
ENDBRANCH  15  16
ENDBRANCH  13  15
ENDBRANCH   7  11
ENDBRANCH   3   7
BRANCH   1  27
ATOM     26  C   UNL     1       7.109   4.971  14.689  0.00  0.00    +0.000 C 
ATOM     27  O   UNL     1       6.174   5.735  15.438  0.00  0.00    +0.000 OA
ENDBRANCH   1  27
BRANCH   6  28
ATOM     28  O   UNL     1       8.022   6.417  17.589  0.00  0.00    +0.000 OA
BRANCH  28  29
ATOM     29  C   UNL     1       8.191   7.608  18.356  0.00  0.00    +0.000 C 
BRANCH  29  30
ATOM     30  C   UNL     1       8.116   8.845  17.473  0.00  0.00    +0.000 C 
BRANCH  30  31
ATOM     31  C   UNL     1       8.259  10.128  18.285  0.00  0.00    +0.000 C 
BRANCH  31  32
ATOM     32  C   UNL     1       9.479  10.048  19.200  0.00  0.00    +0.000 C 
BRANCH  32  33
ATOM     33  C   UNL     1      10.430  11.179  18.934  0.00  0.00    +0.000 A 
ATOM     34  C   UNL     1      11.152  11.772  19.966  0.00  0.00    +0.000 A 
ATOM     35  C   UNL     1      11.998  12.823  19.652  0.00  0.00    +0.000 A 
ATOM     36  N   UNL     1      12.161  13.317  18.403  0.00  0.00    +0.000 NA
ATOM     37  C   UNL     1      11.445  12.750  17.421  0.00  0.00    +0.000 A 
ATOM     38  N   UNL     1      11.640  13.247  16.134  0.00  0.00    +0.000 N 
ATOM     39  C   UNL     1      10.576  11.691  17.638  0.00  0.00    +0.000 A 
ATOM     40  H   UNL     1      12.264  14.045  16.224  0.00  0.00    +0.000 HD
ATOM     41  H   UNL     1      10.762  13.496  15.695  0.00  0.00    +0.000 HD
ENDBRANCH  32  33
ENDBRANCH  31  32
ENDBRANCH  30  31
ENDBRANCH  29  30
ENDBRANCH  28  29
ENDBRANCH   6  28
TORSDOF 11
ENDMDL
MODEL 2
REMARK VINA RESULT:      -9.1      4.288      9.001
REMARK  Name = 
REMARK  12 active torsions:
REMARK  status: ('A' for Active; 'I' for Inactive)
REMARK    1  A    between atoms: C_1  and  O_2
REMARK    2  A    between atoms: O_2  and  C_3
REMARK    3  A    between atoms: C_5  and  C_6
REMARK    4  A    between atoms: C_6  and  C_7
REMARK    5  A    between atoms: N_9  and  C_10
REMARK    6  A    between atoms: C_10  and  C_11
REMARK    7  A    between atoms: C_25  and  O_26
REMARK    8  A    between atoms: O_26  and  C_27
REMARK    9  A    between atoms: C_27  and  C_28
REMARK   10  A    between atoms: C_28  and  C_29
REMARK   11  A    between atoms: C_29  and  C_30
REMARK   12  A    between atoms: C_30  and  C_31
REMARK                            x       y       z     vdW  Elec       q    Type
REMARK                         _______ _______ _______ _____ _____    ______ ____
ROOT
ATOM      1  C   UNL     1       2.306   8.307  18.270  0.00  0.00    +0.000 A 
ATOM      2  C   UNL     1       3.488   7.798  17.726  0.00  0.00    +0.000 A 
ATOM      3  C   UNL     1       4.248   6.760  18.309  0.00  0.00    +0.000 A 
ATOM      4  C   UNL     1       3.729   6.217  19.491  0.00  0.00    +0.000 A 
ATOM      5  C   UNL     1       2.507   6.658  20.023  0.00  0.00    +0.000 A 
ATOM      6  C   UNL     1       1.780   7.692  19.414  0.00  0.00    +0.000 A 
ENDROOT
BRANCH   3   7
ATOM      7  C   UNL     1       5.597   6.222  17.575  0.00  0.00    +0.000 C 
ATOM      8  C   UNL     1       6.811   7.236  17.512  0.00  0.00    +0.000 C 
ATOM      9  C   UNL     1       7.749   6.096  17.931  0.00  0.00    +0.000 C 
ATOM     10  C   UNL     1       6.544   5.381  18.525  0.00  0.00    +0.000 C 
BRANCH   7  11
ATOM     11  C   UNL     1       5.171   5.680  16.135  0.00  0.00    +0.000 C 
ATOM     12  O   UNL     1       5.173   6.373  15.103  0.00  0.00    +0.000 OA
ATOM     13  N   UNL     1       4.743   4.375  15.973  0.00  0.00    +0.000 N 
ATOM     14  H   UNL     1       4.576   4.125  15.006  0.00  0.00    +0.000 HD
BRANCH  13  15
ATOM     15  C   UNL     1       4.863   3.309  16.928  0.00  0.00    +0.000 C 
BRANCH  15  16
ATOM     16  C   UNL     1       3.692   3.158  17.848  0.00  0.00    +0.000 A 
ATOM     17  C   UNL     1       2.393   3.512  17.449  0.00  0.00    +0.000 A 
ATOM     18  C   UNL     1       1.317   3.486  18.345  0.00  0.00    +0.000 A 
ATOM     19  C   UNL     1       1.605   3.093  19.654  0.00  0.00    +0.000 A 
ATOM     20  N   UNL     1       0.826   2.946  20.772  0.00  0.00    +0.000 N 
ATOM     21  C   UNL     1       1.634   2.543  21.799  0.00  0.00    +0.000 A 
ATOM     22  N   UNL     1       2.884   2.425  21.417  0.00  0.00    +0.000 NA
ATOM     23  C   UNL     1       2.881   2.754  20.087  0.00  0.00    +0.000 A 
ATOM     24  C   UNL     1       3.944   2.796  19.183  0.00  0.00    +0.000 A 
ATOM     25  H   UNL     1      -0.170   3.096  20.829  0.00  0.00    +0.000 HD
ENDBRANCH  15  16
ENDBRANCH  13  15
ENDBRANCH   7  11
ENDBRANCH   3   7
BRANCH   1  27
ATOM     26  C   UNL     1       2.036  10.687  17.908  0.00  0.00    +0.000 C 
ATOM     27  O   UNL     1       1.631   9.343  17.691  0.00  0.00    +0.000 OA
ENDBRANCH   1  27
BRANCH   6  28
ATOM     28  O   UNL     1       0.586   7.967  20.040  0.00  0.00    +0.000 OA
BRANCH  28  29
ATOM     29  C   UNL     1       0.597   8.999  21.024  0.00  0.00    +0.000 C 
BRANCH  29  30
ATOM     30  C   UNL     1      -0.537   8.818  22.023  0.00  0.00    +0.000 C 
BRANCH  30  31
ATOM     31  C   UNL     1      -0.537   9.915  23.082  0.00  0.00    +0.000 C 
BRANCH  31  32
ATOM     32  C   UNL     1      -0.413  11.289  22.429  0.00  0.00    +0.000 C 
BRANCH  32  33
ATOM     33  C   UNL     1      -1.434  12.243  22.977  0.00  0.00    +0.000 A 
ATOM     34  C   UNL     1      -1.176  13.609  23.057  0.00  0.00    +0.000 A 
ATOM     35  C   UNL     1      -2.156  14.429  23.589  0.00  0.00    +0.000 A 
ATOM     36  N   UNL     1      -3.350  13.986  24.047  0.00  0.00    +0.000 NA
ATOM     37  C   UNL     1      -3.578  12.665  23.983  0.00  0.00    +0.000 A 
ATOM     38  N   UNL     1      -4.820  12.221  24.431  0.00  0.00    +0.000 N 
ATOM     39  C   UNL     1      -2.659  11.767  23.462  0.00  0.00    +0.000 A 
ATOM     40  H   UNL     1      -5.296  13.033  24.816  0.00  0.00    +0.000 HD
ATOM     41  H   UNL     1      -4.725  11.475  25.110  0.00  0.00    +0.000 HD
ENDBRANCH  32  33
ENDBRANCH  31  32
ENDBRANCH  30  31
ENDBRANCH  29  30
ENDBRANCH  28  29
ENDBRANCH   6  28
TORSDOF 11
ENDMDL
MODEL 3
REMARK VINA RESULT:      -9.1      1.634      2.254
REMARK  Name = 
REMARK  12 active torsions:
REMARK  status: ('A' for Active; 'I' for Inactive)
REMARK    1  A    between atoms: C_1  and  O_2
REMARK    2  A    between atoms: O_2  and  C_3
REMARK    3  A    between atoms: C_5  and  C_6
REMARK    4  A    between atoms: C_6  and  C_7
REMARK    5  A    between atoms: N_9  and  C_10
REMARK    6  A    between atoms: C_10  and  C_11
REMARK    7  A    between atoms: C_25  and  O_26
REMARK    8  A    between atoms: O_26  and  C_27
REMARK    9  A    between atoms: C_27  and  C_28
REMARK   10  A    between atoms: C_28  and  C_29
REMARK   11  A    between atoms: C_29  and  C_30
REMARK   12  A    between atoms: C_30  and  C_31
REMARK                            x       y       z     vdW  Elec       q    Type
REMARK                         _______ _______ _______ _____ _____    ______ ____
ROOT
ATOM      1  C   UNL     1       5.358   5.548  16.767  0.00  0.00    +0.000 A 
ATOM      2  C   UNL     1       4.205   4.966  17.301  0.00  0.00    +0.000 A 
ATOM      3  C   UNL     1       4.071   4.555  18.645  0.00  0.00    +0.000 A 
ATOM      4  C   UNL     1       5.182   4.792  19.465  0.00  0.00    +0.000 A 
ATOM      5  C   UNL     1       6.327   5.439  18.976  0.00  0.00    +0.000 A 
ATOM      6  C   UNL     1       6.421   5.835  17.633  0.00  0.00    +0.000 A 
ENDROOT
BRANCH   3   7
ATOM      7  C   UNL     1       2.671   3.914  19.170  0.00  0.00    +0.000 C 
ATOM      8  C   UNL     1       1.429   4.054  18.198  0.00  0.00    +0.000 C 
ATOM      9  C   UNL     1       1.084   2.585  18.472  0.00  0.00    +0.000 C 
ATOM     10  C   UNL     1       2.534   2.364  18.876  0.00  0.00    +0.000 C 
BRANCH   7  11
ATOM     11  C   UNL     1       2.388   4.513  20.622  0.00  0.00    +0.000 C 
ATOM     12  O   UNL     1       2.418   3.841  21.669  0.00  0.00    +0.000 OA
ATOM     13  N   UNL     1       2.062   5.847  20.781  0.00  0.00    +0.000 N 
ATOM     14  H   UNL     1       1.982   6.127  21.751  0.00  0.00    +0.000 HD
BRANCH  13  15
ATOM     15  C   UNL     1       2.185   6.883  19.795  0.00  0.00    +0.000 C 
BRANCH  15  16
ATOM     16  C   UNL     1       1.618   8.207  20.204  0.00  0.00    +0.000 A 
ATOM     17  C   UNL     1       1.195   8.450  21.521  0.00  0.00    +0.000 A 
ATOM     18  C   UNL     1       0.556   9.643  21.879  0.00  0.00    +0.000 A 
ATOM     19  C   UNL     1       0.359  10.575  20.858  0.00  0.00    +0.000 A 
ATOM     20  N   UNL     1      -0.209  11.823  20.834  0.00  0.00    +0.000 N 
ATOM     21  C   UNL     1      -0.146  12.292  19.552  0.00  0.00    +0.000 A 
ATOM     22  N   UNL     1       0.422  11.427  18.745  0.00  0.00    +0.000 NA
ATOM     23  C   UNL     1       0.749  10.361  19.541  0.00  0.00    +0.000 A 
ATOM     24  C   UNL     1       1.376   9.160  19.201  0.00  0.00    +0.000 A 
ATOM     25  H   UNL     1      -0.596  12.316  21.625  0.00  0.00    +0.000 HD
ENDBRANCH  15  16
ENDBRANCH  13  15
ENDBRANCH   7  11
ENDBRANCH   3   7
BRANCH   1  27
ATOM     26  C   UNL     1       5.937   4.958  14.490  0.00  0.00    +0.000 C 
ATOM     27  O   UNL     1       5.453   5.888  15.448  0.00  0.00    +0.000 OA
ENDBRANCH   1  27
BRANCH   6  28
ATOM     28  O   UNL     1       7.591   6.494  17.335  0.00  0.00    +0.000 OA
BRANCH  28  29
ATOM     29  C   UNL     1       8.119   7.356  18.342  0.00  0.00    +0.000 C 
BRANCH  29  30
ATOM     30  C   UNL     1       8.133   8.804  17.873  0.00  0.00    +0.000 C 
BRANCH  30  31
ATOM     31  C   UNL     1       8.854   9.712  18.864  0.00  0.00    +0.000 C 
BRANCH  31  32
ATOM     32  C   UNL     1       9.595  10.825  18.129  0.00  0.00    +0.000 C 
BRANCH  32  33
ATOM     33  C   UNL     1       9.969  11.937  19.066  0.00  0.00    +0.000 A 
ATOM     34  C   UNL     1      10.916  12.893  18.710  0.00  0.00    +0.000 A 
ATOM     35  C   UNL     1      11.226  13.881  19.629  0.00  0.00    +0.000 A 
ATOM     36  N   UNL     1      10.671  13.972  20.860  0.00  0.00    +0.000 NA
ATOM     37  C   UNL     1       9.774  13.033  21.199  0.00  0.00    +0.000 A 
ATOM     38  N   UNL     1       9.188  13.150  22.457  0.00  0.00    +0.000 N 
ATOM     39  C   UNL     1       9.397  12.009  20.343  0.00  0.00    +0.000 A 
ATOM     40  H   UNL     1       9.653  13.926  22.922  0.00  0.00    +0.000 HD
ATOM     41  H   UNL     1       9.264  12.288  22.984  0.00  0.00    +0.000 HD
ENDBRANCH  32  33
ENDBRANCH  31  32
ENDBRANCH  30  31
ENDBRANCH  29  30
ENDBRANCH  28  29
ENDBRANCH   6  28
TORSDOF 11
ENDMDL
MODEL 4
REMARK VINA RESULT:      -8.8      0.993      1.481
REMARK  Name = 
REMARK  12 active torsions:
REMARK  status: ('A' for Active; 'I' for Inactive)
REMARK    1  A    between atoms: C_1  and  O_2
REMARK    2  A    between atoms: O_2  and  C_3
REMARK    3  A    between atoms: C_5  and  C_6
REMARK    4  A    between atoms: C_6  and  C_7
REMARK    5  A    between atoms: N_9  and  C_10
REMARK    6  A    between atoms: C_10  and  C_11
REMARK    7  A    between atoms: C_25  and  O_26
REMARK    8  A    between atoms: O_26  and  C_27
REMARK    9  A    between atoms: C_27  and  C_28
REMARK   10  A    between atoms: C_28  and  C_29
REMARK   11  A    between atoms: C_29  and  C_30
REMARK   12  A    between atoms: C_30  and  C_31
REMARK                            x       y       z     vdW  Elec       q    Type
REMARK                         _______ _______ _______ _____ _____    ______ ____
ROOT
ATOM      1  C   UNL     1       5.903   5.521  16.225  0.00  0.00    +0.000 A 
ATOM      2  C   UNL     1       4.856   4.714  16.678  0.00  0.00    +0.000 A 
ATOM      3  C   UNL     1       4.618   4.411  18.037  0.00  0.00    +0.000 A 
ATOM      4  C   UNL     1       5.496   5.003  18.954  0.00  0.00    +0.000 A 
ATOM      5  C   UNL     1       6.511   5.876  18.534  0.00  0.00    +0.000 A 
ATOM      6  C   UNL     1       6.716   6.154  17.174  0.00  0.00    +0.000 A 
ENDROOT
BRANCH   3   7
ATOM      7  C   UNL     1       3.350   3.482  18.458  0.00  0.00    +0.000 C 
ATOM      8  C   UNL     1       3.381   1.983  17.950  0.00  0.00    +0.000 C 
ATOM      9  C   UNL     1       2.940   1.529  19.347  0.00  0.00    +0.000 C 
ATOM     10  C   UNL     1       3.487   2.838  19.898  0.00  0.00    +0.000 C 
BRANCH   7  11
ATOM     11  C   UNL     1       2.026   4.256  18.017  0.00  0.00    +0.000 C 
ATOM     12  O   UNL     1       1.243   3.849  17.140  0.00  0.00    +0.000 OA
ATOM     13  N   UNL     1       1.694   5.467  18.594  0.00  0.00    +0.000 N 
ATOM     14  H   UNL     1       0.795   5.823  18.291  0.00  0.00    +0.000 HD
BRANCH  13  15
ATOM     15  C   UNL     1       2.277   6.044  19.773  0.00  0.00    +0.000 C 
BRANCH  15  16
ATOM     16  C   UNL     1       1.850   7.450  20.058  0.00  0.00    +0.000 A 
ATOM     17  C   UNL     1       1.298   7.814  21.297  0.00  0.00    +0.000 A 
ATOM     18  C   UNL     1       0.788   9.098  21.526  0.00  0.00    +0.000 A 
ATOM     19  C   UNL     1       0.855   9.994  20.458  0.00  0.00    +0.000 A 
ATOM     20  N   UNL     1       0.472  11.303  20.317  0.00  0.00    +0.000 N 
ATOM     21  C   UNL     1       0.763  11.694  19.040  0.00  0.00    +0.000 A 
ATOM     22  N   UNL     1       1.306  10.721  18.346  0.00  0.00    +0.000 NA
ATOM     23  C   UNL     1       1.378   9.663  19.213  0.00  0.00    +0.000 A 
ATOM     24  C   UNL     1       1.873   8.375  19.000  0.00  0.00    +0.000 A 
ATOM     25  H   UNL     1       0.057  11.882  21.032  0.00  0.00    +0.000 HD
ENDBRANCH  15  16
ENDBRANCH  13  15
ENDBRANCH   7  11
ENDBRANCH   3   7
BRANCH   1  27
ATOM     26  C   UNL     1       6.984   4.909  14.145  0.00  0.00    +0.000 C 
ATOM     27  O   UNL     1       6.117   5.748  14.895  0.00  0.00    +0.000 OA
ENDBRANCH   1  27
BRANCH   6  28
ATOM     28  O   UNL     1       7.723   7.062  16.944  0.00  0.00    +0.000 OA
BRANCH  28  29
ATOM     29  C   UNL     1       7.546   8.371  17.484  0.00  0.00    +0.000 C 
BRANCH  29  30
ATOM     30  C   UNL     1       8.656   8.714  18.467  0.00  0.00    +0.000 C 
BRANCH  30  31
ATOM     31  C   UNL     1       8.808  10.221  18.644  0.00  0.00    +0.000 C 
BRANCH  31  32
ATOM     32  C   UNL     1       9.741  10.793  17.580  0.00  0.00    +0.000 C 
BRANCH  32  33
ATOM     33  C   UNL     1      10.662  11.824  18.166  0.00  0.00    +0.000 A 
ATOM     34  C   UNL     1      11.506  11.516  19.229  0.00  0.00    +0.000 A 
ATOM     35  C   UNL     1      12.317  12.520  19.731  0.00  0.00    +0.000 A 
ATOM     36  N   UNL     1      12.333  13.789  19.260  0.00  0.00    +0.000 NA
ATOM     37  C   UNL     1      11.500  14.077  18.249  0.00  0.00    +0.000 A 
ATOM     38  N   UNL     1      11.544  15.378  17.751  0.00  0.00    +0.000 N 
ATOM     39  C   UNL     1      10.656  13.137  17.677  0.00  0.00    +0.000 A 
ATOM     40  H   UNL     1      12.180  15.896  18.352  0.00  0.00    +0.000 HD
ATOM     41  H   UNL     1      10.621  15.795  17.721  0.00  0.00    +0.000 HD
ENDBRANCH  32  33
ENDBRANCH  31  32
ENDBRANCH  30  31
ENDBRANCH  29  30
ENDBRANCH  28  29
ENDBRANCH   6  28
TORSDOF 11
ENDMDL
MODEL 5
REMARK VINA RESULT:      -8.8      1.403      1.913
REMARK  Name = 
REMARK  12 active torsions:
REMARK  status: ('A' for Active; 'I' for Inactive)
REMARK    1  A    between atoms: C_1  and  O_2
REMARK    2  A    between atoms: O_2  and  C_3
REMARK    3  A    between atoms: C_5  and  C_6
REMARK    4  A    between atoms: C_6  and  C_7
REMARK    5  A    between atoms: N_9  and  C_10
REMARK    6  A    between atoms: C_10  and  C_11
REMARK    7  A    between atoms: C_25  and  O_26
REMARK    8  A    between atoms: O_26  and  C_27
REMARK    9  A    between atoms: C_27  and  C_28
REMARK   10  A    between atoms: C_28  and  C_29
REMARK   11  A    between atoms: C_29  and  C_30
REMARK   12  A    between atoms: C_30  and  C_31
REMARK                            x       y       z     vdW  Elec       q    Type
REMARK                         _______ _______ _______ _____ _____    ______ ____
ROOT
ATOM      1  C   UNL     1       5.443   5.728  16.479  0.00  0.00    +0.000 A 
ATOM      2  C   UNL     1       4.383   5.005  17.032  0.00  0.00    +0.000 A 
ATOM      3  C   UNL     1       4.228   4.754  18.413  0.00  0.00    +0.000 A 
ATOM      4  C   UNL     1       5.208   5.310  19.245  0.00  0.00    +0.000 A 
ATOM      5  C   UNL     1       6.244   6.102  18.725  0.00  0.00    +0.000 A 
ATOM      6  C   UNL     1       6.364   6.330  17.346  0.00  0.00    +0.000 A 
ENDROOT
BRANCH   3   7
ATOM      7  C   UNL     1       2.939   3.923  18.955  0.00  0.00    +0.000 C 
ATOM      8  C   UNL     1       1.682   3.875  17.993  0.00  0.00    +0.000 C 
ATOM      9  C   UNL     1       1.553   2.374  18.280  0.00  0.00    +0.000 C 
ATOM     10  C   UNL     1       3.024   2.367  18.673  0.00  0.00    +0.000 C 
BRANCH   7  11
ATOM     11  C   UNL     1       2.584   4.486  20.406  0.00  0.00    +0.000 C 
ATOM     12  O   UNL     1       2.646   3.811  21.448  0.00  0.00    +0.000 OA
ATOM     13  N   UNL     1       2.154   5.790  20.568  0.00  0.00    +0.000 N 
ATOM     14  H   UNL     1       2.035   6.055  21.538  0.00  0.00    +0.000 HD
BRANCH  13  15
ATOM     15  C   UNL     1       2.214   6.840  19.591  0.00  0.00    +0.000 C 
BRANCH  15  16
ATOM     16  C   UNL     1       1.687   8.161  20.059  0.00  0.00    +0.000 A 
ATOM     17  C   UNL     1       1.282   8.362  21.388  0.00  0.00    +0.000 A 
ATOM     18  C   UNL     1       0.678   9.557  21.800  0.00  0.00    +0.000 A 
ATOM     19  C   UNL     1       0.497  10.534  20.819  0.00  0.00    +0.000 A 
ATOM     20  N   UNL     1      -0.038  11.795  20.851  0.00  0.00    +0.000 N 
ATOM     21  C   UNL     1       0.024  12.313  19.588  0.00  0.00    +0.000 A 
ATOM     22  N   UNL     1       0.562  11.467  18.741  0.00  0.00    +0.000 NA
ATOM     23  C   UNL     1       0.868  10.362  19.491  0.00  0.00    +0.000 A 
ATOM     24  C   UNL     1       1.460   9.160  19.096  0.00  0.00    +0.000 A 
ATOM     25  H   UNL     1      -0.404  12.266  21.665  0.00  0.00    +0.000 HD
ENDBRANCH  15  16
ENDBRANCH  13  15
ENDBRANCH   7  11
ENDBRANCH   3   7
BRANCH   1  27
ATOM     26  C   UNL     1       5.746   4.793  14.264  0.00  0.00    +0.000 C 
ATOM     27  O   UNL     1       5.571   5.906  15.131  0.00  0.00    +0.000 OA
ENDBRANCH   1  27
BRANCH   6  28
ATOM     28  O   UNL     1       7.407   7.164  17.015  0.00  0.00    +0.000 OA
BRANCH  28  29
ATOM     29  C   UNL     1       8.059   7.838  18.090  0.00  0.00    +0.000 C 
BRANCH  29  30
ATOM     30  C   UNL     1       8.442   9.257  17.695  0.00  0.00    +0.000 C 
BRANCH  30  31
ATOM     31  C   UNL     1       8.510  10.181  18.907  0.00  0.00    +0.000 C 
BRANCH  31  32
ATOM     32  C   UNL     1       9.953  10.597  19.183  0.00  0.00    +0.000 C 
BRANCH  32  33
ATOM     33  C   UNL     1      10.324  11.820  18.396  0.00  0.00    +0.000 A 
ATOM     34  C   UNL     1      11.524  11.890  17.694  0.00  0.00    +0.000 A 
ATOM     35  C   UNL     1      11.810  13.055  17.003  0.00  0.00    +0.000 A 
ATOM     36  N   UNL     1      11.001  14.139  16.976  0.00  0.00    +0.000 NA
ATOM     37  C   UNL     1       9.856  14.066  17.673  0.00  0.00    +0.000 A 
ATOM     38  N   UNL     1       9.015  15.175  17.616  0.00  0.00    +0.000 N 
ATOM     39  C   UNL     1       9.482  12.940  18.390  0.00  0.00    +0.000 A 
ATOM     40  H   UNL     1       9.514  15.890  17.091  0.00  0.00    +0.000 HD
ATOM     41  H   UNL     1       8.756  15.493  18.543  0.00  0.00    +0.000 HD
ENDBRANCH  32  33
ENDBRANCH  31  32
ENDBRANCH  30  31
ENDBRANCH  29  30
ENDBRANCH  28  29
ENDBRANCH   6  28
TORSDOF 11
ENDMDL
MODEL 6
REMARK VINA RESULT:      -8.8      1.133      1.755
REMARK  Name = 
REMARK  12 active torsions:
REMARK  status: ('A' for Active; 'I' for Inactive)
REMARK    1  A    between atoms: C_1  and  O_2
REMARK    2  A    between atoms: O_2  and  C_3
REMARK    3  A    between atoms: C_5  and  C_6
REMARK    4  A    between atoms: C_6  and  C_7
REMARK    5  A    between atoms: N_9  and  C_10
REMARK    6  A    between atoms: C_10  and  C_11
REMARK    7  A    between atoms: C_25  and  O_26
REMARK    8  A    between atoms: O_26  and  C_27
REMARK    9  A    between atoms: C_27  and  C_28
REMARK   10  A    between atoms: C_28  and  C_29
REMARK   11  A    between atoms: C_29  and  C_30
REMARK   12  A    between atoms: C_30  and  C_31
REMARK                            x       y       z     vdW  Elec       q    Type
REMARK                         _______ _______ _______ _____ _____    ______ ____
ROOT
ATOM      1  C   UNL     1       6.164   5.445  16.570  0.00  0.00    +0.000 A 
ATOM      2  C   UNL     1       4.999   4.743  16.886  0.00  0.00    +0.000 A 
ATOM      3  C   UNL     1       4.579   4.452  18.203  0.00  0.00    +0.000 A 
ATOM      4  C   UNL     1       5.401   4.944  19.225  0.00  0.00    +0.000 A 
ATOM      5  C   UNL     1       6.539   5.715  18.940  0.00  0.00    +0.000 A 
ATOM      6  C   UNL     1       6.923   5.984  17.617  0.00  0.00    +0.000 A 
ENDROOT
BRANCH   3   7
ATOM      7  C   UNL     1       3.187   3.650  18.460  0.00  0.00    +0.000 C 
ATOM      8  C   UNL     1       3.142   2.148  17.964  0.00  0.00    +0.000 C 
ATOM      9  C   UNL     1       2.486   1.757  19.294  0.00  0.00    +0.000 C 
ATOM     10  C   UNL     1       3.078   3.017  19.907  0.00  0.00    +0.000 C 
BRANCH   7  11
ATOM     11  C   UNL     1       2.008   4.537  17.850  0.00  0.00    +0.000 C 
ATOM     12  O   UNL     1       1.134   4.097  17.082  0.00  0.00    +0.000 OA
ATOM     13  N   UNL     1       1.920   5.886  18.139  0.00  0.00    +0.000 N 
ATOM     14  H   UNL     1       1.090   6.323  17.760  0.00  0.00    +0.000 HD
BRANCH  13  15
ATOM     15  C   UNL     1       2.640   6.592  19.162  0.00  0.00    +0.000 C 
BRANCH  15  16
ATOM     16  C   UNL     1       1.921   7.777  19.728  0.00  0.00    +0.000 A 
ATOM     17  C   UNL     1       1.388   7.761  21.027  0.00  0.00    +0.000 A 
ATOM     18  C   UNL     1       0.613   8.820  21.516  0.00  0.00    +0.000 A 
ATOM     19  C   UNL     1       0.396   9.888  20.643  0.00  0.00    +0.000 A 
ATOM     20  N   UNL     1      -0.288  11.070  20.772  0.00  0.00    +0.000 N 
ATOM     21  C   UNL     1      -0.185  11.748  19.589  0.00  0.00    +0.000 A 
ATOM     22  N   UNL     1       0.518  11.080  18.705  0.00  0.00    +0.000 NA
ATOM     23  C   UNL     1       0.893   9.929  19.346  0.00  0.00    +0.000 A 
ATOM     24  C   UNL     1       1.655   8.859  18.872  0.00  0.00    +0.000 A 
ATOM     25  H   UNL     1      -0.773  11.390  21.596  0.00  0.00    +0.000 HD
ENDBRANCH  15  16
ENDBRANCH  13  15
ENDBRANCH   7  11
ENDBRANCH   3   7
BRANCH   1  27
ATOM     26  C   UNL     1       6.409   4.646  14.296  0.00  0.00    +0.000 C 
ATOM     27  O   UNL     1       6.549   5.663  15.278  0.00  0.00    +0.000 OA
ENDBRANCH   1  27
BRANCH   6  28
ATOM     28  O   UNL     1       8.034   6.790  17.520  0.00  0.00    +0.000 OA
BRANCH  28  29
ATOM     29  C   UNL     1       7.809   8.198  17.503  0.00  0.00    +0.000 C 
BRANCH  29  30
ATOM     30  C   UNL     1       8.629   8.898  18.578  0.00  0.00    +0.000 C 
BRANCH  30  31
ATOM     31  C   UNL     1       8.904  10.355  18.219  0.00  0.00    +0.000 C 
BRANCH  31  32
ATOM     32  C   UNL     1       9.943  10.951  19.165  0.00  0.00    +0.000 C 
BRANCH  32  33
ATOM     33  C   UNL     1      10.090  12.429  18.945  0.00  0.00    +0.000 A 
ATOM     34  C   UNL     1       9.194  13.131  18.144  0.00  0.00    +0.000 A 
ATOM     35  C   UNL     1       9.399  14.490  17.969  0.00  0.00    +0.000 A 
ATOM     36  N   UNL     1      10.423  15.179  18.523  0.00  0.00    +0.000 NA
ATOM     37  C   UNL     1      11.291  14.487  19.277  0.00  0.00    +0.000 A 
ATOM     38  N   UNL     1      12.326  15.209  19.865  0.00  0.00    +0.000 N 
ATOM     39  C   UNL     1      11.165  13.126  19.512  0.00  0.00    +0.000 A 
ATOM     40  H   UNL     1      12.254  16.160  19.511  0.00  0.00    +0.000 HD
ATOM     41  H   UNL     1      13.229  14.794  19.666  0.00  0.00    +0.000 HD
ENDBRANCH  32  33
ENDBRANCH  31  32
ENDBRANCH  30  31
ENDBRANCH  29  30
ENDBRANCH  28  29
ENDBRANCH   6  28
TORSDOF 11
ENDMDL
MODEL 7
REMARK VINA RESULT:      -8.7      3.994      8.815
REMARK  Name = 
REMARK  12 active torsions:
REMARK  status: ('A' for Active; 'I' for Inactive)
REMARK    1  A    between atoms: C_1  and  O_2
REMARK    2  A    between atoms: O_2  and  C_3
REMARK    3  A    between atoms: C_5  and  C_6
REMARK    4  A    between atoms: C_6  and  C_7
REMARK    5  A    between atoms: N_9  and  C_10
REMARK    6  A    between atoms: C_10  and  C_11
REMARK    7  A    between atoms: C_25  and  O_26
REMARK    8  A    between atoms: O_26  and  C_27
REMARK    9  A    between atoms: C_27  and  C_28
REMARK   10  A    between atoms: C_28  and  C_29
REMARK   11  A    between atoms: C_29  and  C_30
REMARK   12  A    between atoms: C_30  and  C_31
REMARK                            x       y       z     vdW  Elec       q    Type
REMARK                         _______ _______ _______ _____ _____    ______ ____
ROOT
ATOM      1  C   UNL     1       1.933   7.424  20.156  0.00  0.00    +0.000 A 
ATOM      2  C   UNL     1       1.857   6.062  20.456  0.00  0.00    +0.000 A 
ATOM      3  C   UNL     1       1.978   5.029  19.500  0.00  0.00    +0.000 A 
ATOM      4  C   UNL     1       2.217   5.446  18.184  0.00  0.00    +0.000 A 
ATOM      5  C   UNL     1       2.370   6.804  17.864  0.00  0.00    +0.000 A 
ATOM      6  C   UNL     1       2.244   7.801  18.843  0.00  0.00    +0.000 A 
ENDROOT
BRANCH   3   7
ATOM      7  C   UNL     1       1.903   3.472  19.963  0.00  0.00    +0.000 C 
ATOM      8  C   UNL     1       3.086   2.956  20.879  0.00  0.00    +0.000 C 
ATOM      9  C   UNL     1       2.052   2.265  21.778  0.00  0.00    +0.000 C 
ATOM     10  C   UNL     1       1.006   3.234  21.246  0.00  0.00    +0.000 C 
BRANCH   7  11
ATOM     11  C   UNL     1       1.716   2.592  18.644  0.00  0.00    +0.000 C 
ATOM     12  O   UNL     1       0.623   2.405  18.082  0.00  0.00    +0.000 OA
ATOM     13  N   UNL     1       2.799   1.957  18.063  0.00  0.00    +0.000 N 
ATOM     14  H   UNL     1       2.571   1.495  17.191  0.00  0.00    +0.000 HD
BRANCH  13  15
ATOM     15  C   UNL     1       4.185   2.185  18.357  0.00  0.00    +0.000 C 
BRANCH  15  16
ATOM     16  C   UNL     1       4.760   3.422  17.739  0.00  0.00    +0.000 A 
ATOM     17  C   UNL     1       4.594   3.707  16.374  0.00  0.00    +0.000 A 
ATOM     18  C   UNL     1       5.230   4.799  15.768  0.00  0.00    +0.000 A 
ATOM     19  C   UNL     1       6.039   5.584  16.592  0.00  0.00    +0.000 A 
ATOM     20  N   UNL     1       6.792   6.706  16.359  0.00  0.00    +0.000 N 
ATOM     21  C   UNL     1       7.399   7.058  17.532  0.00  0.00    +0.000 A 
ATOM     22  N   UNL     1       7.089   6.235  18.507  0.00  0.00    +0.000 NA
ATOM     23  C   UNL     1       6.240   5.321  17.942  0.00  0.00    +0.000 A 
ATOM     24  C   UNL     1       5.606   4.222  18.526  0.00  0.00    +0.000 A 
ATOM     25  H   UNL     1       6.876   7.194  15.480  0.00  0.00    +0.000 HD
ENDBRANCH  15  16
ENDBRANCH  13  15
ENDBRANCH   7  11
ENDBRANCH   3   7
BRANCH   1  27
ATOM     26  C   UNL     1       0.536   8.507  21.813  0.00  0.00    +0.000 C 
ATOM     27  O   UNL     1       1.765   8.386  21.111  0.00  0.00    +0.000 OA
ENDBRANCH   1  27
BRANCH   6  28
ATOM     28  O   UNL     1       2.468   9.072  18.365  0.00  0.00    +0.000 OA
BRANCH  28  29
ATOM     29  C   UNL     1       1.322   9.820  17.963  0.00  0.00    +0.000 C 
BRANCH  29  30
ATOM     30  C   UNL     1       1.123  11.040  18.852  0.00  0.00    +0.000 C 
BRANCH  30  31
ATOM     31  C   UNL     1      -0.256  11.043  19.504  0.00  0.00    +0.000 C 
BRANCH  31  32
ATOM     32  C   UNL     1      -0.963  12.372  19.251  0.00  0.00    +0.000 C 
BRANCH  32  33
ATOM     33  C   UNL     1      -2.411  12.159  18.916  0.00  0.00    +0.000 A 
ATOM     34  C   UNL     1      -3.415  12.456  19.834  0.00  0.00    +0.000 A 
ATOM     35  C   UNL     1      -4.728  12.218  19.466  0.00  0.00    +0.000 A 
ATOM     36  N   UNL     1      -5.100  11.706  18.270  0.00  0.00    +0.000 NA
ATOM     37  C   UNL     1      -4.121  11.405  17.402  0.00  0.00    +0.000 A 
ATOM     38  N   UNL     1      -4.514  10.904  16.163  0.00  0.00    +0.000 N 
ATOM     39  C   UNL     1      -2.779  11.613  17.679  0.00  0.00    +0.000 A 
ATOM     40  H   UNL     1      -5.523  10.784  16.206  0.00  0.00    +0.000 HD
ATOM     41  H   UNL     1      -4.034  10.040  15.943  0.00  0.00    +0.000 HD
ENDBRANCH  32  33
ENDBRANCH  31  32
ENDBRANCH  30  31
ENDBRANCH  29  30
ENDBRANCH  28  29
ENDBRANCH   6  28
TORSDOF 11
ENDMDL
MODEL 8
REMARK VINA RESULT:      -8.7      1.183      1.402
REMARK  Name = 
REMARK  12 active torsions:
REMARK  status: ('A' for Active; 'I' for Inactive)
REMARK    1  A    between atoms: C_1  and  O_2
REMARK    2  A    between atoms: O_2  and  C_3
REMARK    3  A    between atoms: C_5  and  C_6
REMARK    4  A    between atoms: C_6  and  C_7
REMARK    5  A    between atoms: N_9  and  C_10
REMARK    6  A    between atoms: C_10  and  C_11
REMARK    7  A    between atoms: C_25  and  O_26
REMARK    8  A    between atoms: O_26  and  C_27
REMARK    9  A    between atoms: C_27  and  C_28
REMARK   10  A    between atoms: C_28  and  C_29
REMARK   11  A    between atoms: C_29  and  C_30
REMARK   12  A    between atoms: C_30  and  C_31
REMARK                            x       y       z     vdW  Elec       q    Type
REMARK                         _______ _______ _______ _____ _____    ______ ____
ROOT
ATOM      1  C   UNL     1       6.487   5.537  16.597  0.00  0.00    +0.000 A 
ATOM      2  C   UNL     1       5.391   4.720  16.881  0.00  0.00    +0.000 A 
ATOM      3  C   UNL     1       4.952   4.403  18.186  0.00  0.00    +0.000 A 
ATOM      4  C   UNL     1       5.677   4.993  19.230  0.00  0.00    +0.000 A 
ATOM      5  C   UNL     1       6.738   5.876  18.974  0.00  0.00    +0.000 A 
ATOM      6  C   UNL     1       7.143   6.167  17.663  0.00  0.00    +0.000 A 
ENDROOT
BRANCH   3   7
ATOM      7  C   UNL     1       3.643   3.463  18.404  0.00  0.00    +0.000 C 
ATOM      8  C   UNL     1       3.770   1.962  17.918  0.00  0.00    +0.000 C 
ATOM      9  C   UNL     1       3.115   1.510  19.229  0.00  0.00    +0.000 C 
ATOM     10  C   UNL     1       3.552   2.827  19.851  0.00  0.00    +0.000 C 
BRANCH   7  11
ATOM     11  C   UNL     1       2.399   4.219  17.749  0.00  0.00    +0.000 C 
ATOM     12  O   UNL     1       1.633   3.705  16.915  0.00  0.00    +0.000 OA
ATOM     13  N   UNL     1       2.125   5.535  18.075  0.00  0.00    +0.000 N 
ATOM     14  H   UNL     1       1.270   5.881  17.658  0.00  0.00    +0.000 HD
BRANCH  13  15
ATOM     15  C   UNL     1       2.690   6.284  19.162  0.00  0.00    +0.000 C 
BRANCH  15  16
ATOM     16  C   UNL     1       1.940   7.530  19.519  0.00  0.00    +0.000 A 
ATOM     17  C   UNL     1       1.842   8.610  18.627  0.00  0.00    +0.000 A 
ATOM     18  C   UNL     1       1.245   9.820  19.002  0.00  0.00    +0.000 A 
ATOM     19  C   UNL     1       0.757   9.896  20.308  0.00  0.00    +0.000 A 
ATOM     20  N   UNL     1       0.122  10.890  21.007  0.00  0.00    +0.000 N 
ATOM     21  C   UNL     1      -0.125  10.427  22.270  0.00  0.00    +0.000 A 
ATOM     22  N   UNL     1       0.312   9.201  22.432  0.00  0.00    +0.000 NA
ATOM     23  C   UNL     1       0.854   8.854  21.223  0.00  0.00    +0.000 A 
ATOM     24  C   UNL     1       1.461   7.658  20.834  0.00  0.00    +0.000 A 
ATOM     25  H   UNL     1      -0.129  11.800  20.652  0.00  0.00    +0.000 HD
ENDBRANCH  15  16
ENDBRANCH  13  15
ENDBRANCH   7  11
ENDBRANCH   3   7
BRANCH   1  27
ATOM     26  C   UNL     1       6.772   4.779  14.314  0.00  0.00    +0.000 C 
ATOM     27  O   UNL     1       6.898   5.777  15.317  0.00  0.00    +0.000 OA
ENDBRANCH   1  27
BRANCH   6  28
ATOM     28  O   UNL     1       8.166   7.084  17.594  0.00  0.00    +0.000 OA
BRANCH  28  29
ATOM     29  C   UNL     1       7.798   8.462  17.598  0.00  0.00    +0.000 C 
BRANCH  29  30
ATOM     30  C   UNL     1       8.627   9.249  18.602  0.00  0.00    +0.000 C 
BRANCH  30  31
ATOM     31  C   UNL     1       9.450  10.340  17.923  0.00  0.00    +0.000 C 
BRANCH  31  32
ATOM     32  C   UNL     1       9.332  11.654  18.691  0.00  0.00    +0.000 C 
BRANCH  32  33
ATOM     33  C   UNL     1      10.216  12.711  18.093  0.00  0.00    +0.000 A 
ATOM     34  C   UNL     1      11.553  12.453  17.802  0.00  0.00    +0.000 A 
ATOM     35  C   UNL     1      12.315  13.478  17.268  0.00  0.00    +0.000 A 
ATOM     36  N   UNL     1      11.845  14.722  17.019  0.00  0.00    +0.000 NA
ATOM     37  C   UNL     1      10.559  14.963  17.322  0.00  0.00    +0.000 A 
ATOM     38  N   UNL     1      10.076  16.237  17.036  0.00  0.00    +0.000 N 
ATOM     39  C   UNL     1       9.718  13.998  17.855  0.00  0.00    +0.000 A 
ATOM     40  H   UNL     1      10.871  16.783  16.712  0.00  0.00    +0.000 HD
ATOM     41  H   UNL     1       9.629  16.655  17.844  0.00  0.00    +0.000 HD
ENDBRANCH  32  33
ENDBRANCH  31  32
ENDBRANCH  30  31
ENDBRANCH  29  30
ENDBRANCH  28  29
ENDBRANCH   6  28
TORSDOF 11
ENDMDL
MODEL 9
REMARK VINA RESULT:      -8.7      4.296      8.305
REMARK  Name = 
REMARK  12 active torsions:
REMARK  status: ('A' for Active; 'I' for Inactive)
REMARK    1  A    between atoms: C_1  and  O_2
REMARK    2  A    between atoms: O_2  and  C_3
REMARK    3  A    between atoms: C_5  and  C_6
REMARK    4  A    between atoms: C_6  and  C_7
REMARK    5  A    between atoms: N_9  and  C_10
REMARK    6  A    between atoms: C_10  and  C_11
REMARK    7  A    between atoms: C_25  and  O_26
REMARK    8  A    between atoms: O_26  and  C_27
REMARK    9  A    between atoms: C_27  and  C_28
REMARK   10  A    between atoms: C_28  and  C_29
REMARK   11  A    between atoms: C_29  and  C_30
REMARK   12  A    between atoms: C_30  and  C_31
REMARK                            x       y       z     vdW  Elec       q    Type
REMARK                         _______ _______ _______ _____ _____    ______ ____
ROOT
ATOM      1  C   UNL     1       2.554   8.318  18.098  0.00  0.00    +0.000 A 
ATOM      2  C   UNL     1       3.687   7.686  17.580  0.00  0.00    +0.000 A 
ATOM      3  C   UNL     1       4.378   6.638  18.227  0.00  0.00    +0.000 A 
ATOM      4  C   UNL     1       3.840   6.221  19.452  0.00  0.00    +0.000 A 
ATOM      5  C   UNL     1       2.662   6.788  19.962  0.00  0.00    +0.000 A 
ATOM      6  C   UNL     1       2.002   7.827  19.288  0.00  0.00    +0.000 A 
ENDROOT
BRANCH   3   7
ATOM      7  C   UNL     1       5.673   5.951  17.520  0.00  0.00    +0.000 C 
ATOM      8  C   UNL     1       7.004   6.808  17.513  0.00  0.00    +0.000 C 
ATOM      9  C   UNL     1       7.781   5.555  17.934  0.00  0.00    +0.000 C 
ATOM     10  C   UNL     1       6.480   4.984  18.479  0.00  0.00    +0.000 C 
BRANCH   7  11
ATOM     11  C   UNL     1       5.227   5.491  16.058  0.00  0.00    +0.000 C 
ATOM     12  O   UNL     1       5.314   6.210  15.047  0.00  0.00    +0.000 OA
ATOM     13  N   UNL     1       4.683   4.237  15.851  0.00  0.00    +0.000 N 
ATOM     14  H   UNL     1       4.513   4.031  14.874  0.00  0.00    +0.000 HD
BRANCH  13  15
ATOM     15  C   UNL     1       4.684   3.139  16.775  0.00  0.00    +0.000 C 
BRANCH  15  16
ATOM     16  C   UNL     1       3.519   3.111  17.716  0.00  0.00    +0.000 A 
ATOM     17  C   UNL     1       2.259   3.601  17.339  0.00  0.00    +0.000 A 
ATOM     18  C   UNL     1       1.200   3.687  18.252  0.00  0.00    +0.000 A 
ATOM     19  C   UNL     1       1.467   3.263  19.556  0.00  0.00    +0.000 A 
ATOM     20  N   UNL     1       0.696   3.196  20.687  0.00  0.00    +0.000 N 
ATOM     21  C   UNL     1       1.474   2.708  21.700  0.00  0.00    +0.000 A 
ATOM     22  N   UNL     1       2.698   2.459  21.297  0.00  0.00    +0.000 NA
ATOM     23  C   UNL     1       2.708   2.790  19.968  0.00  0.00    +0.000 A 
ATOM     24  C   UNL     1       3.753   2.721  19.045  0.00  0.00    +0.000 A 
ATOM     25  H   UNL     1      -0.277   3.451  20.760  0.00  0.00    +0.000 HD
ENDBRANCH  15  16
ENDBRANCH  13  15
ENDBRANCH   7  11
ENDBRANCH   3   7
BRANCH   1  27
ATOM     26  C   UNL     1       2.011  10.676  17.977  0.00  0.00    +0.000 C 
ATOM     27  O   UNL     1       1.947   9.357  17.452  0.00  0.00    +0.000 OA
ENDBRANCH   1  27
BRANCH   6  28
ATOM     28  O   UNL     1       0.842   8.233  19.905  0.00  0.00    +0.000 OA
BRANCH  28  29
ATOM     29  C   UNL     1       0.941   8.620  21.275  0.00  0.00    +0.000 C 
BRANCH  29  30
ATOM     30  C   UNL     1      -0.436   8.747  21.911  0.00  0.00    +0.000 C 
BRANCH  30  31
ATOM     31  C   UNL     1      -0.669  10.143  22.478  0.00  0.00    +0.000 C 
BRANCH  31  32
ATOM     32  C   UNL     1      -0.098  11.204  21.540  0.00  0.00    +0.000 C 
BRANCH  32  33
ATOM     33  C   UNL     1      -0.345  12.586  22.071  0.00  0.00    +0.000 A 
ATOM     34  C   UNL     1       0.422  13.668  21.648  0.00  0.00    +0.000 A 
ATOM     35  C   UNL     1       0.151  14.913  22.193  0.00  0.00    +0.000 A 
ATOM     36  N   UNL     1      -0.807  15.143  23.119  0.00  0.00    +0.000 NA
ATOM     37  C   UNL     1      -1.526  14.087  23.533  0.00  0.00    +0.000 A 
ATOM     38  N   UNL     1      -2.529  14.338  24.466  0.00  0.00    +0.000 N 
ATOM     39  C   UNL     1      -1.331  12.805  23.042  0.00  0.00    +0.000 A 
ATOM     40  H   UNL     1      -2.450  15.320  24.720  0.00  0.00    +0.000 HD
ATOM     41  H   UNL     1      -2.449  13.728  25.270  0.00  0.00    +0.000 HD
ENDBRANCH  32  33
ENDBRANCH  31  32
ENDBRANCH  30  31
ENDBRANCH  29  30
ENDBRANCH  28  29
ENDBRANCH   6  28
TORSDOF 11
ENDMDL
