MODEL 1
REMARK VINA RESULT:      -8.7      0.000      0.000
REMARK  Name = 
REMARK  7 active torsions:
REMARK  status: ('A' for Active; 'I' for Inactive)
REMARK    1  A    between atoms: C_2  and  C_9
REMARK    2  A    between atoms: N_3  and  C_4
REMARK    3  A    between atoms: C_4  and  C_5
REMARK    4  A    between atoms: C_14  and  N_15
REMARK    5  A    between atoms: C_16  and  C_18
REMARK    6  A    between atoms: C_21  and  C_22
REMARK    7  A    between atoms: C_22  and  N_23
REMARK                            x       y       z     vdW  Elec       q    Type
REMARK                         _______ _______ _______ _____ _____    ______ ____
ROOT
ATOM      1  N   UNL     1       2.104   5.769  18.284  0.00  0.00    +0.000 N 
ATOM      2  C   UNL     1       2.366   6.530  19.415  0.00  0.00    +0.000 C 
ATOM      3  O   UNL     1       2.831   6.080  20.456  0.00  0.00    +0.000 OA
ATOM      4  H   UNL     1       1.354   6.133  17.689  0.00  0.00    +0.000 HD
ENDROOT
BRANCH   2   5
ATOM      5  C   UNL     1       1.972   7.980  19.281  0.00  0.00    +0.000 A 
ATOM      6  C   UNL     1       2.432   8.641  18.128  0.00  0.00    +0.000 A 
ATOM      7  C   UNL     1       2.112   9.971  17.904  0.00  0.00    +0.000 A 
ATOM      8  C   UNL     1       1.328  10.692  18.819  0.00  0.00    +0.000 A 
ATOM      9  C   UNL     1       0.859  10.053  20.002  0.00  0.00    +0.000 A 
ATOM     10  C   UNL     1       0.069  10.740  20.954  0.00  0.00    +0.000 A 
ATOM     11  C   UNL     1      -0.378  10.134  22.125  0.00  0.00    +0.000 A 
ATOM     12  C   UNL     1      -0.056   8.810  22.372  0.00  0.00    +0.000 A 
ATOM     13  C   UNL     1       0.708   8.099  21.448  0.00  0.00    +0.000 A 
ATOM     14  C   UNL     1       1.193   8.682  20.248  0.00  0.00    +0.000 A 
BRANCH   8  15
ATOM     15  C   UNL     1       1.030  12.143  18.483  0.00  0.00    +0.000 C 
BRANCH  15  16
ATOM     16  N   UNL     1       2.078  13.053  18.918  0.00  0.00    +0.000 N 
ATOM     17  C   UNL     1       2.189  13.644  20.149  0.00  0.00    +0.000 A 
ATOM     18  C   UNL     1       3.239  14.525  20.029  0.00  0.00    +0.000 A 
ATOM     19  N   UNL     1       3.761  14.488  18.763  0.00  0.00    +0.000 NA
ATOM     20  C   UNL     1       3.044  13.594  18.119  0.00  0.00    +0.000 A 
ENDBRANCH  15  16
ENDBRANCH   8  15
ENDBRANCH   2   5
BRANCH   1  26
ATOM     21  C   UNL     1       3.434   3.753  17.861  0.00  0.00    +0.000 A 
ATOM     22  N   UNL     1       3.642   2.405  17.800  0.00  0.00    +0.000 NA
ATOM     23  C   UNL     1       2.612   1.633  18.212  0.00  0.00    +0.000 A 
ATOM     24  C   UNL     1       1.387   2.130  18.623  0.00  0.00    +0.000 A 
ATOM     25  C   UNL     1       1.184   3.516  18.624  0.00  0.00    +0.000 A 
ATOM     26  C   UNL     1       2.231   4.358  18.249  0.00  0.00    +0.000 A 
BRANCH  21  28
ATOM     27  O   UNL     1       4.369   5.533  16.592  0.00  0.00    +0.000 OA
ATOM     28  C   UNL     1       4.569   4.619  17.379  0.00  0.00    +0.000 C 
ATOM     29  N   UNL     1       5.816   4.264  17.846  0.00  0.00    +0.000 N 
ATOM     30  H   UNL     1       5.861   3.502  18.521  0.00  0.00    +0.000 HD
BRANCH  29  31
ATOM     31  C   UNL     1       7.028   4.917  17.408  0.00  0.00    +0.000 C 
BRANCH  31  32
ATOM     32  C   UNL     1       7.048   6.297  18.038  0.00  0.00    +0.000 C 
ATOM     33  C   UNL     1       8.261   6.645  18.942  0.00  0.00    +0.000 C 
ATOM     34  C   UNL     1       8.222   8.062  18.336  0.00  0.00    +0.000 C 
ATOM     35  C   UNL     1       7.525   7.446  17.107  0.00  0.00    +0.000 C 
ENDBRANCH  31  32
ENDBRANCH  29  31
ENDBRANCH  21  28
ENDBRANCH   1  26
TORSDOF 7
ENDMDL
MODEL 2
REMARK VINA RESULT:      -8.7      1.742      2.327
REMARK  Name = 
REMARK  7 active torsions:
REMARK  status: ('A' for Active; 'I' for Inactive)
REMARK    1  A    between atoms: C_2  and  C_9
REMARK    2  A    between atoms: N_3  and  C_4
REMARK    3  A    between atoms: C_4  and  C_5
REMARK    4  A    between atoms: C_14  and  N_15
REMARK    5  A    between atoms: C_16  and  C_18
REMARK    6  A    between atoms: C_21  and  C_22
REMARK    7  A    between atoms: C_22  and  N_23
REMARK                            x       y       z     vdW  Elec       q    Type
REMARK                         _______ _______ _______ _____ _____    ______ ____
ROOT
ATOM      1  N   UNL     1       2.144   5.916  18.309  0.00  0.00    +0.000 N 
ATOM      2  C   UNL     1       2.325   6.677  19.454  0.00  0.00    +0.000 C 
ATOM      3  O   UNL     1       2.747   6.236  20.517  0.00  0.00    +0.000 OA
ATOM      4  H   UNL     1       1.416   6.261  17.677  0.00  0.00    +0.000 HD
ENDROOT
BRANCH   2   5
ATOM      5  C   UNL     1       1.897   8.116  19.306  0.00  0.00    +0.000 A 
ATOM      6  C   UNL     1       2.320   8.769  18.134  0.00  0.00    +0.000 A 
ATOM      7  C   UNL     1       1.967  10.088  17.896  0.00  0.00    +0.000 A 
ATOM      8  C   UNL     1       1.185  10.807  18.814  0.00  0.00    +0.000 A 
ATOM      9  C   UNL     1       0.753  10.176  20.016  0.00  0.00    +0.000 A 
ATOM     10  C   UNL     1      -0.034  10.861  20.972  0.00  0.00    +0.000 A 
ATOM     11  C   UNL     1      -0.447  10.263  22.161  0.00  0.00    +0.000 A 
ATOM     12  C   UNL     1      -0.091   8.951  22.422  0.00  0.00    +0.000 A 
ATOM     13  C   UNL     1       0.671   8.242  21.495  0.00  0.00    +0.000 A 
ATOM     14  C   UNL     1       1.121   8.817  20.277  0.00  0.00    +0.000 A 
BRANCH   8  15
ATOM     15  C   UNL     1       0.849  12.245  18.462  0.00  0.00    +0.000 C 
BRANCH  15  16
ATOM     16  N   UNL     1       1.860  13.189  18.910  0.00  0.00    +0.000 N 
ATOM     17  C   UNL     1       3.006  13.538  18.246  0.00  0.00    +0.000 A 
ATOM     18  C   UNL     1       3.703  14.332  19.128  0.00  0.00    +0.000 A 
ATOM     19  N   UNL     1       3.017  14.468  20.305  0.00  0.00    +0.000 NA
ATOM     20  C   UNL     1       1.914  13.771  20.145  0.00  0.00    +0.000 A 
ENDBRANCH  15  16
ENDBRANCH   8  15
ENDBRANCH   2   5
BRANCH   1  26
ATOM     21  C   UNL     1       3.480   3.936  17.751  0.00  0.00    +0.000 A 
ATOM     22  N   UNL     1       3.724   2.595  17.681  0.00  0.00    +0.000 NA
ATOM     23  C   UNL     1       2.777   1.797  18.224  0.00  0.00    +0.000 A 
ATOM     24  C   UNL     1       1.595   2.261  18.774  0.00  0.00    +0.000 A 
ATOM     25  C   UNL     1       1.347   3.640  18.783  0.00  0.00    +0.000 A 
ATOM     26  C   UNL     1       2.313   4.509  18.275  0.00  0.00    +0.000 A 
BRANCH  21  28
ATOM     27  O   UNL     1       4.922   5.825  17.709  0.00  0.00    +0.000 OA
ATOM     28  C   UNL     1       4.518   4.830  17.125  0.00  0.00    +0.000 C 
ATOM     29  N   UNL     1       4.916   4.468  15.857  0.00  0.00    +0.000 N 
ATOM     30  H   UNL     1       4.533   3.602  15.479  0.00  0.00    +0.000 HD
BRANCH  29  31
ATOM     31  C   UNL     1       5.825   5.266  15.066  0.00  0.00    +0.000 C 
BRANCH  31  32
ATOM     32  C   UNL     1       6.559   4.320  14.134  0.00  0.00    +0.000 C 
ATOM     33  C   UNL     1       5.744   3.706  12.964  0.00  0.00    +0.000 C 
ATOM     34  C   UNL     1       6.998   3.882  12.086  0.00  0.00    +0.000 C 
ATOM     35  C   UNL     1       7.435   5.004  13.049  0.00  0.00    +0.000 C 
ENDBRANCH  31  32
ENDBRANCH  29  31
ENDBRANCH  21  28
ENDBRANCH   1  26
TORSDOF 7
ENDMDL
MODEL 3
REMARK VINA RESULT:      -8.4      1.232      1.793
REMARK  Name = 
REMARK  7 active torsions:
REMARK  status: ('A' for Active; 'I' for Inactive)
REMARK    1  A    between atoms: C_2  and  C_9
REMARK    2  A    between atoms: N_3  and  C_4
REMARK    3  A    between atoms: C_4  and  C_5
REMARK    4  A    between atoms: C_14  and  N_15
REMARK    5  A    between atoms: C_16  and  C_18
REMARK    6  A    between atoms: C_21  and  C_22
REMARK    7  A    between atoms: C_22  and  N_23
REMARK                            x       y       z     vdW  Elec       q    Type
REMARK                         _______ _______ _______ _____ _____    ______ ____
ROOT
ATOM      1  N   UNL     1       2.161   5.809  18.890  0.00  0.00    +0.000 N 
ATOM      2  C   UNL     1       1.931   6.570  20.027  0.00  0.00    +0.000 C 
ATOM      3  O   UNL     1       1.929   6.122  21.168  0.00  0.00    +0.000 OA
ATOM      4  H   UNL     1       1.719   6.169  18.039  0.00  0.00    +0.000 HD
ENDROOT
BRANCH   2   5
ATOM      5  C   UNL     1       1.618   8.018  19.741  0.00  0.00    +0.000 A 
ATOM      6  C   UNL     1       2.079   8.518  18.510  0.00  0.00    +0.000 A 
ATOM      7  C   UNL     1       1.830   9.832  18.146  0.00  0.00    +0.000 A 
ATOM      8  C   UNL     1       1.120  10.697  18.993  0.00  0.00    +0.000 A 
ATOM      9  C   UNL     1       0.651  10.223  20.252  0.00  0.00    +0.000 A 
ATOM     10  C   UNL     1      -0.068  11.058  21.140  0.00  0.00    +0.000 A 
ATOM     11  C   UNL     1      -0.513  10.613  22.382  0.00  0.00    +0.000 A 
ATOM     12  C   UNL     1      -0.261   9.308  22.768  0.00  0.00    +0.000 A 
ATOM     13  C   UNL     1       0.431   8.453  21.911  0.00  0.00    +0.000 A 
ATOM     14  C   UNL     1       0.911   8.869  20.642  0.00  0.00    +0.000 A 
BRANCH   8  15
ATOM     15  C   UNL     1       0.896  12.117  18.504  0.00  0.00    +0.000 C 
BRANCH  15  16
ATOM     16  N   UNL     1       1.973  13.021  18.877  0.00  0.00    +0.000 N 
ATOM     17  C   UNL     1       3.001  13.443  18.077  0.00  0.00    +0.000 A 
ATOM     18  C   UNL     1       3.836  14.151  18.911  0.00  0.00    +0.000 A 
ATOM     19  N   UNL     1       3.346  14.165  20.190  0.00  0.00    +0.000 NA
ATOM     20  C   UNL     1       2.226  13.478  20.139  0.00  0.00    +0.000 A 
ENDBRANCH  15  16
ENDBRANCH   8  15
ENDBRANCH   2   5
BRANCH   1  26
ATOM     21  C   UNL     1       3.566   3.799  18.903  0.00  0.00    +0.000 A 
ATOM     22  N   UNL     1       3.789   2.453  18.924  0.00  0.00    +0.000 NA
ATOM     23  C   UNL     1       2.686   1.676  19.025  0.00  0.00    +0.000 A 
ATOM     24  C   UNL     1       1.392   2.168  19.050  0.00  0.00    +0.000 A 
ATOM     25  C   UNL     1       1.192   3.552  18.973  0.00  0.00    +0.000 A 
ATOM     26  C   UNL     1       2.299   4.399  18.912  0.00  0.00    +0.000 A 
BRANCH  21  28
ATOM     27  O   UNL     1       4.908   5.690  19.426  0.00  0.00    +0.000 OA
ATOM     28  C   UNL     1       4.788   4.669  18.766  0.00  0.00    +0.000 C 
ATOM     29  N   UNL     1       5.700   4.253  17.820  0.00  0.00    +0.000 N 
ATOM     30  H   UNL     1       5.510   3.370  17.348  0.00  0.00    +0.000 HD
BRANCH  29  31
ATOM     31  C   UNL     1       6.878   5.019  17.481  0.00  0.00    +0.000 C 
BRANCH  31  32
ATOM     32  C   UNL     1       6.866   5.220  15.978  0.00  0.00    +0.000 C 
ATOM     33  C   UNL     1       6.607   3.969  15.098  0.00  0.00    +0.000 C 
ATOM     34  C   UNL     1       5.759   4.870  14.180  0.00  0.00    +0.000 C 
ATOM     35  C   UNL     1       5.545   5.794  15.396  0.00  0.00    +0.000 C 
ENDBRANCH  31  32
ENDBRANCH  29  31
ENDBRANCH  21  28
ENDBRANCH   1  26
TORSDOF 7
ENDMDL
MODEL 4
REMARK VINA RESULT:      -8.3      2.930      8.426
REMARK  Name = 
REMARK  7 active torsions:
REMARK  status: ('A' for Active; 'I' for Inactive)
REMARK    1  A    between atoms: C_2  and  C_9
REMARK    2  A    between atoms: N_3  and  C_4
REMARK    3  A    between atoms: C_4  and  C_5
REMARK    4  A    between atoms: C_14  and  N_15
REMARK    5  A    between atoms: C_16  and  C_18
REMARK    6  A    between atoms: C_21  and  C_22
REMARK    7  A    between atoms: C_22  and  N_23
REMARK                            x       y       z     vdW  Elec       q    Type
REMARK                         _______ _______ _______ _____ _____    ______ ____
ROOT
ATOM      1  N   UNL     1       0.432   8.355  20.489  0.00  0.00    +0.000 N 
ATOM      2  C   UNL     1       1.649   7.784  20.832  0.00  0.00    +0.000 C 
ATOM      3  O   UNL     1       2.270   8.046  21.855  0.00  0.00    +0.000 OA
ATOM      4  H   UNL     1       0.251   8.401  19.482  0.00  0.00    +0.000 HD
ENDROOT
BRANCH   2   5
ATOM      5  C   UNL     1       2.192   6.833  19.795  0.00  0.00    +0.000 A 
ATOM      6  C   UNL     1       2.857   7.422  18.704  0.00  0.00    +0.000 A 
ATOM      7  C   UNL     1       3.405   6.633  17.704  0.00  0.00    +0.000 A 
ATOM      8  C   UNL     1       3.309   5.234  17.750  0.00  0.00    +0.000 A 
ATOM      9  C   UNL     1       2.631   4.609  18.835  0.00  0.00    +0.000 A 
ATOM     10  C   UNL     1       2.506   3.203  18.923  0.00  0.00    +0.000 A 
ATOM     11  C   UNL     1       1.827   2.580  19.968  0.00  0.00    +0.000 A 
ATOM     12  C   UNL     1       1.261   3.352  20.967  0.00  0.00    +0.000 A 
ATOM     13  C   UNL     1       1.378   4.741  20.921  0.00  0.00    +0.000 A 
ATOM     14  C   UNL     1       2.051   5.415  19.869  0.00  0.00    +0.000 A 
BRANCH   8  15
ATOM     15  C   UNL     1       3.944   4.458  16.609  0.00  0.00    +0.000 C 
BRANCH  15  16
ATOM     16  N   UNL     1       5.383   4.652  16.523  0.00  0.00    +0.000 N 
ATOM     17  C   UNL     1       6.301   4.417  17.511  0.00  0.00    +0.000 A 
ATOM     18  C   UNL     1       7.492   4.891  17.013  0.00  0.00    +0.000 A 
ATOM     19  N   UNL     1       7.321   5.411  15.757  0.00  0.00    +0.000 NA
ATOM     20  C   UNL     1       6.043   5.253  15.489  0.00  0.00    +0.000 A 
ENDBRANCH  15  16
ENDBRANCH   8  15
ENDBRANCH   2   5
BRANCH   1  26
ATOM     21  C   UNL     1      -0.732  10.512  20.581  0.00  0.00    +0.000 A 
ATOM     22  N   UNL     1      -1.332  11.561  21.214  0.00  0.00    +0.000 NA
ATOM     23  C   UNL     1      -1.431  11.456  22.559  0.00  0.00    +0.000 A 
ATOM     24  C   UNL     1      -0.921  10.400  23.293  0.00  0.00    +0.000 A 
ATOM     25  C   UNL     1      -0.263   9.363  22.620  0.00  0.00    +0.000 A 
ATOM     26  C   UNL     1      -0.172   9.403  21.229  0.00  0.00    +0.000 A 
BRANCH  21  28
ATOM     27  O   UNL     1       0.393  11.153  18.587  0.00  0.00    +0.000 OA
ATOM     28  C   UNL     1      -0.595  10.634  19.086  0.00  0.00    +0.000 C 
ATOM     29  N   UNL     1      -1.672  10.175  18.359  0.00  0.00    +0.000 N 
ATOM     30  H   UNL     1      -2.430   9.735  18.879  0.00  0.00    +0.000 HD
BRANCH  29  31
ATOM     31  C   UNL     1      -1.758  10.307  16.922  0.00  0.00    +0.000 C 
BRANCH  31  32
ATOM     32  C   UNL     1      -2.867  11.299  16.628  0.00  0.00    +0.000 C 
ATOM     33  C   UNL     1      -4.124  10.759  15.894  0.00  0.00    +0.000 C 
ATOM     34  C   UNL     1      -4.967  11.671  16.806  0.00  0.00    +0.000 C 
ATOM     35  C   UNL     1      -3.808  11.616  17.822  0.00  0.00    +0.000 C 
ENDBRANCH  31  32
ENDBRANCH  29  31
ENDBRANCH  21  28
ENDBRANCH   1  26
TORSDOF 7
ENDMDL
MODEL 5
REMARK VINA RESULT:      -8.3      2.325      3.067
REMARK  Name = 
REMARK  7 active torsions:
REMARK  status: ('A' for Active; 'I' for Inactive)
REMARK    1  A    between atoms: C_2  and  C_9
REMARK    2  A    between atoms: N_3  and  C_4
REMARK    3  A    between atoms: C_4  and  C_5
REMARK    4  A    between atoms: C_14  and  N_15
REMARK    5  A    between atoms: C_16  and  C_18
REMARK    6  A    between atoms: C_21  and  C_22
REMARK    7  A    between atoms: C_22  and  N_23
REMARK                            x       y       z     vdW  Elec       q    Type
REMARK                         _______ _______ _______ _____ _____    ______ ____
ROOT
ATOM      1  N   UNL     1       1.738   5.671  19.740  0.00  0.00    +0.000 N 
ATOM      2  C   UNL     1       2.532   6.800  19.598  0.00  0.00    +0.000 C 
ATOM      3  O   UNL     1       3.753   6.802  19.698  0.00  0.00    +0.000 OA
ATOM      4  H   UNL     1       0.785   5.857  20.066  0.00  0.00    +0.000 HD
ENDROOT
BRANCH   2   5
ATOM      5  C   UNL     1       1.752   8.070  19.362  0.00  0.00    +0.000 A 
ATOM      6  C   UNL     1       1.695   8.522  18.032  0.00  0.00    +0.000 A 
ATOM      7  C   UNL     1       0.991   9.671  17.708  0.00  0.00    +0.000 A 
ATOM      8  C   UNL     1       0.323  10.414  18.693  0.00  0.00    +0.000 A 
ATOM      9  C   UNL     1       0.373   9.989  20.052  0.00  0.00    +0.000 A 
ATOM     10  C   UNL     1      -0.283  10.706  21.080  0.00  0.00    +0.000 A 
ATOM     11  C   UNL     1      -0.224  10.313  22.415  0.00  0.00    +0.000 A 
ATOM     12  C   UNL     1       0.486   9.176  22.758  0.00  0.00    +0.000 A 
ATOM     13  C   UNL     1       1.132   8.436  21.768  0.00  0.00    +0.000 A 
ATOM     14  C   UNL     1       1.106   8.808  20.399  0.00  0.00    +0.000 A 
BRANCH   8  15
ATOM     15  C   UNL     1      -0.423  11.656  18.238  0.00  0.00    +0.000 C 
BRANCH  15  16
ATOM     16  N   UNL     1      -1.815  11.394  17.909  0.00  0.00    +0.000 N 
ATOM     17  C   UNL     1      -2.910  11.711  18.669  0.00  0.00    +0.000 A 
ATOM     18  C   UNL     1      -3.975  11.129  18.021  0.00  0.00    +0.000 A 
ATOM     19  N   UNL     1      -3.558  10.467  16.898  0.00  0.00    +0.000 NA
ATOM     20  C   UNL     1      -2.255  10.643  16.856  0.00  0.00    +0.000 A 
ENDBRANCH  15  16
ENDBRANCH   8  15
ENDBRANCH   2   5
BRANCH   1  26
ATOM     21  C   UNL     1       3.064   3.659  19.285  0.00  0.00    +0.000 A 
ATOM     22  N   UNL     1       3.593   2.439  19.589  0.00  0.00    +0.000 NA
ATOM     23  C   UNL     1       3.340   1.983  20.837  0.00  0.00    +0.000 A 
ATOM     24  C   UNL     1       2.552   2.649  21.760  0.00  0.00    +0.000 A 
ATOM     25  C   UNL     1       1.978   3.875  21.400  0.00  0.00    +0.000 A 
ATOM     26  C   UNL     1       2.245   4.409  20.140  0.00  0.00    +0.000 A 
BRANCH  21  28
ATOM     27  O   UNL     1       2.423   4.193  17.059  0.00  0.00    +0.000 OA
ATOM     28  C   UNL     1       3.321   4.161  17.888  0.00  0.00    +0.000 C 
ATOM     29  N   UNL     1       4.625   4.515  17.623  0.00  0.00    +0.000 N 
ATOM     30  H   UNL     1       5.285   4.475  18.399  0.00  0.00    +0.000 HD
BRANCH  29  31
ATOM     31  C   UNL     1       5.074   4.919  16.310  0.00  0.00    +0.000 C 
BRANCH  31  32
ATOM     32  C   UNL     1       6.367   5.690  16.494  0.00  0.00    +0.000 C 
ATOM     33  C   UNL     1       6.274   7.077  17.184  0.00  0.00    +0.000 C 
ATOM     34  C   UNL     1       7.590   6.733  17.907  0.00  0.00    +0.000 C 
ATOM     35  C   UNL     1       7.239   5.246  17.701  0.00  0.00    +0.000 C 
ENDBRANCH  31  32
ENDBRANCH  29  31
ENDBRANCH  21  28
ENDBRANCH   1  26
TORSDOF 7
ENDMDL
MODEL 6
REMARK VINA RESULT:      -8.3      2.093      7.857
REMARK  Name = 
REMARK  7 active torsions:
REMARK  status: ('A' for Active; 'I' for Inactive)
REMARK    1  A    between atoms: C_2  and  C_9
REMARK    2  A    between atoms: N_3  and  C_4
REMARK    3  A    between atoms: C_4  and  C_5
REMARK    4  A    between atoms: C_14  and  N_15
REMARK    5  A    between atoms: C_16  and  C_18
REMARK    6  A    between atoms: C_21  and  C_22
REMARK    7  A    between atoms: C_22  and  N_23
REMARK                            x       y       z     vdW  Elec       q    Type
REMARK                         _______ _______ _______ _____ _____    ______ ____
ROOT
ATOM      1  N   UNL     1       0.655   8.677  20.307  0.00  0.00    +0.000 N 
ATOM      2  C   UNL     1       1.679   7.868  20.777  0.00  0.00    +0.000 C 
ATOM      3  O   UNL     1       2.139   7.925  21.912  0.00  0.00    +0.000 OA
ATOM      4  H   UNL     1       0.669   8.840  19.296  0.00  0.00    +0.000 HD
ENDROOT
BRANCH   2   5
ATOM      5  C   UNL     1       2.237   6.925  19.741  0.00  0.00    +0.000 A 
ATOM      6  C   UNL     1       2.968   7.518  18.696  0.00  0.00    +0.000 A 
ATOM      7  C   UNL     1       3.535   6.737  17.701  0.00  0.00    +0.000 A 
ATOM      8  C   UNL     1       3.393   5.341  17.706  0.00  0.00    +0.000 A 
ATOM      9  C   UNL     1       2.648   4.712  18.744  0.00  0.00    +0.000 A 
ATOM     10  C   UNL     1       2.475   3.308  18.790  0.00  0.00    +0.000 A 
ATOM     11  C   UNL     1       1.732   2.683  19.788  0.00  0.00    +0.000 A 
ATOM     12  C   UNL     1       1.147   3.449  20.781  0.00  0.00    +0.000 A 
ATOM     13  C   UNL     1       1.309   4.833  20.775  0.00  0.00    +0.000 A 
ATOM     14  C   UNL     1       2.049   5.511  19.771  0.00  0.00    +0.000 A 
BRANCH   8  15
ATOM     15  C   UNL     1       4.053   4.573  16.574  0.00  0.00    +0.000 C 
BRANCH  15  16
ATOM     16  N   UNL     1       5.504   4.543  16.679  0.00  0.00    +0.000 N 
ATOM     17  C   UNL     1       6.240   4.463  17.832  0.00  0.00    +0.000 A 
ATOM     18  C   UNL     1       7.547   4.622  17.433  0.00  0.00    +0.000 A 
ATOM     19  N   UNL     1       7.623   4.802  16.078  0.00  0.00    +0.000 NA
ATOM     20  C   UNL     1       6.380   4.749  15.652  0.00  0.00    +0.000 A 
ENDBRANCH  15  16
ENDBRANCH   8  15
ENDBRANCH   2   5
BRANCH   1  26
ATOM     21  C   UNL     1       0.127  11.059  20.553  0.00  0.00    +0.000 A 
ATOM     22  N   UNL     1      -0.378  12.148  21.204  0.00  0.00    +0.000 NA
ATOM     23  C   UNL     1      -0.990  11.896  22.383  0.00  0.00    +0.000 A 
ATOM     24  C   UNL     1      -1.072  10.640  22.960  0.00  0.00    +0.000 A 
ATOM     25  C   UNL     1      -0.498   9.550  22.295  0.00  0.00    +0.000 A 
ATOM     26  C   UNL     1       0.107   9.751  21.054  0.00  0.00    +0.000 A 
BRANCH  21  28
ATOM     27  O   UNL     1       0.607  10.658  18.260  0.00  0.00    +0.000 OA
ATOM     28  C   UNL     1       0.832  11.336  19.252  0.00  0.00    +0.000 C 
ATOM     29  N   UNL     1       1.762  12.352  19.294  0.00  0.00    +0.000 N 
ATOM     30  H   UNL     1       1.847  12.870  20.168  0.00  0.00    +0.000 HD
BRANCH  29  31
ATOM     31  C   UNL     1       2.605  12.686  18.168  0.00  0.00    +0.000 C 
BRANCH  31  32
ATOM     32  C   UNL     1       2.622  14.198  18.052  0.00  0.00    +0.000 C 
ATOM     33  C   UNL     1       1.977  15.005  19.211  0.00  0.00    +0.000 C 
ATOM     34  C   UNL     1       3.127  16.019  19.058  0.00  0.00    +0.000 C 
ATOM     35  C   UNL     1       3.963  14.879  18.442  0.00  0.00    +0.000 C 
ENDBRANCH  31  32
ENDBRANCH  29  31
ENDBRANCH  21  28
ENDBRANCH   1  26
TORSDOF 7
ENDMDL
MODEL 7
REMARK VINA RESULT:      -8.2      2.452      3.333
REMARK  Name = 
REMARK  7 active torsions:
REMARK  status: ('A' for Active; 'I' for Inactive)
REMARK    1  A    between atoms: C_2  and  C_9
REMARK    2  A    between atoms: N_3  and  C_4
REMARK    3  A    between atoms: C_4  and  C_5
REMARK    4  A    between atoms: C_14  and  N_15
REMARK    5  A    between atoms: C_16  and  C_18
REMARK    6  A    between atoms: C_21  and  C_22
REMARK    7  A    between atoms: C_22  and  N_23
REMARK                            x       y       z     vdW  Elec       q    Type
REMARK                         _______ _______ _______ _____ _____    ______ ____
ROOT
ATOM      1  N   UNL     1       2.071   5.773  18.419  0.00  0.00    +0.000 N 
ATOM      2  C   UNL     1       2.381   6.644  19.454  0.00  0.00    +0.000 C 
ATOM      3  O   UNL     1       3.063   6.344  20.427  0.00  0.00    +0.000 OA
ATOM      4  H   UNL     1       1.191   5.979  17.937  0.00  0.00    +0.000 HD
ENDROOT
BRANCH   2   5
ATOM      5  C   UNL     1       1.750   8.007  19.315  0.00  0.00    +0.000 A 
ATOM      6  C   UNL     1       1.806   8.586  18.034  0.00  0.00    +0.000 A 
ATOM      7  C   UNL     1       1.242   9.830  17.798  0.00  0.00    +0.000 A 
ATOM      8  C   UNL     1       0.608  10.545  18.826  0.00  0.00    +0.000 A 
ATOM      9  C   UNL     1       0.547   9.991  20.137  0.00  0.00    +0.000 A 
ATOM     10  C   UNL     1      -0.080  10.675  21.205  0.00  0.00    +0.000 A 
ATOM     11  C   UNL     1      -0.128  10.154  22.496  0.00  0.00    +0.000 A 
ATOM     12  C   UNL     1       0.443   8.919  22.752  0.00  0.00    +0.000 A 
ATOM     13  C   UNL     1       1.055   8.210  21.720  0.00  0.00    +0.000 A 
ATOM     14  C   UNL     1       1.135   8.710  20.394  0.00  0.00    +0.000 A 
BRANCH   8  15
ATOM     15  C   UNL     1       0.019  11.898  18.467  0.00  0.00    +0.000 C 
BRANCH  15  16
ATOM     16  N   UNL     1      -1.419  11.853  18.253  0.00  0.00    +0.000 N 
ATOM     17  C   UNL     1      -2.391  12.238  19.138  0.00  0.00    +0.000 A 
ATOM     18  C   UNL     1      -3.578  11.865  18.550  0.00  0.00    +0.000 A 
ATOM     19  N   UNL     1      -3.352  11.261  17.342  0.00  0.00    +0.000 NA
ATOM     20  C   UNL     1      -2.046  11.269  17.190  0.00  0.00    +0.000 A 
ENDBRANCH  15  16
ENDBRANCH   8  15
ENDBRANCH   2   5
BRANCH   1  26
ATOM     21  C   UNL     1       3.564   3.932  17.790  0.00  0.00    +0.000 A 
ATOM     22  N   UNL     1       3.963   2.628  17.756  0.00  0.00    +0.000 NA
ATOM     23  C   UNL     1       3.198   1.760  18.456  0.00  0.00    +0.000 A 
ATOM     24  C   UNL     1       2.044   2.117  19.133  0.00  0.00    +0.000 A 
ATOM     25  C   UNL     1       1.630   3.455  19.106  0.00  0.00    +0.000 A 
ATOM     26  C   UNL     1       2.408   4.396  18.433  0.00  0.00    +0.000 A 
BRANCH  21  28
ATOM     27  O   UNL     1       4.472   6.076  17.312  0.00  0.00    +0.000 OA
ATOM     28  C   UNL     1       4.397   4.899  16.991  0.00  0.00    +0.000 C 
ATOM     29  N   UNL     1       5.001   4.368  15.872  0.00  0.00    +0.000 N 
ATOM     30  H   UNL     1       4.893   3.366  15.717  0.00  0.00    +0.000 HD
BRANCH  29  31
ATOM     31  C   UNL     1       5.752   5.170  14.934  0.00  0.00    +0.000 C 
BRANCH  31  32
ATOM     32  C   UNL     1       6.494   4.216  14.019  0.00  0.00    +0.000 C 
ATOM     33  C   UNL     1       5.695   3.598  12.840  0.00  0.00    +0.000 C 
ATOM     34  C   UNL     1       6.962   3.762  11.980  0.00  0.00    +0.000 C 
ATOM     35  C   UNL     1       7.390   4.888  12.943  0.00  0.00    +0.000 C 
ENDBRANCH  31  32
ENDBRANCH  29  31
ENDBRANCH  21  28
ENDBRANCH   1  26
TORSDOF 7
ENDMDL
MODEL 8
REMARK VINA RESULT:      -8.2      1.814      2.191
REMARK  Name = 
REMARK  7 active torsions:
REMARK  status: ('A' for Active; 'I' for Inactive)
REMARK    1  A    between atoms: C_2  and  C_9
REMARK    2  A    between atoms: N_3  and  C_4
REMARK    3  A    between atoms: C_4  and  C_5
REMARK    4  A    between atoms: C_14  and  N_15
REMARK    5  A    between atoms: C_16  and  C_18
REMARK    6  A    between atoms: C_21  and  C_22
REMARK    7  A    between atoms: C_22  and  N_23
REMARK                            x       y       z     vdW  Elec       q    Type
REMARK                         _______ _______ _______ _____ _____    ______ ____
ROOT
ATOM      1  N   UNL     1       2.745   6.197  19.990  0.00  0.00    +0.000 N 
ATOM      2  C   UNL     1       2.035   6.692  18.905  0.00  0.00    +0.000 C 
ATOM      3  O   UNL     1       1.673   6.015  17.951  0.00  0.00    +0.000 OA
ATOM      4  H   UNL     1       3.340   6.885  20.461  0.00  0.00    +0.000 HD
ENDROOT
BRANCH   2   5
ATOM      5  C   UNL     1       1.786   8.179  18.965  0.00  0.00    +0.000 A 
ATOM      6  C   UNL     1       2.276   8.932  17.883  0.00  0.00    +0.000 A 
ATOM      7  C   UNL     1       2.085  10.304  17.836  0.00  0.00    +0.000 A 
ATOM      8  C   UNL     1       1.405  10.977  18.863  0.00  0.00    +0.000 A 
ATOM      9  C   UNL     1       0.907  10.243  19.978  0.00  0.00    +0.000 A 
ATOM     10  C   UNL     1       0.218  10.878  21.037  0.00  0.00    +0.000 A 
ATOM     11  C   UNL     1      -0.255  10.176  22.143  0.00  0.00    +0.000 A 
ATOM     12  C   UNL     1      -0.061   8.807  22.214  0.00  0.00    +0.000 A 
ATOM     13  C   UNL     1       0.602   8.147  21.180  0.00  0.00    +0.000 A 
ATOM     14  C   UNL     1       1.108   8.826  20.042  0.00  0.00    +0.000 A 
BRANCH   8  15
ATOM     15  C   UNL     1       1.244  12.480  18.718  0.00  0.00    +0.000 C 
BRANCH  15  16
ATOM     16  N   UNL     1       2.398  13.223  19.202  0.00  0.00    +0.000 N 
ATOM     17  C   UNL     1       2.678  13.542  20.504  0.00  0.00    +0.000 A 
ATOM     18  C   UNL     1       3.775  14.370  20.441  0.00  0.00    +0.000 A 
ATOM     19  N   UNL     1       4.162  14.565  19.142  0.00  0.00    +0.000 NA
ATOM     20  C   UNL     1       3.317  13.863  18.420  0.00  0.00    +0.000 A 
ENDBRANCH  15  16
ENDBRANCH   8  15
ENDBRANCH   2   5
BRANCH   1  26
ATOM     21  C   UNL     1       4.410   4.504  19.377  0.00  0.00    +0.000 A 
ATOM     22  N   UNL     1       4.954   3.253  19.387  0.00  0.00    +0.000 NA
ATOM     23  C   UNL     1       4.329   2.346  20.171  0.00  0.00    +0.000 A 
ATOM     24  C   UNL     1       3.174   2.608  20.889  0.00  0.00    +0.000 A 
ATOM     25  C   UNL     1       2.608   3.887  20.817  0.00  0.00    +0.000 A 
ATOM     26  C   UNL     1       3.240   4.870  20.056  0.00  0.00    +0.000 A 
BRANCH  21  28
ATOM     27  O   UNL     1       5.942   6.265  18.928  0.00  0.00    +0.000 OA
ATOM     28  C   UNL     1       5.087   5.512  18.486  0.00  0.00    +0.000 C 
ATOM     29  N   UNL     1       4.631   5.544  17.186  0.00  0.00    +0.000 N 
ATOM     30  H   UNL     1       3.934   4.850  16.920  0.00  0.00    +0.000 HD
BRANCH  29  31
ATOM     31  C   UNL     1       5.094   6.516  16.221  0.00  0.00    +0.000 C 
BRANCH  31  32
ATOM     32  C   UNL     1       5.744   5.748  15.086  0.00  0.00    +0.000 C 
ATOM     33  C   UNL     1       6.933   4.818  15.449  0.00  0.00    +0.000 C 
ATOM     34  C   UNL     1       6.373   3.812  14.426  0.00  0.00    +0.000 C 
ATOM     35  C   UNL     1       4.993   4.465  14.636  0.00  0.00    +0.000 C 
ENDBRANCH  31  32
ENDBRANCH  29  31
ENDBRANCH  21  28
ENDBRANCH   1  26
TORSDOF 7
ENDMDL
MODEL 9
REMARK VINA RESULT:      -8.2      2.604      3.344
REMARK  Name = 
REMARK  7 active torsions:
REMARK  status: ('A' for Active; 'I' for Inactive)
REMARK    1  A    between atoms: C_2  and  C_9
REMARK    2  A    between atoms: N_3  and  C_4
REMARK    3  A    between atoms: C_4  and  C_5
REMARK    4  A    between atoms: C_14  and  N_15
REMARK    5  A    between atoms: C_16  and  C_18
REMARK    6  A    between atoms: C_21  and  C_22
REMARK    7  A    between atoms: C_22  and  N_23
REMARK                            x       y       z     vdW  Elec       q    Type
REMARK                         _______ _______ _______ _____ _____    ______ ____
ROOT
ATOM      1  N   UNL     1       1.770   6.649  19.627  0.00  0.00    +0.000 N 
ATOM      2  C   UNL     1       1.691   7.686  20.545  0.00  0.00    +0.000 C 
ATOM      3  O   UNL     1       2.168   7.648  21.673  0.00  0.00    +0.000 OA
ATOM      4  H   UNL     1       1.005   6.620  18.947  0.00  0.00    +0.000 HD
ENDROOT
BRANCH   2   5
ATOM      5  C   UNL     1       0.902   8.876  20.056  0.00  0.00    +0.000 A 
ATOM      6  C   UNL     1       0.972   9.138  18.676  0.00  0.00    +0.000 A 
ATOM      7  C   UNL     1       0.271  10.200  18.125  0.00  0.00    +0.000 A 
ATOM      8  C   UNL     1      -0.519  11.040  18.924  0.00  0.00    +0.000 A 
ATOM      9  C   UNL     1      -0.599  10.808  20.327  0.00  0.00    +0.000 A 
ATOM     10  C   UNL     1      -1.379  11.630  21.173  0.00  0.00    +0.000 A 
ATOM     11  C   UNL     1      -1.450  11.426  22.550  0.00  0.00    +0.000 A 
ATOM     12  C   UNL     1      -0.745  10.379  23.119  0.00  0.00    +0.000 A 
ATOM     13  C   UNL     1       0.023   9.541  22.313  0.00  0.00    +0.000 A 
ATOM     14  C   UNL     1       0.130   9.720  20.909  0.00  0.00    +0.000 A 
BRANCH   8  15
ATOM     15  C   UNL     1      -1.250  12.174  18.226  0.00  0.00    +0.000 C 
BRANCH  15  16
ATOM     16  N   UNL     1      -2.515  11.758  17.642  0.00  0.00    +0.000 N 
ATOM     17  C   UNL     1      -3.722  11.665  18.282  0.00  0.00    +0.000 A 
ATOM     18  C   UNL     1      -4.570  11.088  17.366  0.00  0.00    +0.000 A 
ATOM     19  N   UNL     1      -3.912  10.826  16.194  0.00  0.00    +0.000 NA
ATOM     20  C   UNL     1      -2.679  11.239  16.389  0.00  0.00    +0.000 A 
ENDBRANCH  15  16
ENDBRANCH   8  15
ENDBRANCH   2   5
BRANCH   1  26
ATOM     21  C   UNL     1       3.481   4.919  19.320  0.00  0.00    +0.000 A 
ATOM     22  N   UNL     1       4.067   3.710  19.561  0.00  0.00    +0.000 NA
ATOM     23  C   UNL     1       3.481   2.953  20.516  0.00  0.00    +0.000 A 
ATOM     24  C   UNL     1       2.328   3.314  21.191  0.00  0.00    +0.000 A 
ATOM     25  C   UNL     1       1.719   4.538  20.885  0.00  0.00    +0.000 A 
ATOM     26  C   UNL     1       2.309   5.375  19.938  0.00  0.00    +0.000 A 
BRANCH  21  28
ATOM     27  O   UNL     1       3.640   6.839  17.927  0.00  0.00    +0.000 OA
ATOM     28  C   UNL     1       4.114   5.756  18.240  0.00  0.00    +0.000 C 
ATOM     29  N   UNL     1       5.204   5.186  17.619  0.00  0.00    +0.000 N 
ATOM     30  H   UNL     1       5.530   4.291  17.981  0.00  0.00    +0.000 HD
BRANCH  29  31
ATOM     31  C   UNL     1       5.872   5.800  16.494  0.00  0.00    +0.000 C 
BRANCH  31  32
ATOM     32  C   UNL     1       7.223   6.286  16.983  0.00  0.00    +0.000 C 
ATOM     33  C   UNL     1       7.319   7.765  17.443  0.00  0.00    +0.000 C 
ATOM     34  C   UNL     1       8.245   7.284  18.576  0.00  0.00    +0.000 C 
ATOM     35  C   UNL     1       7.578   5.900  18.445  0.00  0.00    +0.000 C 
ENDBRANCH  31  32
ENDBRANCH  29  31
ENDBRANCH  21  28
ENDBRANCH   1  26
TORSDOF 7
ENDMDL
