MODEL 1
REMARK VINA RESULT:      -6.8      0.000      0.000
REMARK  Name = 
REMARK  12 active torsions:
REMARK  status: ('A' for Active; 'I' for Inactive)
REMARK    1  A    between atoms: C_1  and  C_2
REMARK    2  A    between atoms: C_2  and  C_3
REMARK    3  A    between atoms: C_3  and  N_4
REMARK    4  A    between atoms: N_4  and  C_5
REMARK    5  A    between atoms: C_5  and  C_6
REMARK    6  A    between atoms: N_9  and  C_10
REMARK    7  A    between atoms: N_14  and  C_15
REMARK    8  A    between atoms: C_15  and  C_16
REMARK    9  A    between atoms: C_19  and  C_20
REMARK   10  A    between atoms: C_20  and  C_21
REMARK   11  A    between atoms: C_20  and  C_22
REMARK   12  A    between atoms: C_20  and  C_23
REMARK                            x       y       z     vdW  Elec       q    Type
REMARK                         _______ _______ _______ _____ _____    ______ ____
ROOT
ATOM      1  N   UNL     1       3.194   4.116  18.249  0.00  0.00    +0.000 N 
ATOM      2  C   UNL     1       2.463   5.258  17.999  0.00  0.00    +0.000 C 
ATOM      3  O   UNL     1       1.279   5.216  17.656  0.00  0.00    +0.000 OA
ATOM      4  N   UNL     1       3.099   6.452  18.189  0.00  0.00    +0.000 N 
ATOM      5  H   UNL     1       4.089   6.492  17.993  0.00  0.00    +0.000 HD
ENDROOT
BRANCH   1   6
ATOM      6  C   UNL     1       2.504   2.831  18.073  0.00  0.00    +0.000 C 
BRANCH   6   8
ATOM      7  C   UNL     1       1.240   2.920  20.364  0.00  0.00    +0.000 C 
ATOM      8  C   UNL     1       2.042   2.108  19.355  0.00  0.00    +0.000 C 
ENDBRANCH   6   8
ENDBRANCH   1   6
BRANCH   1   9
ATOM      9  C   UNL     1       4.579   4.101  18.749  0.00  0.00    +0.000 C 
BRANCH   9  10
ATOM     10  C   UNL     1       5.609   4.236  17.665  0.00  0.00    +0.000 A 
ATOM     11  C   UNL     1       6.964   4.633  17.853  0.00  0.00    +0.000 A 
ATOM     12  N   UNL     1       7.638   4.771  16.713  0.00  0.00    +0.000 NA
ATOM     13  N   UNL     1       6.728   4.474  15.761  0.00  0.00    +0.000 N 
ATOM     14  C   UNL     1       7.032   4.722  14.376  0.00  0.00    +0.000 C 
ATOM     15  C   UNL     1       5.529   4.071  16.287  0.00  0.00    +0.000 A 
ENDBRANCH   9  10
ENDBRANCH   1   9
BRANCH   4  16
ATOM     16  C   UNL     1       2.377   7.674  17.910  0.00  0.00    +0.000 C 
BRANCH  16  17
ATOM     17  C   UNL     1       1.848   8.261  19.176  0.00  0.00    +0.000 A 
ATOM     18  C   UNL     1       1.861   7.639  20.409  0.00  0.00    +0.000 A 
ATOM     19  S   UNL     1       1.091   8.616  21.576  0.00  0.00    +0.000 S 
ATOM     20  C   UNL     1       0.779   9.814  20.369  0.00  0.00    +0.000 A 
ATOM     21  N   UNL     1       1.240   9.513  19.167  0.00  0.00    +0.000 NA
BRANCH  20  22
ATOM     22  C   UNL     1       0.003  11.087  20.704  0.00  0.00    +0.000 C 
ATOM     23  C   UNL     1      -1.141  11.319  19.699  0.00  0.00    +0.000 C 
ATOM     24  C   UNL     1      -0.610  10.970  22.115  0.00  0.00    +0.000 C 
ATOM     25  C   UNL     1       0.939  12.313  20.693  0.00  0.00    +0.000 C 
ENDBRANCH  20  22
ENDBRANCH  16  17
ENDBRANCH   4  16
TORSDOF 7
ENDMDL
MODEL 2
REMARK VINA RESULT:      -6.4      1.664      4.018
REMARK  Name = 
REMARK  12 active torsions:
REMARK  status: ('A' for Active; 'I' for Inactive)
REMARK    1  A    between atoms: C_1  and  C_2
REMARK    2  A    between atoms: C_2  and  C_3
REMARK    3  A    between atoms: C_3  and  N_4
REMARK    4  A    between atoms: N_4  and  C_5
REMARK    5  A    between atoms: C_5  and  C_6
REMARK    6  A    between atoms: N_9  and  C_10
REMARK    7  A    between atoms: N_14  and  C_15
REMARK    8  A    between atoms: C_15  and  C_16
REMARK    9  A    between atoms: C_19  and  C_20
REMARK   10  A    between atoms: C_20  and  C_21
REMARK   11  A    between atoms: C_20  and  C_22
REMARK   12  A    between atoms: C_20  and  C_23
REMARK                            x       y       z     vdW  Elec       q    Type
REMARK                         _______ _______ _______ _____ _____    ______ ____
ROOT
ATOM      1  N   UNL     1       4.857   4.914  17.170  0.00  0.00    +0.000 N 
ATOM      2  C   UNL     1       4.580   6.264  17.239  0.00  0.00    +0.000 C 
ATOM      3  O   UNL     1       5.454   7.121  17.093  0.00  0.00    +0.000 OA
ATOM      4  N   UNL     1       3.275   6.616  17.437  0.00  0.00    +0.000 N 
ATOM      5  H   UNL     1       2.705   6.003  18.003  0.00  0.00    +0.000 HD
ENDROOT
BRANCH   1   6
ATOM      6  C   UNL     1       6.256   4.534  16.928  0.00  0.00    +0.000 C 
BRANCH   6   8
ATOM      7  C   UNL     1       6.177   3.873  14.396  0.00  0.00    +0.000 C 
ATOM      8  C   UNL     1       6.792   4.730  15.495  0.00  0.00    +0.000 C 
ENDBRANCH   6   8
ENDBRANCH   1   6
BRANCH   1   9
ATOM      9  C   UNL     1       3.846   3.847  17.243  0.00  0.00    +0.000 C 
BRANCH   9  10
ATOM     10  C   UNL     1       3.495   3.450  18.648  0.00  0.00    +0.000 A 
ATOM     11  C   UNL     1       4.323   2.698  19.529  0.00  0.00    +0.000 A 
ATOM     12  N   UNL     1       3.730   2.396  20.684  0.00  0.00    +0.000 NA
ATOM     13  N   UNL     1       2.500   2.940  20.568  0.00  0.00    +0.000 N 
ATOM     14  C   UNL     1       1.487   2.635  21.544  0.00  0.00    +0.000 C 
ATOM     15  C   UNL     1       2.345   3.647  19.405  0.00  0.00    +0.000 A 
ENDBRANCH   9  10
ENDBRANCH   1   9
BRANCH   4  16
ATOM     16  C   UNL     1       2.944   8.020  17.545  0.00  0.00    +0.000 C 
BRANCH  16  17
ATOM     17  C   UNL     1       2.234   8.285  18.831  0.00  0.00    +0.000 A 
ATOM     18  C   UNL     1       2.147   7.403  19.890  0.00  0.00    +0.000 A 
ATOM     19  S   UNL     1       1.184   8.061  21.134  0.00  0.00    +0.000 S 
ATOM     20  C   UNL     1       0.932   9.486  20.187  0.00  0.00    +0.000 A 
ATOM     21  N   UNL     1       1.548   9.481  19.018  0.00  0.00    +0.000 NA
BRANCH  20  22
ATOM     22  C   UNL     1       0.039  10.620  20.691  0.00  0.00    +0.000 C 
ATOM     23  C   UNL     1       0.831  11.934  20.816  0.00  0.00    +0.000 C 
ATOM     24  C   UNL     1      -1.123  10.848  19.701  0.00  0.00    +0.000 C 
ATOM     25  C   UNL     1      -0.569  10.264  22.062  0.00  0.00    +0.000 C 
ENDBRANCH  20  22
ENDBRANCH  16  17
ENDBRANCH   4  16
TORSDOF 7
ENDMDL
MODEL 3
REMARK VINA RESULT:      -6.4      1.472      3.700
REMARK  Name = 
REMARK  12 active torsions:
REMARK  status: ('A' for Active; 'I' for Inactive)
REMARK    1  A    between atoms: C_1  and  C_2
REMARK    2  A    between atoms: C_2  and  C_3
REMARK    3  A    between atoms: C_3  and  N_4
REMARK    4  A    between atoms: N_4  and  C_5
REMARK    5  A    between atoms: C_5  and  C_6
REMARK    6  A    between atoms: N_9  and  C_10
REMARK    7  A    between atoms: N_14  and  C_15
REMARK    8  A    between atoms: C_15  and  C_16
REMARK    9  A    between atoms: C_19  and  C_20
REMARK   10  A    between atoms: C_20  and  C_21
REMARK   11  A    between atoms: C_20  and  C_22
REMARK   12  A    between atoms: C_20  and  C_23
REMARK                            x       y       z     vdW  Elec       q    Type
REMARK                         _______ _______ _______ _____ _____    ______ ____
ROOT
ATOM      1  N   UNL     1       5.467   5.426  17.835  0.00  0.00    +0.000 N 
ATOM      2  C   UNL     1       4.609   6.435  17.450  0.00  0.00    +0.000 C 
ATOM      3  O   UNL     1       4.802   7.109  16.437  0.00  0.00    +0.000 OA
ATOM      4  N   UNL     1       3.501   6.632  18.225  0.00  0.00    +0.000 N 
ATOM      5  H   UNL     1       3.585   6.457  19.217  0.00  0.00    +0.000 HD
ENDROOT
BRANCH   1   6
ATOM      6  C   UNL     1       6.644   5.194  16.988  0.00  0.00    +0.000 C 
BRANCH   6   8
ATOM      7  C   UNL     1       6.482   4.552  14.455  0.00  0.00    +0.000 C 
ATOM      8  C   UNL     1       6.520   4.099  15.909  0.00  0.00    +0.000 C 
ENDBRANCH   6   8
ENDBRANCH   1   6
BRANCH   1   9
ATOM      9  C   UNL     1       5.243   4.528  18.980  0.00  0.00    +0.000 C 
BRANCH   9  10
ATOM     10  C   UNL     1       4.057   3.623  18.809  0.00  0.00    +0.000 A 
ATOM     11  C   UNL     1       3.843   2.734  17.717  0.00  0.00    +0.000 A 
ATOM     12  N   UNL     1       2.661   2.120  17.759  0.00  0.00    +0.000 NA
ATOM     13  N   UNL     1       2.082   2.609  18.875  0.00  0.00    +0.000 N 
ATOM     14  C   UNL     1       0.693   2.336  19.141  0.00  0.00    +0.000 C 
ATOM     15  C   UNL     1       2.910   3.446  19.575  0.00  0.00    +0.000 A 
ENDBRANCH   9  10
ENDBRANCH   1   9
BRANCH   4  16
ATOM     16  C   UNL     1       2.589   7.698  17.874  0.00  0.00    +0.000 C 
BRANCH  16  17
ATOM     17  C   UNL     1       1.952   8.258  19.103  0.00  0.00    +0.000 A 
ATOM     18  C   UNL     1       1.857   7.608  20.318  0.00  0.00    +0.000 A 
ATOM     19  S   UNL     1       0.990   8.561  21.435  0.00  0.00    +0.000 S 
ATOM     20  C   UNL     1       0.786   9.787  20.233  0.00  0.00    +0.000 A 
ATOM     21  N   UNL     1       1.349   9.511  19.070  0.00  0.00    +0.000 NA
BRANCH  20  22
ATOM     22  C   UNL     1      -0.015  11.055  20.529  0.00  0.00    +0.000 C 
ATOM     23  C   UNL     1      -1.170  11.227  19.524  0.00  0.00    +0.000 C 
ATOM     24  C   UNL     1      -0.616  10.975  21.948  0.00  0.00    +0.000 C 
ATOM     25  C   UNL     1       0.895  12.298  20.469  0.00  0.00    +0.000 C 
ENDBRANCH  20  22
ENDBRANCH  16  17
ENDBRANCH   4  16
TORSDOF 7
ENDMDL
MODEL 4
REMARK VINA RESULT:      -6.4      1.775      2.566
REMARK  Name = 
REMARK  12 active torsions:
REMARK  status: ('A' for Active; 'I' for Inactive)
REMARK    1  A    between atoms: C_1  and  C_2
REMARK    2  A    between atoms: C_2  and  C_3
REMARK    3  A    between atoms: C_3  and  N_4
REMARK    4  A    between atoms: N_4  and  C_5
REMARK    5  A    between atoms: C_5  and  C_6
REMARK    6  A    between atoms: N_9  and  C_10
REMARK    7  A    between atoms: N_14  and  C_15
REMARK    8  A    between atoms: C_15  and  C_16
REMARK    9  A    between atoms: C_19  and  C_20
REMARK   10  A    between atoms: C_20  and  C_21
REMARK   11  A    between atoms: C_20  and  C_22
REMARK   12  A    between atoms: C_20  and  C_23
REMARK                            x       y       z     vdW  Elec       q    Type
REMARK                         _______ _______ _______ _____ _____    ______ ____
ROOT
ATOM      1  N   UNL     1       3.251   5.858  18.825  0.00  0.00    +0.000 N 
ATOM      2  C   UNL     1       2.462   6.226  19.895  0.00  0.00    +0.000 C 
ATOM      3  O   UNL     1       2.134   5.425  20.773  0.00  0.00    +0.000 OA
ATOM      4  N   UNL     1       2.086   7.538  19.962  0.00  0.00    +0.000 N 
ATOM      5  H   UNL     1       1.934   8.028  19.092  0.00  0.00    +0.000 HD
ENDROOT
BRANCH   1   6
ATOM      6  C   UNL     1       3.679   4.454  18.765  0.00  0.00    +0.000 C 
BRANCH   6   8
ATOM      7  C   UNL     1       3.220   2.033  17.882  0.00  0.00    +0.000 C 
ATOM      8  C   UNL     1       2.752   3.476  18.014  0.00  0.00    +0.000 C 
ENDBRANCH   6   8
ENDBRANCH   1   6
BRANCH   1   9
ATOM      9  C   UNL     1       3.752   6.785  17.797  0.00  0.00    +0.000 C 
BRANCH   9  10
ATOM     10  C   UNL     1       4.971   6.282  17.079  0.00  0.00    +0.000 A 
ATOM     11  C   UNL     1       6.317   6.641  17.378  0.00  0.00    +0.000 A 
ATOM     12  N   UNL     1       7.202   6.132  16.523  0.00  0.00    +0.000 NA
ATOM     13  N   UNL     1       6.445   5.440  15.646  0.00  0.00    +0.000 N 
ATOM     14  C   UNL     1       7.037   4.920  14.442  0.00  0.00    +0.000 C 
ATOM     15  C   UNL     1       5.118   5.435  15.986  0.00  0.00    +0.000 A 
ENDBRANCH   9  10
ENDBRANCH   1   9
BRANCH   4  16
ATOM     16  C   UNL     1       1.234   7.960  21.052  0.00  0.00    +0.000 C 
BRANCH  16  17
ATOM     17  C   UNL     1       0.753   9.354  20.820  0.00  0.00    +0.000 A 
ATOM     18  C   UNL     1       1.003  10.431  21.647  0.00  0.00    +0.000 A 
ATOM     19  S   UNL     1       0.211  11.824  21.064  0.00  0.00    +0.000 S 
ATOM     20  C   UNL     1      -0.427  10.910  19.743  0.00  0.00    +0.000 A 
ATOM     21  N   UNL     1      -0.055   9.642  19.724  0.00  0.00    +0.000 NA
BRANCH  20  22
ATOM     22  C   UNL     1      -1.366  11.552  18.721  0.00  0.00    +0.000 C 
ATOM     23  C   UNL     1      -2.663  12.041  19.392  0.00  0.00    +0.000 C 
ATOM     24  C   UNL     1      -0.673  12.765  18.065  0.00  0.00    +0.000 C 
ATOM     25  C   UNL     1      -1.723  10.549  17.605  0.00  0.00    +0.000 C 
ENDBRANCH  20  22
ENDBRANCH  16  17
ENDBRANCH   4  16
TORSDOF 7
ENDMDL
MODEL 5
REMARK VINA RESULT:      -6.4      2.792      8.291
REMARK  Name = 
REMARK  12 active torsions:
REMARK  status: ('A' for Active; 'I' for Inactive)
REMARK    1  A    between atoms: C_1  and  C_2
REMARK    2  A    between atoms: C_2  and  C_3
REMARK    3  A    between atoms: C_3  and  N_4
REMARK    4  A    between atoms: N_4  and  C_5
REMARK    5  A    between atoms: C_5  and  C_6
REMARK    6  A    between atoms: N_9  and  C_10
REMARK    7  A    between atoms: N_14  and  C_15
REMARK    8  A    between atoms: C_15  and  C_16
REMARK    9  A    between atoms: C_19  and  C_20
REMARK   10  A    between atoms: C_20  and  C_21
REMARK   11  A    between atoms: C_20  and  C_22
REMARK   12  A    between atoms: C_20  and  C_23
REMARK                            x       y       z     vdW  Elec       q    Type
REMARK                         _______ _______ _______ _____ _____    ______ ____
ROOT
ATOM      1  N   UNL     1       0.679   9.724  19.193  0.00  0.00    +0.000 N 
ATOM      2  C   UNL     1       1.625   9.236  18.316  0.00  0.00    +0.000 C 
ATOM      3  O   UNL     1       1.837   9.760  17.221  0.00  0.00    +0.000 OA
ATOM      4  N   UNL     1       2.354   8.158  18.733  0.00  0.00    +0.000 N 
ATOM      5  H   UNL     1       1.897   7.486  19.333  0.00  0.00    +0.000 HD
ENDROOT
BRANCH   1   6
ATOM      6  C   UNL     1      -0.087  10.900  18.758  0.00  0.00    +0.000 C 
BRANCH   6   8
ATOM      7  C   UNL     1      -1.819   9.867  17.089  0.00  0.00    +0.000 C 
ATOM      8  C   UNL     1      -1.559  10.663  18.361  0.00  0.00    +0.000 C 
ENDBRANCH   6   8
ENDBRANCH   1   6
BRANCH   1   9
ATOM      9  C   UNL     1       0.444   9.201  20.549  0.00  0.00    +0.000 C 
BRANCH   9  10
ATOM     10  C   UNL     1      -0.003  10.249  21.527  0.00  0.00    +0.000 A 
ATOM     11  C   UNL     1      -0.737  10.008  22.723  0.00  0.00    +0.000 A 
ATOM     12  N   UNL     1      -1.094  11.123  23.358  0.00  0.00    +0.000 NA
ATOM     13  N   UNL     1      -0.606  12.110  22.578  0.00  0.00    +0.000 N 
ATOM     14  C   UNL     1      -0.982  13.476  22.833  0.00  0.00    +0.000 C 
ATOM     15  C   UNL     1       0.121  11.634  21.520  0.00  0.00    +0.000 A 
ENDBRANCH   9  10
ENDBRANCH   1   9
BRANCH   4  16
ATOM     16  C   UNL     1       3.337   7.595  17.834  0.00  0.00    +0.000 C 
BRANCH  16  17
ATOM     17  C   UNL     1       3.420   6.116  18.020  0.00  0.00    +0.000 A 
ATOM     18  C   UNL     1       4.197   5.260  17.266  0.00  0.00    +0.000 A 
ATOM     19  S   UNL     1       3.945   3.645  17.751  0.00  0.00    +0.000 S 
ATOM     20  C   UNL     1       2.808   4.178  18.939  0.00  0.00    +0.000 A 
ATOM     21  N   UNL     1       2.639   5.488  18.986  0.00  0.00    +0.000 NA
BRANCH  20  22
ATOM     22  C   UNL     1       2.060   3.177  19.819  0.00  0.00    +0.000 C 
ATOM     23  C   UNL     1       0.769   3.796  20.388  0.00  0.00    +0.000 C 
ATOM     24  C   UNL     1       1.674   1.935  18.987  0.00  0.00    +0.000 C 
ATOM     25  C   UNL     1       2.951   2.708  20.987  0.00  0.00    +0.000 C 
ENDBRANCH  20  22
ENDBRANCH  16  17
ENDBRANCH   4  16
TORSDOF 7
ENDMDL
MODEL 6
REMARK VINA RESULT:      -6.4      1.541      1.795
REMARK  Name = 
REMARK  12 active torsions:
REMARK  status: ('A' for Active; 'I' for Inactive)
REMARK    1  A    between atoms: C_1  and  C_2
REMARK    2  A    between atoms: C_2  and  C_3
REMARK    3  A    between atoms: C_3  and  N_4
REMARK    4  A    between atoms: N_4  and  C_5
REMARK    5  A    between atoms: C_5  and  C_6
REMARK    6  A    between atoms: N_9  and  C_10
REMARK    7  A    between atoms: N_14  and  C_15
REMARK    8  A    between atoms: C_15  and  C_16
REMARK    9  A    between atoms: C_19  and  C_20
REMARK   10  A    between atoms: C_20  and  C_21
REMARK   11  A    between atoms: C_20  and  C_22
REMARK   12  A    between atoms: C_20  and  C_23
REMARK                            x       y       z     vdW  Elec       q    Type
REMARK                         _______ _______ _______ _____ _____    ______ ____
ROOT
ATOM      1  N   UNL     1       4.335   4.146  19.573  0.00  0.00    +0.000 N 
ATOM      2  C   UNL     1       3.157   4.705  20.022  0.00  0.00    +0.000 C 
ATOM      3  O   UNL     1       2.193   4.016  20.363  0.00  0.00    +0.000 OA
ATOM      4  N   UNL     1       3.115   6.067  20.112  0.00  0.00    +0.000 N 
ATOM      5  H   UNL     1       3.644   6.599  19.434  0.00  0.00    +0.000 HD
ENDROOT
BRANCH   1   6
ATOM      6  C   UNL     1       4.392   2.679  19.502  0.00  0.00    +0.000 C 
BRANCH   6   8
ATOM      7  C   UNL     1       2.802   2.417  17.439  0.00  0.00    +0.000 C 
ATOM      8  C   UNL     1       3.192   1.969  18.841  0.00  0.00    +0.000 C 
ENDBRANCH   6   8
ENDBRANCH   1   6
BRANCH   1   9
ATOM      9  C   UNL     1       5.550   4.908  19.239  0.00  0.00    +0.000 C 
BRANCH   9  10
ATOM     10  C   UNL     1       6.087   4.609  17.869  0.00  0.00    +0.000 A 
ATOM     11  C   UNL     1       7.465   4.570  17.510  0.00  0.00    +0.000 A 
ATOM     12  N   UNL     1       7.666   4.381  16.206  0.00  0.00    +0.000 NA
ATOM     13  N   UNL     1       6.420   4.305  15.694  0.00  0.00    +0.000 N 
ATOM     14  C   UNL     1       6.229   4.316  14.267  0.00  0.00    +0.000 C 
ATOM     15  C   UNL     1       5.450   4.354  16.660  0.00  0.00    +0.000 A 
ENDBRANCH   9  10
ENDBRANCH   1   9
BRANCH   4  16
ATOM     16  C   UNL     1       1.889   6.697  20.551  0.00  0.00    +0.000 C 
BRANCH  16  17
ATOM     17  C   UNL     1       1.653   7.956  19.784  0.00  0.00    +0.000 A 
ATOM     18  C   UNL     1       2.120   8.213  18.511  0.00  0.00    +0.000 A 
ATOM     19  S   UNL     1       1.696   9.794  18.030  0.00  0.00    +0.000 S 
ATOM     20  C   UNL     1       0.915  10.048  19.551  0.00  0.00    +0.000 A 
ATOM     21  N   UNL     1       0.950   9.007  20.365  0.00  0.00    +0.000 NA
BRANCH  20  22
ATOM     22  C   UNL     1       0.276  11.394  19.894  0.00  0.00    +0.000 C 
ATOM     23  C   UNL     1      -1.052  11.584  19.137  0.00  0.00    +0.000 C 
ATOM     24  C   UNL     1      -0.017  11.463  21.408  0.00  0.00    +0.000 C 
ATOM     25  C   UNL     1       1.229  12.554  19.541  0.00  0.00    +0.000 C 
ENDBRANCH  20  22
ENDBRANCH  16  17
ENDBRANCH   4  16
TORSDOF 7
ENDMDL
MODEL 7
REMARK VINA RESULT:      -6.4      2.000      4.189
REMARK  Name = 
REMARK  12 active torsions:
REMARK  status: ('A' for Active; 'I' for Inactive)
REMARK    1  A    between atoms: C_1  and  C_2
REMARK    2  A    between atoms: C_2  and  C_3
REMARK    3  A    between atoms: C_3  and  N_4
REMARK    4  A    between atoms: N_4  and  C_5
REMARK    5  A    between atoms: C_5  and  C_6
REMARK    6  A    between atoms: N_9  and  C_10
REMARK    7  A    between atoms: N_14  and  C_15
REMARK    8  A    between atoms: C_15  and  C_16
REMARK    9  A    between atoms: C_19  and  C_20
REMARK   10  A    between atoms: C_20  and  C_21
REMARK   11  A    between atoms: C_20  and  C_22
REMARK   12  A    between atoms: C_20  and  C_23
REMARK                            x       y       z     vdW  Elec       q    Type
REMARK                         _______ _______ _______ _____ _____    ______ ____
ROOT
ATOM      1  N   UNL     1       4.865   5.837  18.250  0.00  0.00    +0.000 N 
ATOM      2  C   UNL     1       4.171   6.834  17.597  0.00  0.00    +0.000 C 
ATOM      3  O   UNL     1       4.463   7.198  16.457  0.00  0.00    +0.000 OA
ATOM      4  N   UNL     1       3.108   7.380  18.260  0.00  0.00    +0.000 N 
ATOM      5  H   UNL     1       3.166   7.447  19.266  0.00  0.00    +0.000 HD
ENDROOT
BRANCH   1   6
ATOM      6  C   UNL     1       5.991   5.228  17.528  0.00  0.00    +0.000 C 
BRANCH   6   8
ATOM      7  C   UNL     1       7.785   7.049  18.094  0.00  0.00    +0.000 C 
ATOM      8  C   UNL     1       7.408   5.574  18.032  0.00  0.00    +0.000 C 
ENDBRANCH   6   8
ENDBRANCH   1   6
BRANCH   1   9
ATOM      9  C   UNL     1       4.508   5.295  19.572  0.00  0.00    +0.000 C 
BRANCH   9  10
ATOM     10  C   UNL     1       3.178   4.599  19.596  0.00  0.00    +0.000 A 
ATOM     11  C   UNL     1       2.206   4.704  20.631  0.00  0.00    +0.000 A 
ATOM     12  N   UNL     1       1.156   3.903  20.454  0.00  0.00    +0.000 NA
ATOM     13  N   UNL     1       1.433   3.256  19.302  0.00  0.00    +0.000 N 
ATOM     14  C   UNL     1       0.619   2.142  18.893  0.00  0.00    +0.000 C 
ATOM     15  C   UNL     1       2.589   3.699  18.715  0.00  0.00    +0.000 A 
ENDBRANCH   9  10
ENDBRANCH   1   9
BRANCH   4  16
ATOM     16  C   UNL     1       2.369   8.449  17.624  0.00  0.00    +0.000 C 
BRANCH  16  17
ATOM     17  C   UNL     1       1.481   9.123  18.616  0.00  0.00    +0.000 A 
ATOM     18  C   UNL     1       1.371   8.781  19.950  0.00  0.00    +0.000 A 
ATOM     19  S   UNL     1       0.192   9.745  20.716  0.00  0.00    +0.000 S 
ATOM     20  C   UNL     1      -0.111  10.563  19.223  0.00  0.00    +0.000 A 
ATOM     21  N   UNL     1       0.638  10.155  18.214  0.00  0.00    +0.000 NA
BRANCH  20  22
ATOM     22  C   UNL     1      -1.189  11.642  19.120  0.00  0.00    +0.000 C 
ATOM     23  C   UNL     1      -0.664  12.879  18.368  0.00  0.00    +0.000 C 
ATOM     24  C   UNL     1      -2.409  11.091  18.351  0.00  0.00    +0.000 C 
ATOM     25  C   UNL     1      -1.666  12.070  20.523  0.00  0.00    +0.000 C 
ENDBRANCH  20  22
ENDBRANCH  16  17
ENDBRANCH   4  16
TORSDOF 7
ENDMDL
MODEL 8
REMARK VINA RESULT:      -6.4      1.039      1.491
REMARK  Name = 
REMARK  12 active torsions:
REMARK  status: ('A' for Active; 'I' for Inactive)
REMARK    1  A    between atoms: C_1  and  C_2
REMARK    2  A    between atoms: C_2  and  C_3
REMARK    3  A    between atoms: C_3  and  N_4
REMARK    4  A    between atoms: N_4  and  C_5
REMARK    5  A    between atoms: C_5  and  C_6
REMARK    6  A    between atoms: N_9  and  C_10
REMARK    7  A    between atoms: N_14  and  C_15
REMARK    8  A    between atoms: C_15  and  C_16
REMARK    9  A    between atoms: C_19  and  C_20
REMARK   10  A    between atoms: C_20  and  C_21
REMARK   11  A    between atoms: C_20  and  C_22
REMARK   12  A    between atoms: C_20  and  C_23
REMARK                            x       y       z     vdW  Elec       q    Type
REMARK                         _______ _______ _______ _____ _____    ______ ____
ROOT
ATOM      1  N   UNL     1       4.094   4.683  19.256  0.00  0.00    +0.000 N 
ATOM      2  C   UNL     1       3.001   5.463  18.942  0.00  0.00    +0.000 C 
ATOM      3  O   UNL     1       1.849   5.026  18.985  0.00  0.00    +0.000 OA
ATOM      4  N   UNL     1       3.247   6.767  18.615  0.00  0.00    +0.000 N 
ATOM      5  H   UNL     1       4.111   6.975  18.134  0.00  0.00    +0.000 HD
ENDROOT
BRANCH   1   6
ATOM      6  C   UNL     1       3.829   3.288  19.635  0.00  0.00    +0.000 C 
BRANCH   6   8
ATOM      7  C   UNL     1       2.637   2.080  17.642  0.00  0.00    +0.000 C 
ATOM      8  C   UNL     1       3.882   2.239  18.505  0.00  0.00    +0.000 C 
ENDBRANCH   6   8
ENDBRANCH   1   6
BRANCH   1   9
ATOM      9  C   UNL     1       5.482   5.170  19.313  0.00  0.00    +0.000 C 
BRANCH   9  10
ATOM     10  C   UNL     1       6.148   5.240  17.969  0.00  0.00    +0.000 A 
ATOM     11  C   UNL     1       7.020   6.276  17.528  0.00  0.00    +0.000 A 
ATOM     12  N   UNL     1       7.393   6.148  16.256  0.00  0.00    +0.000 NA
ATOM     13  N   UNL     1       6.760   5.029  15.844  0.00  0.00    +0.000 N 
ATOM     14  C   UNL     1       6.752   4.684  14.446  0.00  0.00    +0.000 C 
ATOM     15  C   UNL     1       6.073   4.412  16.855  0.00  0.00    +0.000 A 
ENDBRANCH   9  10
ENDBRANCH   1   9
BRANCH   4  16
ATOM     16  C   UNL     1       2.132   7.613  18.250  0.00  0.00    +0.000 C 
BRANCH  16  17
ATOM     17  C   UNL     1       1.663   8.388  19.436  0.00  0.00    +0.000 A 
ATOM     18  C   UNL     1       1.654   7.926  20.737  0.00  0.00    +0.000 A 
ATOM     19  S   UNL     1       0.969   9.092  21.777  0.00  0.00    +0.000 S 
ATOM     20  C   UNL     1       0.718  10.147  20.431  0.00  0.00    +0.000 A 
ATOM     21  N   UNL     1       1.139   9.667  19.274  0.00  0.00    +0.000 NA
BRANCH  20  22
ATOM     22  C   UNL     1       0.033  11.502  20.608  0.00  0.00    +0.000 C 
ATOM     23  C   UNL     1       1.009  12.657  20.315  0.00  0.00    +0.000 C 
ATOM     24  C   UNL     1      -1.159  11.617  19.635  0.00  0.00    +0.000 C 
ATOM     25  C   UNL     1      -0.510  11.653  22.044  0.00  0.00    +0.000 C 
ENDBRANCH  20  22
ENDBRANCH  16  17
ENDBRANCH   4  16
TORSDOF 7
ENDMDL
MODEL 9
REMARK VINA RESULT:      -6.3      2.469      3.638
REMARK  Name = 
REMARK  12 active torsions:
REMARK  status: ('A' for Active; 'I' for Inactive)
REMARK    1  A    between atoms: C_1  and  C_2
REMARK    2  A    between atoms: C_2  and  C_3
REMARK    3  A    between atoms: C_3  and  N_4
REMARK    4  A    between atoms: N_4  and  C_5
REMARK    5  A    between atoms: C_5  and  C_6
REMARK    6  A    between atoms: N_9  and  C_10
REMARK    7  A    between atoms: N_14  and  C_15
REMARK    8  A    between atoms: C_15  and  C_16
REMARK    9  A    between atoms: C_19  and  C_20
REMARK   10  A    between atoms: C_20  and  C_21
REMARK   11  A    between atoms: C_20  and  C_22
REMARK   12  A    between atoms: C_20  and  C_23
REMARK                            x       y       z     vdW  Elec       q    Type
REMARK                         _______ _______ _______ _____ _____    ______ ____
ROOT
ATOM      1  N   UNL     1       2.303   6.509  19.450  0.00  0.00    +0.000 N 
ATOM      2  C   UNL     1       1.812   7.561  20.195  0.00  0.00    +0.000 C 
ATOM      3  O   UNL     1       1.605   7.466  21.406  0.00  0.00    +0.000 OA
ATOM      4  N   UNL     1       1.600   8.738  19.534  0.00  0.00    +0.000 N 
ATOM      5  H   UNL     1       1.310   8.688  18.568  0.00  0.00    +0.000 HD
ENDROOT
BRANCH   1   6
ATOM      6  C   UNL     1       2.558   5.250  20.164  0.00  0.00    +0.000 C 
BRANCH   6   8
ATOM      7  C   UNL     1       1.046   3.271  19.359  0.00  0.00    +0.000 C 
ATOM      8  C   UNL     1       1.343   4.332  20.411  0.00  0.00    +0.000 C 
ENDBRANCH   6   8
ENDBRANCH   1   6
BRANCH   1   9
ATOM      9  C   UNL     1       2.657   6.586  18.023  0.00  0.00    +0.000 C 
BRANCH   9  10
ATOM     10  C   UNL     1       3.871   5.780  17.662  0.00  0.00    +0.000 A 
ATOM     11  C   UNL     1       3.861   4.461  17.124  0.00  0.00    +0.000 A 
ATOM     12  N   UNL     1       5.078   3.936  16.990  0.00  0.00    +0.000 NA
ATOM     13  N   UNL     1       5.900   4.902  17.449  0.00  0.00    +0.000 N 
ATOM     14  C   UNL     1       7.295   4.615  17.661  0.00  0.00    +0.000 C 
ATOM     15  C   UNL     1       5.230   6.049  17.784  0.00  0.00    +0.000 A 
ENDBRANCH   9  10
ENDBRANCH   1   9
BRANCH   4  16
ATOM     16  C   UNL     1       1.058   9.859  20.271  0.00  0.00    +0.000 C 
BRANCH  16  17
ATOM     17  C   UNL     1       0.155  10.663  19.395  0.00  0.00    +0.000 A 
ATOM     18  C   UNL     1       0.268  12.021  19.167  0.00  0.00    +0.000 A 
ATOM     19  S   UNL     1      -1.005  12.564  18.171  0.00  0.00    +0.000 S 
ATOM     20  C   UNL     1      -1.639  10.957  18.103  0.00  0.00    +0.000 A 
ATOM     21  N   UNL     1      -0.931  10.061  18.769  0.00  0.00    +0.000 NA
BRANCH  20  22
ATOM     22  C   UNL     1      -2.932  10.651  17.348  0.00  0.00    +0.000 C 
ATOM     23  C   UNL     1      -3.550   9.322  17.823  0.00  0.00    +0.000 C 
ATOM     24  C   UNL     1      -3.959  11.776  17.592  0.00  0.00    +0.000 C 
ATOM     25  C   UNL     1      -2.669  10.569  15.830  0.00  0.00    +0.000 C 
ENDBRANCH  20  22
ENDBRANCH  16  17
ENDBRANCH   4  16
TORSDOF 7
ENDMDL
