MODEL 1
REMARK VINA RESULT:      -6.1      0.000      0.000
REMARK  Name = 
REMARK  10 active torsions:
REMARK  status: ('A' for Active; 'I' for Inactive)
REMARK    1  A    between atoms: N_1  and  CA_2
REMARK    2  A    between atoms: CA_2  and  C_3
REMARK    3  A    between atoms: N_5  and  CA_6
REMARK    4  A    between atoms: CA_6  and  C_7
REMARK    5  A    between atoms: N_9  and  CA_10
REMARK    6  A    between atoms: CA_10  and  CB_11
REMARK    7  A    between atoms: CA_10  and  C_15
REMARK    8  A    between atoms: CB_11  and  CG_12
REMARK    9  A    between atoms: CG_12  and  OD2_14
REMARK   10  A    between atoms: C_15  and  OXT_17
REMARK                            x       y       z     vdW  Elec       q    Type
REMARK                         _______ _______ _______ _____ _____    ______ ____
ROOT
ATOM      1  C   GLY A   2       4.170   3.880  17.404  0.00  0.00    +0.000 C 
ATOM      2  O   GLY A   2       3.384   4.820  17.330  0.00  0.00    +0.000 OA
ATOM      3  N   ASP A   3       5.434   3.924  16.864  0.00  0.00    +0.000 N 
ATOM      4  H   ASP A   3       5.926   3.039  16.720  0.00  0.00    +0.000 HD
ENDROOT
BRANCH   1   5
ATOM      5  CA  GLY A   2       3.802   2.546  18.053  0.00  0.00    +0.000 C 
BRANCH   5   8
ATOM      6  C   GLY A   1       1.819   2.539  19.505  0.00  0.00    +0.000 C 
ATOM      7  O   GLY A   1       1.100   2.062  18.632  0.00  0.00    +0.000 OA
ATOM      8  N   GLY A   2       3.163   2.771  19.324  0.00  0.00    +0.000 N 
ATOM      9  H   GLY A   2       3.606   3.362  20.025  0.00  0.00    +0.000 HD
BRANCH   6  10
ATOM     10  CA  GLY A   1       1.317   2.903  20.904  0.00  0.00    +0.000 C 
BRANCH  10  11
ATOM     11  N   GLY A   1       2.194   3.917  21.523  0.00  0.00    +0.000 NA
ATOM     12  H1  GLY A   1       1.673   4.792  21.582  0.00  0.00    +0.000 HD
ATOM     13  H2  GLY A   1       2.966   4.102  20.883  0.00  0.00    +0.000 HD
ENDBRANCH  10  11
ENDBRANCH   6  10
ENDBRANCH   5   8
ENDBRANCH   1   5
BRANCH   3  14
ATOM     14  CA  ASP A   3       5.977   5.121  16.208  0.00  0.00    +0.000 C 
BRANCH  14  15
ATOM     15  C   ASP A   3       6.695   4.652  14.931  0.00  0.00    +0.000 C 
ATOM     16  O   ASP A   3       7.591   5.291  14.391  0.00  0.00    +0.000 OA
BRANCH  15  17
ATOM     17  OXT ASP A   3       6.255   3.477  14.428  0.00  0.00    +0.000 OA
ATOM     18  HXT ASP A   3       6.810   2.695  14.669  0.00  0.00    +0.000 HD
ENDBRANCH  15  17
ENDBRANCH  14  15
BRANCH  14  19
ATOM     19  CB  ASP A   3       6.959   5.848  17.131  0.00  0.00    +0.000 C 
BRANCH  19  20
ATOM     20  CG  ASP A   3       7.450   4.935  18.216  0.00  0.00    +0.000 C 
ATOM     21  OD1 ASP A   3       7.077   4.994  19.381  0.00  0.00    +0.000 OA
BRANCH  20  22
ATOM     22  OD2 ASP A   3       8.355   4.035  17.781  0.00  0.00    +0.000 OA
ATOM     23  HD2 ASP A   3       8.015   3.120  17.710  0.00  0.00    +0.000 HD
ENDBRANCH  20  22
ENDBRANCH  19  20
ENDBRANCH  14  19
ENDBRANCH   3  14
TORSDOF 10
ENDMDL
MODEL 2
REMARK VINA RESULT:      -6.1      2.155      6.325
REMARK  Name = 
REMARK  10 active torsions:
REMARK  status: ('A' for Active; 'I' for Inactive)
REMARK    1  A    between atoms: N_1  and  CA_2
REMARK    2  A    between atoms: CA_2  and  C_3
REMARK    3  A    between atoms: N_5  and  CA_6
REMARK    4  A    between atoms: CA_6  and  C_7
REMARK    5  A    between atoms: N_9  and  CA_10
REMARK    6  A    between atoms: CA_10  and  CB_11
REMARK    7  A    between atoms: CA_10  and  C_15
REMARK    8  A    between atoms: CB_11  and  CG_12
REMARK    9  A    between atoms: CG_12  and  OD2_14
REMARK   10  A    between atoms: C_15  and  OXT_17
REMARK                            x       y       z     vdW  Elec       q    Type
REMARK                         _______ _______ _______ _____ _____    ______ ____
ROOT
ATOM      1  C   GLY A   2       3.655   5.249  19.572  0.00  0.00    +0.000 C 
ATOM      2  O   GLY A   2       2.874   6.184  19.714  0.00  0.00    +0.000 OA
ATOM      3  N   ASP A   3       3.297   3.940  19.800  0.00  0.00    +0.000 N 
ATOM      4  H   ASP A   3       4.045   3.253  19.930  0.00  0.00    +0.000 HD
ENDROOT
BRANCH   1   5
ATOM      5  CA  GLY A   2       5.119   5.448  19.183  0.00  0.00    +0.000 C 
BRANCH   5   8
ATOM      6  C   GLY A   1       6.566   4.635  17.369  0.00  0.00    +0.000 C 
ATOM      7  O   GLY A   1       7.538   4.517  18.108  0.00  0.00    +0.000 OA
ATOM      8  N   GLY A   2       5.331   5.044  17.816  0.00  0.00    +0.000 N 
ATOM      9  H   GLY A   2       4.667   5.314  17.092  0.00  0.00    +0.000 HD
BRANCH   6  10
ATOM     10  CA  GLY A   1       6.600   4.313  15.874  0.00  0.00    +0.000 C 
BRANCH  10  11
ATOM     11  N   GLY A   1       7.421   5.302  15.148  0.00  0.00    +0.000 NA
ATOM     12  H1  GLY A   1       7.638   6.065  15.789  0.00  0.00    +0.000 HD
ATOM     13  H2  GLY A   1       6.846   5.717  14.416  0.00  0.00    +0.000 HD
ENDBRANCH  10  11
ENDBRANCH   6  10
ENDBRANCH   5   8
ENDBRANCH   1   5
BRANCH   3  14
ATOM     14  CA  ASP A   3       1.933   3.542  20.172  0.00  0.00    +0.000 C 
BRANCH  14  15
ATOM     15  C   ASP A   3       2.032   2.771  21.500  0.00  0.00    +0.000 C 
ATOM     16  O   ASP A   3       3.092   2.366  21.963  0.00  0.00    +0.000 OA
BRANCH  15  17
ATOM     17  OXT ASP A   3       0.854   2.554  22.124  0.00  0.00    +0.000 OA
ATOM     18  HXT ASP A   3       0.467   1.657  21.970  0.00  0.00    +0.000 HD
ENDBRANCH  15  17
ENDBRANCH  14  15
BRANCH  14  19
ATOM     19  CB  ASP A   3       1.313   2.655  19.089  0.00  0.00    +0.000 C 
BRANCH  19  20
ATOM     20  CG  ASP A   3       2.293   2.394  17.983  0.00  0.00    +0.000 C 
ATOM     21  OD1 ASP A   3       2.355   3.055  16.954  0.00  0.00    +0.000 OA
BRANCH  20  22
ATOM     22  OD2 ASP A   3       3.106   1.348  18.233  0.00  0.00    +0.000 OA
ATOM     23  HD2 ASP A   3       3.633   1.431  19.053  0.00  0.00    +0.000 HD
ENDBRANCH  20  22
ENDBRANCH  19  20
ENDBRANCH  14  19
ENDBRANCH   3  14
TORSDOF 10
ENDMDL
MODEL 3
REMARK VINA RESULT:      -6.0      1.207      1.565
REMARK  Name = 
REMARK  10 active torsions:
REMARK  status: ('A' for Active; 'I' for Inactive)
REMARK    1  A    between atoms: N_1  and  CA_2
REMARK    2  A    between atoms: CA_2  and  C_3
REMARK    3  A    between atoms: N_5  and  CA_6
REMARK    4  A    between atoms: CA_6  and  C_7
REMARK    5  A    between atoms: N_9  and  CA_10
REMARK    6  A    between atoms: CA_10  and  CB_11
REMARK    7  A    between atoms: CA_10  and  C_15
REMARK    8  A    between atoms: CB_11  and  CG_12
REMARK    9  A    between atoms: CG_12  and  OD2_14
REMARK   10  A    between atoms: C_15  and  OXT_17
REMARK                            x       y       z     vdW  Elec       q    Type
REMARK                         _______ _______ _______ _____ _____    ______ ____
ROOT
ATOM      1  C   GLY A   2       3.786   3.102  17.373  0.00  0.00    +0.000 C 
ATOM      2  O   GLY A   2       2.941   3.667  16.686  0.00  0.00    +0.000 OA
ATOM      3  N   ASP A   3       5.083   3.548  17.474  0.00  0.00    +0.000 N 
ATOM      4  H   ASP A   3       5.789   2.898  17.829  0.00  0.00    +0.000 HD
ENDROOT
BRANCH   1   5
ATOM      5  CA  GLY A   2       3.496   1.812  18.142  0.00  0.00    +0.000 C 
BRANCH   5   8
ATOM      6  C   GLY A   1       1.723   2.360  19.755  0.00  0.00    +0.000 C 
ATOM      7  O   GLY A   1       0.836   2.258  18.913  0.00  0.00    +0.000 OA
ATOM      8  N   GLY A   2       3.049   2.119  19.477  0.00  0.00    +0.000 N 
ATOM      9  H   GLY A   2       3.712   2.442  20.180  0.00  0.00    +0.000 HD
BRANCH   6  10
ATOM     10  CA  GLY A   1       1.461   2.734  21.215  0.00  0.00    +0.000 C 
BRANCH  10  11
ATOM     11  N   GLY A   1       2.184   3.970  21.572  0.00  0.00    +0.000 NA
ATOM     12  H1  GLY A   1       3.093   3.707  21.953  0.00  0.00    +0.000 HD
ATOM     13  H2  GLY A   1       1.686   4.419  22.339  0.00  0.00    +0.000 HD
ENDBRANCH  10  11
ENDBRANCH   6  10
ENDBRANCH   5   8
ENDBRANCH   1   5
BRANCH   3  14
ATOM     14  CA  ASP A   3       5.555   4.775  16.818  0.00  0.00    +0.000 C 
BRANCH  14  15
ATOM     15  C   ASP A   3       6.979   4.498  16.308  0.00  0.00    +0.000 C 
ATOM     16  O   ASP A   3       7.946   4.378  17.052  0.00  0.00    +0.000 OA
BRANCH  15  17
ATOM     17  OXT ASP A   3       7.098   4.407  14.966  0.00  0.00    +0.000 OA
ATOM     18  HXT ASP A   3       7.702   5.077  14.560  0.00  0.00    +0.000 HD
ENDBRANCH  15  17
ENDBRANCH  14  15
BRANCH  14  19
ATOM     19  CB  ASP A   3       5.563   5.947  17.802  0.00  0.00    +0.000 C 
BRANCH  19  20
ATOM     20  CG  ASP A   3       5.398   5.464  19.213  0.00  0.00    +0.000 C 
ATOM     21  OD1 ASP A   3       4.323   5.403  19.795  0.00  0.00    +0.000 OA
BRANCH  20  22
ATOM     22  OD2 ASP A   3       6.564   5.101  19.787  0.00  0.00    +0.000 OA
ATOM     23  HD2 ASP A   3       6.505   4.925  20.747  0.00  0.00    +0.000 HD
ENDBRANCH  20  22
ENDBRANCH  19  20
ENDBRANCH  14  19
ENDBRANCH   3  14
TORSDOF 10
ENDMDL
MODEL 4
REMARK VINA RESULT:      -6.0      2.122      2.623
REMARK  Name = 
REMARK  10 active torsions:
REMARK  status: ('A' for Active; 'I' for Inactive)
REMARK    1  A    between atoms: N_1  and  CA_2
REMARK    2  A    between atoms: CA_2  and  C_3
REMARK    3  A    between atoms: N_5  and  CA_6
REMARK    4  A    between atoms: CA_6  and  C_7
REMARK    5  A    between atoms: N_9  and  CA_10
REMARK    6  A    between atoms: CA_10  and  CB_11
REMARK    7  A    between atoms: CA_10  and  C_15
REMARK    8  A    between atoms: CB_11  and  CG_12
REMARK    9  A    between atoms: CG_12  and  OD2_14
REMARK   10  A    between atoms: C_15  and  OXT_17
REMARK                            x       y       z     vdW  Elec       q    Type
REMARK                         _______ _______ _______ _____ _____    ______ ____
ROOT
ATOM      1  C   GLY A   2       3.619   5.997  18.914  0.00  0.00    +0.000 C 
ATOM      2  O   GLY A   2       2.961   6.917  18.438  0.00  0.00    +0.000 OA
ATOM      3  N   ASP A   3       4.908   5.723  18.518  0.00  0.00    +0.000 N 
ATOM      4  H   ASP A   3       5.294   4.803  18.743  0.00  0.00    +0.000 HD
ENDROOT
BRANCH   1   5
ATOM      5  CA  GLY A   2       3.054   5.028  19.952  0.00  0.00    +0.000 C 
BRANCH   5   8
ATOM      6  C   GLY A   1       3.908   2.830  19.259  0.00  0.00    +0.000 C 
ATOM      7  O   GLY A   1       5.027   3.048  19.712  0.00  0.00    +0.000 OA
ATOM      8  N   GLY A   2       2.868   3.725  19.368  0.00  0.00    +0.000 N 
ATOM      9  H   GLY A   2       2.062   3.538  18.774  0.00  0.00    +0.000 HD
BRANCH   6  10
ATOM     10  CA  GLY A   1       3.525   1.530  18.548  0.00  0.00    +0.000 C 
BRANCH  10  11
ATOM     11  N   GLY A   1       2.272   1.704  17.786  0.00  0.00    +0.000 NA
ATOM     12  H1  GLY A   1       2.257   2.654  17.415  0.00  0.00    +0.000 HD
ATOM     13  H2  GLY A   1       1.492   1.655  18.440  0.00  0.00    +0.000 HD
ENDBRANCH  10  11
ENDBRANCH   6  10
ENDBRANCH   5   8
ENDBRANCH   1   5
BRANCH   3  14
ATOM     14  CA  ASP A   3       5.631   6.545  17.538  0.00  0.00    +0.000 C 
BRANCH  14  15
ATOM     15  C   ASP A   3       5.349   5.947  16.149  0.00  0.00    +0.000 C 
ATOM     16  O   ASP A   3       5.286   4.741  15.939  0.00  0.00    +0.000 OA
BRANCH  15  17
ATOM     17  OXT ASP A   3       5.188   6.852  15.160  0.00  0.00    +0.000 OA
ATOM     18  HXT ASP A   3       4.383   7.419  15.249  0.00  0.00    +0.000 HD
ENDBRANCH  15  17
ENDBRANCH  14  15
BRANCH  14  19
ATOM     19  CB  ASP A   3       7.134   6.535  17.825  0.00  0.00    +0.000 C 
BRANCH  19  20
ATOM     20  CG  ASP A   3       7.496   5.410  18.751  0.00  0.00    +0.000 C 
ATOM     21  OD1 ASP A   3       7.699   5.549  19.951  0.00  0.00    +0.000 OA
BRANCH  20  22
ATOM     22  OD2 ASP A   3       7.579   4.218  18.127  0.00  0.00    +0.000 OA
ATOM     23  HD2 ASP A   3       8.487   3.956  17.872  0.00  0.00    +0.000 HD
ENDBRANCH  20  22
ENDBRANCH  19  20
ENDBRANCH  14  19
ENDBRANCH   3  14
TORSDOF 10
ENDMDL
MODEL 5
REMARK VINA RESULT:      -6.0      0.167      1.104
REMARK  Name = 
REMARK  10 active torsions:
REMARK  status: ('A' for Active; 'I' for Inactive)
REMARK    1  A    between atoms: N_1  and  CA_2
REMARK    2  A    between atoms: CA_2  and  C_3
REMARK    3  A    between atoms: N_5  and  CA_6
REMARK    4  A    between atoms: CA_6  and  C_7
REMARK    5  A    between atoms: N_9  and  CA_10
REMARK    6  A    between atoms: CA_10  and  CB_11
REMARK    7  A    between atoms: CA_10  and  C_15
REMARK    8  A    between atoms: CB_11  and  CG_12
REMARK    9  A    between atoms: CG_12  and  OD2_14
REMARK   10  A    between atoms: C_15  and  OXT_17
REMARK                            x       y       z     vdW  Elec       q    Type
REMARK                         _______ _______ _______ _____ _____    ______ ____
ROOT
ATOM      1  C   GLY A   2       4.153   3.985  17.319  0.00  0.00    +0.000 C 
ATOM      2  O   GLY A   2       3.415   4.965  17.312  0.00  0.00    +0.000 OA
ATOM      3  N   ASP A   3       5.392   3.983  16.722  0.00  0.00    +0.000 N 
ATOM      4  H   ASP A   3       5.831   3.080  16.527  0.00  0.00    +0.000 HD
ENDROOT
BRANCH   1   5
ATOM      5  CA  GLY A   2       3.746   2.649  17.942  0.00  0.00    +0.000 C 
BRANCH   5   8
ATOM      6  C   GLY A   1       1.799   2.597  19.442  0.00  0.00    +0.000 C 
ATOM      7  O   GLY A   1       1.074   2.091  18.590  0.00  0.00    +0.000 OA
ATOM      8  N   GLY A   2       3.131   2.866  19.226  0.00  0.00    +0.000 N 
ATOM      9  H   GLY A   2       3.572   3.477  19.912  0.00  0.00    +0.000 HD
BRANCH   6  10
ATOM     10  CA  GLY A   1       1.320   2.958  20.849  0.00  0.00    +0.000 C 
BRANCH  10  11
ATOM     11  N   GLY A   1       2.168   4.018  21.430  0.00  0.00    +0.000 NA
ATOM     12  H1  GLY A   1       2.618   4.519  20.664  0.00  0.00    +0.000 HD
ATOM     13  H2  GLY A   1       2.926   3.571  21.946  0.00  0.00    +0.000 HD
ENDBRANCH  10  11
ENDBRANCH   6  10
ENDBRANCH   5   8
ENDBRANCH   1   5
BRANCH   3  14
ATOM     14  CA  ASP A   3       5.967   5.173  16.080  0.00  0.00    +0.000 C 
BRANCH  14  15
ATOM     15  C   ASP A   3       6.669   4.700  14.796  0.00  0.00    +0.000 C 
ATOM     16  O   ASP A   3       6.312   3.715  14.160  0.00  0.00    +0.000 OA
BRANCH  15  17
ATOM     17  OXT ASP A   3       7.731   5.445  14.418  0.00  0.00    +0.000 OA
ATOM     18  HXT ASP A   3       7.887   6.249  14.973  0.00  0.00    +0.000 HD
ENDBRANCH  15  17
ENDBRANCH  14  15
BRANCH  14  19
ATOM     19  CB  ASP A   3       6.969   5.861  17.010  0.00  0.00    +0.000 C 
BRANCH  19  20
ATOM     20  CG  ASP A   3       7.528   4.891  18.009  0.00  0.00    +0.000 C 
ATOM     21  OD1 ASP A   3       8.402   4.072  17.753  0.00  0.00    +0.000 OA
BRANCH  20  22
ATOM     22  OD2 ASP A   3       6.965   5.005  19.229  0.00  0.00    +0.000 OA
ATOM     23  HD2 ASP A   3       7.598   5.193  19.951  0.00  0.00    +0.000 HD
ENDBRANCH  20  22
ENDBRANCH  19  20
ENDBRANCH  14  19
ENDBRANCH   3  14
TORSDOF 10
ENDMDL
MODEL 6
REMARK VINA RESULT:      -6.0      1.608      1.920
REMARK  Name = 
REMARK  10 active torsions:
REMARK  status: ('A' for Active; 'I' for Inactive)
REMARK    1  A    between atoms: N_1  and  CA_2
REMARK    2  A    between atoms: CA_2  and  C_3
REMARK    3  A    between atoms: N_5  and  CA_6
REMARK    4  A    between atoms: CA_6  and  C_7
REMARK    5  A    between atoms: N_9  and  CA_10
REMARK    6  A    between atoms: CA_10  and  CB_11
REMARK    7  A    between atoms: CA_10  and  C_15
REMARK    8  A    between atoms: CB_11  and  CG_12
REMARK    9  A    between atoms: CG_12  and  OD2_14
REMARK   10  A    between atoms: C_15  and  OXT_17
REMARK                            x       y       z     vdW  Elec       q    Type
REMARK                         _______ _______ _______ _____ _____    ______ ____
ROOT
ATOM      1  C   GLY A   2       3.645   5.575  17.483  0.00  0.00    +0.000 C 
ATOM      2  O   GLY A   2       3.477   6.783  17.615  0.00  0.00    +0.000 OA
ATOM      3  N   ASP A   3       4.713   5.043  16.800  0.00  0.00    +0.000 N 
ATOM      4  H   ASP A   3       4.651   4.068  16.496  0.00  0.00    +0.000 HD
ENDROOT
BRANCH   1   5
ATOM      5  CA  GLY A   2       2.653   4.541  18.017  0.00  0.00    +0.000 C 
BRANCH   5   8
ATOM      6  C   GLY A   1       3.113   3.337  20.110  0.00  0.00    +0.000 C 
ATOM      7  O   GLY A   1       2.256   3.958  20.732  0.00  0.00    +0.000 OA
ATOM      8  N   GLY A   2       3.348   3.527  18.768  0.00  0.00    +0.000 N 
ATOM      9  H   GLY A   2       4.213   3.125  18.411  0.00  0.00    +0.000 HD
BRANCH   6  10
ATOM     10  CA  GLY A   1       3.998   2.260  20.741  0.00  0.00    +0.000 C 
BRANCH  10  11
ATOM     11  N   GLY A   1       4.963   1.738  19.753  0.00  0.00    +0.000 NA
ATOM     12  H1  GLY A   1       4.635   1.995  18.823  0.00  0.00    +0.000 HD
ATOM     13  H2  GLY A   1       4.929   0.719  19.783  0.00  0.00    +0.000 HD
ENDBRANCH  10  11
ENDBRANCH   6  10
ENDBRANCH   5   8
ENDBRANCH   1   5
BRANCH   3  14
ATOM     14  CA  ASP A   3       5.780   5.871  16.221  0.00  0.00    +0.000 C 
BRANCH  14  15
ATOM     15  C   ASP A   3       6.271   5.156  14.951  0.00  0.00    +0.000 C 
ATOM     16  O   ASP A   3       5.547   4.454  14.255  0.00  0.00    +0.000 OA
BRANCH  15  17
ATOM     17  OXT ASP A   3       7.575   5.345  14.657  0.00  0.00    +0.000 OA
ATOM     18  HXT ASP A   3       8.177   5.347  15.442  0.00  0.00    +0.000 HD
ENDBRANCH  15  17
ENDBRANCH  14  15
BRANCH  14  19
ATOM     19  CB  ASP A   3       6.933   6.040  17.214  0.00  0.00    +0.000 C 
BRANCH  19  20
ATOM     20  CG  ASP A   3       7.150   4.782  18.003  0.00  0.00    +0.000 C 
ATOM     21  OD1 ASP A   3       6.440   4.427  18.935  0.00  0.00    +0.000 OA
BRANCH  20  22
ATOM     22  OD2 ASP A   3       8.218   4.073  17.584  0.00  0.00    +0.000 OA
ATOM     23  HD2 ASP A   3       8.017   3.404  16.900  0.00  0.00    +0.000 HD
ENDBRANCH  20  22
ENDBRANCH  19  20
ENDBRANCH  14  19
ENDBRANCH   3  14
TORSDOF 10
ENDMDL
MODEL 7
REMARK VINA RESULT:      -5.9      1.649      2.096
REMARK  Name = 
REMARK  10 active torsions:
REMARK  status: ('A' for Active; 'I' for Inactive)
REMARK    1  A    between atoms: N_1  and  CA_2
REMARK    2  A    between atoms: CA_2  and  C_3
REMARK    3  A    between atoms: N_5  and  CA_6
REMARK    4  A    between atoms: CA_6  and  C_7
REMARK    5  A    between atoms: N_9  and  CA_10
REMARK    6  A    between atoms: CA_10  and  CB_11
REMARK    7  A    between atoms: CA_10  and  C_15
REMARK    8  A    between atoms: CB_11  and  CG_12
REMARK    9  A    between atoms: CG_12  and  OD2_14
REMARK   10  A    between atoms: C_15  and  OXT_17
REMARK                            x       y       z     vdW  Elec       q    Type
REMARK                         _______ _______ _______ _____ _____    ______ ____
ROOT
ATOM      1  C   GLY A   2       3.829   6.243  17.602  0.00  0.00    +0.000 C 
ATOM      2  O   GLY A   2       3.689   7.448  17.417  0.00  0.00    +0.000 OA
ATOM      3  N   ASP A   3       4.945   5.552  17.189  0.00  0.00    +0.000 N 
ATOM      4  H   ASP A   3       4.883   4.533  17.126  0.00  0.00    +0.000 HD
ENDROOT
BRANCH   1   5
ATOM      5  CA  GLY A   2       2.754   5.378  18.260  0.00  0.00    +0.000 C 
BRANCH   5   8
ATOM      6  C   GLY A   1       2.989   2.935  18.119  0.00  0.00    +0.000 C 
ATOM      7  O   GLY A   1       2.254   2.856  17.139  0.00  0.00    +0.000 OA
ATOM      8  N   GLY A   2       3.323   4.133  18.708  0.00  0.00    +0.000 N 
ATOM      9  H   GLY A   2       3.752   4.065  19.630  0.00  0.00    +0.000 HD
BRANCH   6  10
ATOM     10  CA  GLY A   1       3.646   1.722  18.781  0.00  0.00    +0.000 C 
BRANCH  10  11
ATOM     11  N   GLY A   1       4.805   2.139  19.595  0.00  0.00    +0.000 NA
ATOM     12  H1  GLY A   1       5.032   3.103  19.352  0.00  0.00    +0.000 HD
ATOM     13  H2  GLY A   1       5.611   1.587  19.305  0.00  0.00    +0.000 HD
ENDBRANCH  10  11
ENDBRANCH   6  10
ENDBRANCH   5   8
ENDBRANCH   1   5
BRANCH   3  14
ATOM     14  CA  ASP A   3       6.092   6.207  16.546  0.00  0.00    +0.000 C 
BRANCH  14  15
ATOM     15  C   ASP A   3       6.436   5.388  15.291  0.00  0.00    +0.000 C 
ATOM     16  O   ASP A   3       7.521   5.453  14.723  0.00  0.00    +0.000 OA
BRANCH  15  17
ATOM     17  OXT ASP A   3       5.444   4.589  14.840  0.00  0.00    +0.000 OA
ATOM     18  HXT ASP A   3       5.264   3.799  15.406  0.00  0.00    +0.000 HD
ENDBRANCH  15  17
ENDBRANCH  14  15
BRANCH  14  19
ATOM     19  CB  ASP A   3       7.292   6.252  17.496  0.00  0.00    +0.000 C 
BRANCH  19  20
ATOM     20  CG  ASP A   3       7.514   4.916  18.143  0.00  0.00    +0.000 C 
ATOM     21  OD1 ASP A   3       8.354   4.107  17.771  0.00  0.00    +0.000 OA
BRANCH  20  22
ATOM     22  OD2 ASP A   3       6.687   4.690  19.184  0.00  0.00    +0.000 OA
ATOM     23  HD2 ASP A   3       6.799   5.310  19.932  0.00  0.00    +0.000 HD
ENDBRANCH  20  22
ENDBRANCH  19  20
ENDBRANCH  14  19
ENDBRANCH   3  14
TORSDOF 10
ENDMDL
MODEL 8
REMARK VINA RESULT:      -5.9      1.586      1.693
REMARK  Name = 
REMARK  10 active torsions:
REMARK  status: ('A' for Active; 'I' for Inactive)
REMARK    1  A    between atoms: N_1  and  CA_2
REMARK    2  A    between atoms: CA_2  and  C_3
REMARK    3  A    between atoms: N_5  and  CA_6
REMARK    4  A    between atoms: CA_6  and  C_7
REMARK    5  A    between atoms: N_9  and  CA_10
REMARK    6  A    between atoms: CA_10  and  CB_11
REMARK    7  A    between atoms: CA_10  and  C_15
REMARK    8  A    between atoms: CB_11  and  CG_12
REMARK    9  A    between atoms: CG_12  and  OD2_14
REMARK   10  A    between atoms: C_15  and  OXT_17
REMARK                            x       y       z     vdW  Elec       q    Type
REMARK                         _______ _______ _______ _____ _____    ______ ____
ROOT
ATOM      1  C   GLY A   2       4.635   4.543  19.081  0.00  0.00    +0.000 C 
ATOM      2  O   GLY A   2       4.228   5.507  19.721  0.00  0.00    +0.000 OA
ATOM      3  N   ASP A   3       5.333   4.674  17.902  0.00  0.00    +0.000 N 
ATOM      4  H   ASP A   3       5.401   3.856  17.291  0.00  0.00    +0.000 HD
ENDROOT
BRANCH   1   5
ATOM      5  CA  GLY A   2       4.358   3.099  19.498  0.00  0.00    +0.000 C 
BRANCH   5   8
ATOM      6  C   GLY A   1       2.154   2.425  18.643  0.00  0.00    +0.000 C 
ATOM      7  O   GLY A   1       2.607   2.085  17.555  0.00  0.00    +0.000 OA
ATOM      8  N   GLY A   2       2.943   2.893  19.669  0.00  0.00    +0.000 N 
ATOM      9  H   GLY A   2       2.446   3.345  20.435  0.00  0.00    +0.000 HD
BRANCH   6  10
ATOM     10  CA  GLY A   1       0.669   2.340  19.002  0.00  0.00    +0.000 C 
BRANCH  10  11
ATOM     11  N   GLY A   1       0.378   3.150  20.202  0.00  0.00    +0.000 NA
ATOM     12  H1  GLY A   1       1.197   3.125  20.808  0.00  0.00    +0.000 HD
ATOM     13  H2  GLY A   1      -0.363   2.686  20.726  0.00  0.00    +0.000 HD
ENDBRANCH  10  11
ENDBRANCH   6  10
ENDBRANCH   5   8
ENDBRANCH   1   5
BRANCH   3  14
ATOM     14  CA  ASP A   3       5.707   5.979  17.340  0.00  0.00    +0.000 C 
BRANCH  14  15
ATOM     15  C   ASP A   3       5.506   5.890  15.818  0.00  0.00    +0.000 C 
ATOM     16  O   ASP A   3       5.110   6.830  15.137  0.00  0.00    +0.000 OA
BRANCH  15  17
ATOM     17  OXT ASP A   3       5.787   4.686  15.274  0.00  0.00    +0.000 OA
ATOM     18  HXT ASP A   3       5.911   4.697  14.293  0.00  0.00    +0.000 HD
ENDBRANCH  15  17
ENDBRANCH  14  15
BRANCH  14  19
ATOM     19  CB  ASP A   3       7.165   6.311  17.664  0.00  0.00    +0.000 C 
BRANCH  19  20
ATOM     20  CG  ASP A   3       7.868   5.123  18.254  0.00  0.00    +0.000 C 
ATOM     21  OD1 ASP A   3       8.177   5.028  19.435  0.00  0.00    +0.000 OA
BRANCH  20  22
ATOM     22  OD2 ASP A   3       8.131   4.161  17.347  0.00  0.00    +0.000 OA
ATOM     23  HD2 ASP A   3       7.338   3.712  16.991  0.00  0.00    +0.000 HD
ENDBRANCH  20  22
ENDBRANCH  19  20
ENDBRANCH  14  19
ENDBRANCH   3  14
TORSDOF 10
ENDMDL
MODEL 9
REMARK VINA RESULT:      -5.9      0.949      1.050
REMARK  Name = 
REMARK  10 active torsions:
REMARK  status: ('A' for Active; 'I' for Inactive)
REMARK    1  A    between atoms: N_1  and  CA_2
REMARK    2  A    between atoms: CA_2  and  C_3
REMARK    3  A    between atoms: N_5  and  CA_6
REMARK    4  A    between atoms: CA_6  and  C_7
REMARK    5  A    between atoms: N_9  and  CA_10
REMARK    6  A    between atoms: CA_10  and  CB_11
REMARK    7  A    between atoms: CA_10  and  C_15
REMARK    8  A    between atoms: CB_11  and  CG_12
REMARK    9  A    between atoms: CG_12  and  OD2_14
REMARK   10  A    between atoms: C_15  and  OXT_17
REMARK                            x       y       z     vdW  Elec       q    Type
REMARK                         _______ _______ _______ _____ _____    ______ ____
ROOT
ATOM      1  C   GLY A   2       4.206   4.160  17.789  0.00  0.00    +0.000 C 
ATOM      2  O   GLY A   2       3.306   4.824  17.284  0.00  0.00    +0.000 OA
ATOM      3  N   ASP A   3       5.525   4.549  17.757  0.00  0.00    +0.000 N 
ATOM      4  H   ASP A   3       6.239   3.841  17.945  0.00  0.00    +0.000 HD
ENDROOT
BRANCH   1   5
ATOM      5  CA  GLY A   2       3.959   2.806  18.455  0.00  0.00    +0.000 C 
BRANCH   5   8
ATOM      6  C   GLY A   1       1.821   2.658  19.661  0.00  0.00    +0.000 C 
ATOM      7  O   GLY A   1       1.243   2.150  18.705  0.00  0.00    +0.000 OA
ATOM      8  N   GLY A   2       3.160   2.974  19.642  0.00  0.00    +0.000 N 
ATOM      9  H   GLY A   2       3.479   3.582  20.395  0.00  0.00    +0.000 HD
BRANCH   6  10
ATOM     10  CA  GLY A   1       1.136   2.971  20.992  0.00  0.00    +0.000 C 
BRANCH  10  11
ATOM     11  N   GLY A   1       2.061   2.740  22.119  0.00  0.00    +0.000 NA
ATOM     12  H1  GLY A   1       1.556   2.230  22.843  0.00  0.00    +0.000 HD
ATOM     13  H2  GLY A   1       2.290   3.644  22.532  0.00  0.00    +0.000 HD
ENDBRANCH  10  11
ENDBRANCH   6  10
ENDBRANCH   5   8
ENDBRANCH   1   5
BRANCH   3  14
ATOM     14  CA  ASP A   3       5.964   5.823  17.172  0.00  0.00    +0.000 C 
BRANCH  14  15
ATOM     15  C   ASP A   3       6.356   5.540  15.712  0.00  0.00    +0.000 C 
ATOM     16  O   ASP A   3       5.686   5.909  14.754  0.00  0.00    +0.000 OA
BRANCH  15  17
ATOM     17  OXT ASP A   3       7.497   4.834  15.553  0.00  0.00    +0.000 OA
ATOM     18  HXT ASP A   3       7.709   4.223  16.302  0.00  0.00    +0.000 HD
ENDBRANCH  15  17
ENDBRANCH  14  15
BRANCH  14  19
ATOM     19  CB  ASP A   3       7.161   6.389  17.942  0.00  0.00    +0.000 C 
BRANCH  19  20
ATOM     20  CG  ASP A   3       7.672   5.397  18.945  0.00  0.00    +0.000 C 
ATOM     21  OD1 ASP A   3       7.521   5.507  20.155  0.00  0.00    +0.000 OA
BRANCH  20  22
ATOM     22  OD2 ASP A   3       8.323   4.361  18.378  0.00  0.00    +0.000 OA
ATOM     23  HD2 ASP A   3       7.909   4.020  17.560  0.00  0.00    +0.000 HD
ENDBRANCH  20  22
ENDBRANCH  19  20
ENDBRANCH  14  19
ENDBRANCH   3  14
TORSDOF 10
ENDMDL
