MODEL 1
REMARK VINA RESULT:      -8.4      0.000      0.000
REMARK  Name = 
REMARK  6 active torsions:
REMARK  status: ('A' for Active; 'I' for Inactive)
REMARK    1  A    between atoms: C_4  and  C_5
REMARK    2  A    between atoms: C_5  and  O_6
REMARK    3  A    between atoms: O_6  and  C_7
REMARK    4  A    between atoms: C_11  and  C_12
REMARK    5  A    between atoms: C_12  and  N_13
REMARK    6  A    between atoms: N_13  and  C_14
REMARK                            x       y       z     vdW  Elec       q    Type
REMARK                         _______ _______ _______ _____ _____    ______ ____
ROOT
ATOM      1  C   UNL     1       7.704   7.602  18.003  0.00  0.00    +0.000 A 
ATOM      2  C   UNL     1       8.341   6.836  18.980  0.00  0.00    +0.000 A 
ATOM      3  C   UNL     1       8.050   5.481  19.107  0.00  0.00    +0.000 A 
ATOM      4  C   UNL     1       7.099   4.896  18.277  0.00  0.00    +0.000 A 
ATOM      5  C   UNL     1       6.408   5.662  17.326  0.00  0.00    +0.000 A 
ATOM      6  C   UNL     1       6.714   7.025  17.202  0.00  0.00    +0.000 A 
ENDROOT
BRANCH   1   7
ATOM      7  O   UNL     1       7.995   8.917  17.750  0.00  0.00    +0.000 OA
BRANCH   7   8
ATOM      8  C   UNL     1       8.835   9.529  18.737  0.00  0.00    +0.000 C 
BRANCH   8  12
ATOM      9  C   UNL     1      10.217  13.345  17.306  0.00  0.00    +0.000 A 
ATOM     10  C   UNL     1      11.136  12.340  17.604  0.00  0.00    +0.000 A 
ATOM     11  C   UNL     1      10.690  11.100  18.059  0.00  0.00    +0.000 A 
ATOM     12  C   UNL     1       9.321  10.858  18.223  0.00  0.00    +0.000 A 
ATOM     13  C   UNL     1       8.404  11.871  17.906  0.00  0.00    +0.000 A 
ATOM     14  C   UNL     1       8.852  13.110  17.451  0.00  0.00    +0.000 A 
ENDBRANCH   8  12
ENDBRANCH   7   8
ENDBRANCH   1   7
BRANCH   5  15
ATOM     15  C   UNL     1       5.413   4.994  16.409  0.00  0.00    +0.000 C 
BRANCH  15  16
ATOM     16  N   UNL     1       5.179   3.601  16.802  0.00  0.00    +0.000 NA
ATOM     17  H   UNL     1       5.959   3.306  17.398  0.00  0.00    +0.000 HD
BRANCH  16  18
ATOM     18  C   UNL     1       3.901   3.406  17.505  0.00  0.00    +0.000 C 
ATOM     19  C   UNL     1       3.070   4.706  17.413  0.00  0.00    +0.000 C 
ATOM     20  C   UNL     1       1.683   4.525  18.044  0.00  0.00    +0.000 C 
ATOM     21  C   UNL     1       1.766   3.849  19.362  0.00  0.00    +0.000 A 
ATOM     22  N   UNL     1       0.864   3.764  20.316  0.00  0.00    +0.000 NA
ATOM     23  C   UNL     1       1.485   3.000  21.265  0.00  0.00    +0.000 A 
ATOM     24  N   UNL     1       2.722   2.595  20.954  0.00  0.00    +0.000 NA
ATOM     25  N   UNL     1       2.871   3.147  19.741  0.00  0.00    +0.000 N 
ATOM     26  C   UNL     1       4.098   3.030  18.991  0.00  0.00    +0.000 C 
ENDBRANCH  16  18
ENDBRANCH  15  16
ENDBRANCH   5  15
TORSDOF 6
ENDMDL
MODEL 2
REMARK VINA RESULT:      -8.3      4.484      9.472
REMARK  Name = 
REMARK  6 active torsions:
REMARK  status: ('A' for Active; 'I' for Inactive)
REMARK    1  A    between atoms: C_4  and  C_5
REMARK    2  A    between atoms: C_5  and  O_6
REMARK    3  A    between atoms: O_6  and  C_7
REMARK    4  A    between atoms: C_11  and  C_12
REMARK    5  A    between atoms: C_12  and  N_13
REMARK    6  A    between atoms: N_13  and  C_14
REMARK                            x       y       z     vdW  Elec       q    Type
REMARK                         _______ _______ _______ _____ _____    ______ ____
ROOT
ATOM      1  C   UNL     1       5.576   6.284  17.446  0.00  0.00    +0.000 A 
ATOM      2  C   UNL     1       6.215   5.171  17.994  0.00  0.00    +0.000 A 
ATOM      3  C   UNL     1       7.481   5.297  18.556  0.00  0.00    +0.000 A 
ATOM      4  C   UNL     1       8.125   6.531  18.544  0.00  0.00    +0.000 A 
ATOM      5  C   UNL     1       7.522   7.649  17.949  0.00  0.00    +0.000 A 
ATOM      6  C   UNL     1       6.243   7.512  17.391  0.00  0.00    +0.000 A 
ENDROOT
BRANCH   1   7
ATOM      7  O   UNL     1       4.297   6.269  16.955  0.00  0.00    +0.000 OA
BRANCH   7   8
ATOM      8  C   UNL     1       3.333   6.886  17.818  0.00  0.00    +0.000 C 
BRANCH   8  12
ATOM      9  C   UNL     1       1.068   3.857  19.872  0.00  0.00    +0.000 A 
ATOM     10  C   UNL     1       1.327   3.727  18.508  0.00  0.00    +0.000 A 
ATOM     11  C   UNL     1       2.068   4.702  17.842  0.00  0.00    +0.000 A 
ATOM     12  C   UNL     1       2.553   5.817  18.537  0.00  0.00    +0.000 A 
ATOM     13  C   UNL     1       2.300   5.931  19.911  0.00  0.00    +0.000 A 
ATOM     14  C   UNL     1       1.559   4.954  20.575  0.00  0.00    +0.000 A 
ENDBRANCH   8  12
ENDBRANCH   7   8
ENDBRANCH   1   7
BRANCH   5  15
ATOM     15  C   UNL     1       8.222   8.985  17.988  0.00  0.00    +0.000 C 
BRANCH  15  16
ATOM     16  N   UNL     1       8.990   9.147  19.228  0.00  0.00    +0.000 NA
ATOM     17  H   UNL     1       9.651   8.367  19.293  0.00  0.00    +0.000 HD
BRANCH  16  18
ATOM     18  C   UNL     1       9.708  10.429  19.299  0.00  0.00    +0.000 C 
ATOM     19  C   UNL     1       9.370  11.123  20.639  0.00  0.00    +0.000 C 
ATOM     20  C   UNL     1      10.173  12.420  20.810  0.00  0.00    +0.000 C 
ATOM     21  C   UNL     1      10.150  13.245  19.577  0.00  0.00    +0.000 A 
ATOM     22  N   UNL     1      10.468  14.511  19.413  0.00  0.00    +0.000 NA
ATOM     23  C   UNL     1      10.284  14.706  18.072  0.00  0.00    +0.000 A 
ATOM     24  N   UNL     1       9.876  13.632  17.387  0.00  0.00    +0.000 NA
ATOM     25  N   UNL     1       9.803  12.720  18.368  0.00  0.00    +0.000 N 
ATOM     26  C   UNL     1       9.348  11.372  18.130  0.00  0.00    +0.000 C 
ENDBRANCH  16  18
ENDBRANCH  15  16
ENDBRANCH   5  15
TORSDOF 6
ENDMDL
MODEL 3
REMARK VINA RESULT:      -8.2      4.571      9.462
REMARK  Name = 
REMARK  6 active torsions:
REMARK  status: ('A' for Active; 'I' for Inactive)
REMARK    1  A    between atoms: C_4  and  C_5
REMARK    2  A    between atoms: C_5  and  O_6
REMARK    3  A    between atoms: O_6  and  C_7
REMARK    4  A    between atoms: C_11  and  C_12
REMARK    5  A    between atoms: C_12  and  N_13
REMARK    6  A    between atoms: N_13  and  C_14
REMARK                            x       y       z     vdW  Elec       q    Type
REMARK                         _______ _______ _______ _____ _____    ______ ____
ROOT
ATOM      1  C   UNL     1       5.668   5.863  17.534  0.00  0.00    +0.000 A 
ATOM      2  C   UNL     1       6.382   4.967  18.331  0.00  0.00    +0.000 A 
ATOM      3  C   UNL     1       7.589   5.350  18.907  0.00  0.00    +0.000 A 
ATOM      4  C   UNL     1       8.100   6.621  18.662  0.00  0.00    +0.000 A 
ATOM      5  C   UNL     1       7.424   7.517  17.819  0.00  0.00    +0.000 A 
ATOM      6  C   UNL     1       6.206   7.121  17.250  0.00  0.00    +0.000 A 
ENDROOT
BRANCH   1   7
ATOM      7  O   UNL     1       4.432   5.600  17.004  0.00  0.00    +0.000 OA
BRANCH   7   8
ATOM      8  C   UNL     1       3.362   6.314  17.637  0.00  0.00    +0.000 C 
BRANCH   8  12
ATOM      9  C   UNL     1       0.973   3.600  19.970  0.00  0.00    +0.000 A 
ATOM     10  C   UNL     1       1.194   3.345  18.617  0.00  0.00    +0.000 A 
ATOM     11  C   UNL     1       1.975   4.218  17.861  0.00  0.00    +0.000 A 
ATOM     12  C   UNL     1       2.538   5.355  18.454  0.00  0.00    +0.000 A 
ATOM     13  C   UNL     1       2.322   5.594  19.818  0.00  0.00    +0.000 A 
ATOM     14  C   UNL     1       1.541   4.719  20.572  0.00  0.00    +0.000 A 
ENDBRANCH   8  12
ENDBRANCH   7   8
ENDBRANCH   1   7
BRANCH   5  15
ATOM     15  C   UNL     1       7.978   8.904  17.606  0.00  0.00    +0.000 C 
BRANCH  15  16
ATOM     16  N   UNL     1       8.917   9.273  18.671  0.00  0.00    +0.000 NA
ATOM     17  H   UNL     1       9.821   8.840  18.457  0.00  0.00    +0.000 HD
BRANCH  16  18
ATOM     18  C   UNL     1       9.074  10.727  18.825  0.00  0.00    +0.000 C 
ATOM     19  C   UNL     1      10.220  11.211  17.908  0.00  0.00    +0.000 C 
ATOM     20  C   UNL     1      10.360  12.739  17.953  0.00  0.00    +0.000 C 
ATOM     21  C   UNL     1      10.325  13.250  19.347  0.00  0.00    +0.000 A 
ATOM     22  N   UNL     1      10.683  14.427  19.814  0.00  0.00    +0.000 NA
ATOM     23  C   UNL     1      10.396  14.332  21.148  0.00  0.00    +0.000 A 
ATOM     24  N   UNL     1       9.872  13.165  21.539  0.00  0.00    +0.000 NA
ATOM     25  N   UNL     1       9.836  12.501  20.374  0.00  0.00    +0.000 N 
ATOM     26  C   UNL     1       9.379  11.135  20.284  0.00  0.00    +0.000 C 
ENDBRANCH  16  18
ENDBRANCH  15  16
ENDBRANCH   5  15
TORSDOF 6
ENDMDL
MODEL 4
REMARK VINA RESULT:      -8.2      4.387      9.406
REMARK  Name = 
REMARK  6 active torsions:
REMARK  status: ('A' for Active; 'I' for Inactive)
REMARK    1  A    between atoms: C_4  and  C_5
REMARK    2  A    between atoms: C_5  and  O_6
REMARK    3  A    between atoms: O_6  and  C_7
REMARK    4  A    between atoms: C_11  and  C_12
REMARK    5  A    between atoms: C_12  and  N_13
REMARK    6  A    between atoms: N_13  and  C_14
REMARK                            x       y       z     vdW  Elec       q    Type
REMARK                         _______ _______ _______ _____ _____    ______ ____
ROOT
ATOM      1  C   UNL     1       5.403   6.091  17.532  0.00  0.00    +0.000 A 
ATOM      2  C   UNL     1       6.035   5.011  18.151  0.00  0.00    +0.000 A 
ATOM      3  C   UNL     1       7.311   5.161  18.687  0.00  0.00    +0.000 A 
ATOM      4  C   UNL     1       7.969   6.382  18.579  0.00  0.00    +0.000 A 
ATOM      5  C   UNL     1       7.371   7.463  17.912  0.00  0.00    +0.000 A 
ATOM      6  C   UNL     1       6.084   7.302  17.381  0.00  0.00    +0.000 A 
ENDROOT
BRANCH   1   7
ATOM      7  O   UNL     1       4.118   6.056  17.059  0.00  0.00    +0.000 OA
BRANCH   7   8
ATOM      8  C   UNL     1       3.148   6.602  17.964  0.00  0.00    +0.000 C 
BRANCH   8  12
ATOM      9  C   UNL     1       0.962   3.370  19.778  0.00  0.00    +0.000 A 
ATOM     10  C   UNL     1       1.369   4.455  20.552  0.00  0.00    +0.000 A 
ATOM     11  C   UNL     1       2.069   5.508  19.965  0.00  0.00    +0.000 A 
ATOM     12  C   UNL     1       2.371   5.480  18.598  0.00  0.00    +0.000 A 
ATOM     13  C   UNL     1       1.944   4.391  17.825  0.00  0.00    +0.000 A 
ATOM     14  C   UNL     1       1.243   3.340  18.414  0.00  0.00    +0.000 A 
ENDBRANCH   8  12
ENDBRANCH   7   8
ENDBRANCH   1   7
BRANCH   5  15
ATOM     15  C   UNL     1       8.088   8.790  17.847  0.00  0.00    +0.000 C 
BRANCH  15  16
ATOM     16  N   UNL     1       8.935   8.995  19.026  0.00  0.00    +0.000 NA
ATOM     17  H   UNL     1       9.691   8.303  18.995  0.00  0.00    +0.000 HD
BRANCH  16  18
ATOM     18  C   UNL     1       9.495  10.353  19.106  0.00  0.00    +0.000 C 
ATOM     19  C   UNL     1       9.457  10.829  20.576  0.00  0.00    +0.000 C 
ATOM     20  C   UNL     1      10.123  12.203  20.733  0.00  0.00    +0.000 C 
ATOM     21  C   UNL     1       9.671  13.152  19.685  0.00  0.00    +0.000 A 
ATOM     22  N   UNL     1       9.787  14.462  19.639  0.00  0.00    +0.000 NA
ATOM     23  C   UNL     1       9.224  14.781  18.434  0.00  0.00    +0.000 A 
ATOM     24  N   UNL     1       8.770  13.744  17.721  0.00  0.00    +0.000 NA
ATOM     25  N   UNL     1       9.071  12.725  18.539  0.00  0.00    +0.000 N 
ATOM     26  C   UNL     1       8.725  11.360  18.223  0.00  0.00    +0.000 C 
ENDBRANCH  16  18
ENDBRANCH  15  16
ENDBRANCH   5  15
TORSDOF 6
ENDMDL
MODEL 5
REMARK VINA RESULT:      -8.2      3.642      6.561
REMARK  Name = 
REMARK  6 active torsions:
REMARK  status: ('A' for Active; 'I' for Inactive)
REMARK    1  A    between atoms: C_4  and  C_5
REMARK    2  A    between atoms: C_5  and  O_6
REMARK    3  A    between atoms: O_6  and  C_7
REMARK    4  A    between atoms: C_11  and  C_12
REMARK    5  A    between atoms: C_12  and  N_13
REMARK    6  A    between atoms: N_13  and  C_14
REMARK                            x       y       z     vdW  Elec       q    Type
REMARK                         _______ _______ _______ _____ _____    ______ ____
ROOT
ATOM      1  C   UNL     1       3.365   2.963  18.101  0.00  0.00    +0.000 A 
ATOM      2  C   UNL     1       2.311   2.156  17.671  0.00  0.00    +0.000 A 
ATOM      3  C   UNL     1       1.080   2.208  18.317  0.00  0.00    +0.000 A 
ATOM      4  C   UNL     1       0.909   3.046  19.415  0.00  0.00    +0.000 A 
ATOM      5  C   UNL     1       1.973   3.824  19.896  0.00  0.00    +0.000 A 
ATOM      6  C   UNL     1       3.207   3.768  19.233  0.00  0.00    +0.000 A 
ENDROOT
BRANCH   1   7
ATOM      7  O   UNL     1       4.577   3.041  17.469  0.00  0.00    +0.000 OA
BRANCH   7   8
ATOM      8  C   UNL     1       4.689   4.138  16.553  0.00  0.00    +0.000 C 
BRANCH   8  12
ATOM      9  C   UNL     1       7.604   6.941  18.025  0.00  0.00    +0.000 A 
ATOM     10  C   UNL     1       6.607   7.370  17.149  0.00  0.00    +0.000 A 
ATOM     11  C   UNL     1       5.656   6.466  16.679  0.00  0.00    +0.000 A 
ATOM     12  C   UNL     1       5.699   5.124  17.078  0.00  0.00    +0.000 A 
ATOM     13  C   UNL     1       6.696   4.707  17.971  0.00  0.00    +0.000 A 
ATOM     14  C   UNL     1       7.645   5.613  18.441  0.00  0.00    +0.000 A 
ENDBRANCH   8  12
ENDBRANCH   7   8
ENDBRANCH   1   7
BRANCH   5  15
ATOM     15  C   UNL     1       1.749   4.757  21.061  0.00  0.00    +0.000 C 
BRANCH  15  16
ATOM     16  N   UNL     1       2.488   6.012  20.887  0.00  0.00    +0.000 NA
ATOM     17  H   UNL     1       3.385   5.791  20.443  0.00  0.00    +0.000 HD
BRANCH  16  18
ATOM     18  C   UNL     1       1.758   7.006  20.085  0.00  0.00    +0.000 C 
ATOM     19  C   UNL     1       2.629   7.419  18.876  0.00  0.00    +0.000 C 
ATOM     20  C   UNL     1       1.873   8.380  17.948  0.00  0.00    +0.000 C 
ATOM     21  C   UNL     1       1.194   9.456  18.713  0.00  0.00    +0.000 A 
ATOM     22  N   UNL     1       0.695  10.596  18.286  0.00  0.00    +0.000 NA
ATOM     23  C   UNL     1       0.173  11.152  19.421  0.00  0.00    +0.000 A 
ATOM     24  N   UNL     1       0.311  10.419  20.532  0.00  0.00    +0.000 NA
ATOM     25  N   UNL     1       0.959   9.349  20.051  0.00  0.00    +0.000 N 
ATOM     26  C   UNL     1       1.388   8.265  20.901  0.00  0.00    +0.000 C 
ENDBRANCH  16  18
ENDBRANCH  15  16
ENDBRANCH   5  15
TORSDOF 6
ENDMDL
MODEL 6
REMARK VINA RESULT:      -8.2      3.596      6.866
REMARK  Name = 
REMARK  6 active torsions:
REMARK  status: ('A' for Active; 'I' for Inactive)
REMARK    1  A    between atoms: C_4  and  C_5
REMARK    2  A    between atoms: C_5  and  O_6
REMARK    3  A    between atoms: O_6  and  C_7
REMARK    4  A    between atoms: C_11  and  C_12
REMARK    5  A    between atoms: C_12  and  N_13
REMARK    6  A    between atoms: N_13  and  C_14
REMARK                            x       y       z     vdW  Elec       q    Type
REMARK                         _______ _______ _______ _____ _____    ______ ____
ROOT
ATOM      1  C   UNL     1       1.890   4.880  20.562  0.00  0.00    +0.000 A 
ATOM      2  C   UNL     1       2.050   3.978  21.615  0.00  0.00    +0.000 A 
ATOM      3  C   UNL     1       2.489   2.682  21.367  0.00  0.00    +0.000 A 
ATOM      4  C   UNL     1       2.741   2.274  20.060  0.00  0.00    +0.000 A 
ATOM      5  C   UNL     1       2.533   3.149  18.983  0.00  0.00    +0.000 A 
ATOM      6  C   UNL     1       2.097   4.455  19.246  0.00  0.00    +0.000 A 
ENDROOT
BRANCH   1   7
ATOM      7  O   UNL     1       1.550   6.197  20.725  0.00  0.00    +0.000 OA
BRANCH   7   8
ATOM      8  C   UNL     1       2.238   7.091  19.842  0.00  0.00    +0.000 C 
BRANCH   8  12
ATOM      9  C   UNL     1       0.236  10.900  19.802  0.00  0.00    +0.000 A 
ATOM     10  C   UNL     1       0.829  10.414  18.638  0.00  0.00    +0.000 A 
ATOM     11  C   UNL     1       1.470   9.176  18.646  0.00  0.00    +0.000 A 
ATOM     12  C   UNL     1       1.526   8.418  19.822  0.00  0.00    +0.000 A 
ATOM     13  C   UNL     1       0.914   8.908  20.983  0.00  0.00    +0.000 A 
ATOM     14  C   UNL     1       0.272  10.146  20.973  0.00  0.00    +0.000 A 
ENDBRANCH   8  12
ENDBRANCH   7   8
ENDBRANCH   1   7
BRANCH   5  15
ATOM     15  C   UNL     1       2.856   2.697  17.580  0.00  0.00    +0.000 C 
BRANCH  15  16
ATOM     16  N   UNL     1       4.295   2.782  17.311  0.00  0.00    +0.000 NA
ATOM     17  H   UNL     1       4.474   2.332  16.408  0.00  0.00    +0.000 HD
BRANCH  16  18
ATOM     18  C   UNL     1       4.799   4.164  17.298  0.00  0.00    +0.000 C 
ATOM     19  C   UNL     1       5.199   4.543  15.854  0.00  0.00    +0.000 C 
ATOM     20  C   UNL     1       5.638   6.011  15.766  0.00  0.00    +0.000 C 
ATOM     21  C   UNL     1       6.574   6.369  16.860  0.00  0.00    +0.000 A 
ATOM     22  N   UNL     1       7.369   7.411  16.972  0.00  0.00    +0.000 NA
ATOM     23  C   UNL     1       7.958   7.224  18.192  0.00  0.00    +0.000 A 
ATOM     24  N   UNL     1       7.569   6.128  18.853  0.00  0.00    +0.000 NA
ATOM     25  N   UNL     1       6.690   5.608  17.984  0.00  0.00    +0.000 N 
ATOM     26  C   UNL     1       6.015   4.356  18.232  0.00  0.00    +0.000 C 
ENDBRANCH  16  18
ENDBRANCH  15  16
ENDBRANCH   5  15
TORSDOF 6
ENDMDL
MODEL 7
REMARK VINA RESULT:      -8.1      4.263      6.699
REMARK  Name = 
REMARK  6 active torsions:
REMARK  status: ('A' for Active; 'I' for Inactive)
REMARK    1  A    between atoms: C_4  and  C_5
REMARK    2  A    between atoms: C_5  and  O_6
REMARK    3  A    between atoms: O_6  and  C_7
REMARK    4  A    between atoms: C_11  and  C_12
REMARK    5  A    between atoms: C_12  and  N_13
REMARK    6  A    between atoms: N_13  and  C_14
REMARK                            x       y       z     vdW  Elec       q    Type
REMARK                         _______ _______ _______ _____ _____    ______ ____
ROOT
ATOM      1  C   UNL     1       3.277   3.665  18.137  0.00  0.00    +0.000 A 
ATOM      2  C   UNL     1       2.418   2.584  17.937  0.00  0.00    +0.000 A 
ATOM      3  C   UNL     1       1.250   2.471  18.685  0.00  0.00    +0.000 A 
ATOM      4  C   UNL     1       0.954   3.423  19.656  0.00  0.00    +0.000 A 
ATOM      5  C   UNL     1       1.834   4.487  19.909  0.00  0.00    +0.000 A 
ATOM      6  C   UNL     1       3.004   4.594  19.145  0.00  0.00    +0.000 A 
ENDROOT
BRANCH   1   7
ATOM      7  O   UNL     1       4.398   3.901  17.385  0.00  0.00    +0.000 OA
BRANCH   7   8
ATOM      8  C   UNL     1       4.538   5.263  16.958  0.00  0.00    +0.000 C 
BRANCH   8  12
ATOM      9  C   UNL     1       8.163   6.916  18.585  0.00  0.00    +0.000 A 
ATOM     10  C   UNL     1       7.659   5.717  19.087  0.00  0.00    +0.000 A 
ATOM     11  C   UNL     1       6.491   5.174  18.555  0.00  0.00    +0.000 A 
ATOM     12  C   UNL     1       5.814   5.831  17.519  0.00  0.00    +0.000 A 
ATOM     13  C   UNL     1       6.337   7.029  17.012  0.00  0.00    +0.000 A 
ATOM     14  C   UNL     1       7.507   7.569  17.544  0.00  0.00    +0.000 A 
ENDBRANCH   8  12
ENDBRANCH   7   8
ENDBRANCH   1   7
BRANCH   5  15
ATOM     15  C   UNL     1       1.469   5.530  20.937  0.00  0.00    +0.000 C 
BRANCH  15  16
ATOM     16  N   UNL     1       2.085   6.824  20.624  0.00  0.00    +0.000 NA
ATOM     17  H   UNL     1       2.551   6.739  19.715  0.00  0.00    +0.000 HD
BRANCH  16  18
ATOM     18  C   UNL     1       1.119   7.933  20.597  0.00  0.00    +0.000 C 
ATOM     19  C   UNL     1       1.489   8.897  19.447  0.00  0.00    +0.000 C 
ATOM     20  C   UNL     1       0.452  10.021  19.309  0.00  0.00    +0.000 C 
ATOM     21  C   UNL     1       0.109  10.613  20.626  0.00  0.00    +0.000 A 
ATOM     22  N   UNL     1      -0.504  11.745  20.899  0.00  0.00    +0.000 NA
ATOM     23  C   UNL     1      -0.569  11.741  22.265  0.00  0.00    +0.000 A 
ATOM     24  N   UNL     1      -0.039  10.667  22.861  0.00  0.00    +0.000 NA
ATOM     25  N   UNL     1       0.380   9.968  21.795  0.00  0.00    +0.000 N 
ATOM     26  C   UNL     1       1.083   8.715  21.928  0.00  0.00    +0.000 C 
ENDBRANCH  16  18
ENDBRANCH  15  16
ENDBRANCH   5  15
TORSDOF 6
ENDMDL
MODEL 8
REMARK VINA RESULT:      -8.1      5.019      8.248
REMARK  Name = 
REMARK  6 active torsions:
REMARK  status: ('A' for Active; 'I' for Inactive)
REMARK    1  A    between atoms: C_4  and  C_5
REMARK    2  A    between atoms: C_5  and  O_6
REMARK    3  A    between atoms: O_6  and  C_7
REMARK    4  A    between atoms: C_11  and  C_12
REMARK    5  A    between atoms: C_12  and  N_13
REMARK    6  A    between atoms: N_13  and  C_14
REMARK                            x       y       z     vdW  Elec       q    Type
REMARK                         _______ _______ _______ _____ _____    ______ ____
ROOT
ATOM      1  C   UNL     1       4.933   4.438  18.707  0.00  0.00    +0.000 A 
ATOM      2  C   UNL     1       5.418   4.422  17.399  0.00  0.00    +0.000 A 
ATOM      3  C   UNL     1       5.071   5.436  16.512  0.00  0.00    +0.000 A 
ATOM      4  C   UNL     1       4.215   6.453  16.922  0.00  0.00    +0.000 A 
ATOM      5  C   UNL     1       3.673   6.456  18.217  0.00  0.00    +0.000 A 
ATOM      6  C   UNL     1       4.035   5.433  19.104  0.00  0.00    +0.000 A 
ENDROOT
BRANCH   1   7
ATOM      7  O   UNL     1       5.295   3.532  19.669  0.00  0.00    +0.000 OA
BRANCH   7   8
ATOM      8  C   UNL     1       4.635   2.265  19.555  0.00  0.00    +0.000 C 
BRANCH   8  12
ATOM      9  C   UNL     1       0.401   2.863  20.041  0.00  0.00    +0.000 A 
ATOM     10  C   UNL     1       0.912   2.486  18.800  0.00  0.00    +0.000 A 
ATOM     11  C   UNL     1       2.282   2.282  18.642  0.00  0.00    +0.000 A 
ATOM     12  C   UNL     1       3.151   2.459  19.726  0.00  0.00    +0.000 A 
ATOM     13  C   UNL     1       2.626   2.824  20.974  0.00  0.00    +0.000 A 
ATOM     14  C   UNL     1       1.255   3.025  21.129  0.00  0.00    +0.000 A 
ENDBRANCH   8  12
ENDBRANCH   7   8
ENDBRANCH   1   7
BRANCH   5  15
ATOM     15  C   UNL     1       2.782   7.594  18.651  0.00  0.00    +0.000 C 
BRANCH  15  16
ATOM     16  N   UNL     1       2.353   7.432  20.044  0.00  0.00    +0.000 NA
ATOM     17  H   UNL     1       3.142   7.685  20.648  0.00  0.00    +0.000 HD
BRANCH  16  18
ATOM     18  C   UNL     1       1.173   8.242  20.384  0.00  0.00    +0.000 C 
ATOM     19  C   UNL     1       1.082   9.436  19.406  0.00  0.00    +0.000 C 
ATOM     20  C   UNL     1      -0.190  10.260  19.652  0.00  0.00    +0.000 C 
ATOM     21  C   UNL     1      -0.395  10.530  21.097  0.00  0.00    +0.000 A 
ATOM     22  N   UNL     1      -1.184  11.408  21.678  0.00  0.00    +0.000 NA
ATOM     23  C   UNL     1      -0.979  11.176  23.010  0.00  0.00    +0.000 A 
ATOM     24  N   UNL     1      -0.112  10.198  23.294  0.00  0.00    +0.000 NA
ATOM     25  N   UNL     1       0.239   9.805  22.061  0.00  0.00    +0.000 N 
ATOM     26  C   UNL     1       1.221   8.772  21.835  0.00  0.00    +0.000 C 
ENDBRANCH  16  18
ENDBRANCH  15  16
ENDBRANCH   5  15
TORSDOF 6
ENDMDL
MODEL 9
REMARK VINA RESULT:      -8.1      4.667      9.801
REMARK  Name = 
REMARK  6 active torsions:
REMARK  status: ('A' for Active; 'I' for Inactive)
REMARK    1  A    between atoms: C_4  and  C_5
REMARK    2  A    between atoms: C_5  and  O_6
REMARK    3  A    between atoms: O_6  and  C_7
REMARK    4  A    between atoms: C_11  and  C_12
REMARK    5  A    between atoms: C_12  and  N_13
REMARK    6  A    between atoms: N_13  and  C_14
REMARK                            x       y       z     vdW  Elec       q    Type
REMARK                         _______ _______ _______ _____ _____    ______ ____
ROOT
ATOM      1  C   UNL     1       6.094   5.916  17.454  0.00  0.00    +0.000 A 
ATOM      2  C   UNL     1       6.779   5.111  18.366  0.00  0.00    +0.000 A 
ATOM      3  C   UNL     1       7.866   5.620  19.070  0.00  0.00    +0.000 A 
ATOM      4  C   UNL     1       8.290   6.925  18.840  0.00  0.00    +0.000 A 
ATOM      5  C   UNL     1       7.649   7.731  17.887  0.00  0.00    +0.000 A 
ATOM      6  C   UNL     1       6.551   7.210  17.189  0.00  0.00    +0.000 A 
ENDROOT
BRANCH   1   7
ATOM      7  O   UNL     1       4.963   5.525  16.788  0.00  0.00    +0.000 OA
BRANCH   7   8
ATOM      8  C   UNL     1       3.744   5.826  17.481  0.00  0.00    +0.000 C 
BRANCH   8  12
ATOM      9  C   UNL     1       1.741   2.151  18.482  0.00  0.00    +0.000 A 
ATOM     10  C   UNL     1       1.184   3.372  18.859  0.00  0.00    +0.000 A 
ATOM     11  C   UNL     1       1.826   4.564  18.528  0.00  0.00    +0.000 A 
ATOM     12  C   UNL     1       3.034   4.542  17.820  0.00  0.00    +0.000 A 
ATOM     13  C   UNL     1       3.579   3.310  17.432  0.00  0.00    +0.000 A 
ATOM     14  C   UNL     1       2.934   2.119  17.763  0.00  0.00    +0.000 A 
ENDBRANCH   8  12
ENDBRANCH   7   8
ENDBRANCH   1   7
BRANCH   5  15
ATOM     15  C   UNL     1       8.100   9.158  17.689  0.00  0.00    +0.000 C 
BRANCH  15  16
ATOM     16  N   UNL     1       8.918   9.618  18.817  0.00  0.00    +0.000 NA
ATOM     17  H   UNL     1       9.788   9.078  18.816  0.00  0.00    +0.000 HD
BRANCH  16  18
ATOM     18  C   UNL     1       9.214  11.058  18.765  0.00  0.00    +0.000 C 
ATOM     19  C   UNL     1      10.378  11.299  17.777  0.00  0.00    +0.000 C 
ATOM     20  C   UNL     1      10.661  12.799  17.607  0.00  0.00    +0.000 C 
ATOM     21  C   UNL     1      10.708  13.497  18.916  0.00  0.00    +0.000 A 
ATOM     22  N   UNL     1      11.186  14.687  19.211  0.00  0.00    +0.000 NA
ATOM     23  C   UNL     1      10.925  14.804  20.548  0.00  0.00    +0.000 A 
ATOM     24  N   UNL     1      10.303  13.758  21.104  0.00  0.00    +0.000 NA
ATOM     25  N   UNL     1      10.177  12.947  20.043  0.00  0.00    +0.000 N 
ATOM     26  C   UNL     1       9.592  11.632  20.149  0.00  0.00    +0.000 C 
ENDBRANCH  16  18
ENDBRANCH  15  16
ENDBRANCH   5  15
TORSDOF 6
ENDMDL
