MODEL 1
REMARK VINA RESULT:      -6.7      0.000      0.000
REMARK  Name = 
REMARK  3 active torsions:
REMARK  status: ('A' for Active; 'I' for Inactive)
REMARK    1  A    between atoms: C_2  and  C_3
REMARK    2  A    between atoms: C_3  and  C_10
REMARK    3  A    between atoms: C_4  and  C_5
REMARK                            x       y       z     vdW  Elec       q    Type
REMARK                         _______ _______ _______ _____ _____    ______ ____
ROOT
ATOM      1  C   UNL     1       4.215   4.126  18.631  0.00  0.00    +0.000 C 
ATOM      2  C   UNL     1       4.012   4.060  17.294  0.00  0.00    +0.000 C 
ENDROOT
BRANCH   2   3
ATOM      3  C   UNL     1       5.015   4.447  16.369  0.00  0.00    +0.000 A 
ATOM      4  C   UNL     1       5.298   5.634  15.725  0.00  0.00    +0.000 A 
ATOM      5  C   UNL     1       6.368   5.389  14.829  0.00  0.00    +0.000 A 
ATOM      6  C   UNL     1       6.726   4.067  14.970  0.00  0.00    +0.000 A 
ATOM      7  N   UNL     1       5.916   3.507  15.925  0.00  0.00    +0.000 N 
ATOM      8  H   UNL     1       5.945   2.536  16.210  0.00  0.00    +0.000 HD
ENDBRANCH   2   3
BRANCH   1   9
ATOM      9  C   UNL     1       3.159   3.726  19.595  0.00  0.00    +0.000 A 
ATOM     10  C   UNL     1       3.446   2.890  20.690  0.00  0.00    +0.000 A 
ATOM     11  C   UNL     1       2.442   2.476  21.569  0.00  0.00    +0.000 A 
ATOM     12  C   UNL     1       1.134   2.909  21.383  0.00  0.00    +0.000 A 
ATOM     13  C   UNL     1       0.833   3.761  20.325  0.00  0.00    +0.000 A 
ATOM     14  C   UNL     1       1.836   4.168  19.438  0.00  0.00    +0.000 A 
ENDBRANCH   1   9
BRANCH   1  16
ATOM     15  N   UNL     1       6.604   5.249  19.505  0.00  0.00    +0.000 NA
ATOM     16  C   UNL     1       5.520   4.740  19.109  0.00  0.00    +0.000 C 
ENDBRANCH   1  16
TORSDOF 3
ENDMDL
MODEL 2
REMARK VINA RESULT:      -6.7      0.077      1.243
REMARK  Name = 
REMARK  3 active torsions:
REMARK  status: ('A' for Active; 'I' for Inactive)
REMARK    1  A    between atoms: C_2  and  C_3
REMARK    2  A    between atoms: C_3  and  C_10
REMARK    3  A    between atoms: C_4  and  C_5
REMARK                            x       y       z     vdW  Elec       q    Type
REMARK                         _______ _______ _______ _____ _____    ______ ____
ROOT
ATOM      1  C   UNL     1       4.202   4.067  18.602  0.00  0.00    +0.000 C 
ATOM      2  C   UNL     1       4.006   4.020  17.263  0.00  0.00    +0.000 C 
ENDROOT
BRANCH   2   3
ATOM      3  C   UNL     1       5.009   4.429  16.349  0.00  0.00    +0.000 A 
ATOM      4  C   UNL     1       5.270   5.623  15.707  0.00  0.00    +0.000 A 
ATOM      5  C   UNL     1       6.355   5.402  14.822  0.00  0.00    +0.000 A 
ATOM      6  C   UNL     1       6.742   4.089  14.967  0.00  0.00    +0.000 A 
ATOM      7  N   UNL     1       5.935   3.510  15.915  0.00  0.00    +0.000 N 
ATOM      8  H   UNL     1       5.985   2.541  16.201  0.00  0.00    +0.000 HD
ENDBRANCH   2   3
BRANCH   1   9
ATOM      9  C   UNL     1       3.147   3.643  19.556  0.00  0.00    +0.000 A 
ATOM     10  C   UNL     1       1.798   3.994  19.359  0.00  0.00    +0.000 A 
ATOM     11  C   UNL     1       0.813   3.634  20.282  0.00  0.00    +0.000 A 
ATOM     12  C   UNL     1       1.154   2.896  21.411  0.00  0.00    +0.000 A 
ATOM     13  C   UNL     1       2.477   2.511  21.609  0.00  0.00    +0.000 A 
ATOM     14  C   UNL     1       3.466   2.879  20.690  0.00  0.00    +0.000 A 
ENDBRANCH   1   9
BRANCH   1  16
ATOM     15  N   UNL     1       6.578   5.196  19.503  0.00  0.00    +0.000 NA
ATOM     16  C   UNL     1       5.501   4.684  19.095  0.00  0.00    +0.000 C 
ENDBRANCH   1  16
TORSDOF 3
ENDMDL
MODEL 3
REMARK VINA RESULT:      -6.4      2.348      5.490
REMARK  Name = 
REMARK  3 active torsions:
REMARK  status: ('A' for Active; 'I' for Inactive)
REMARK    1  A    between atoms: C_2  and  C_3
REMARK    2  A    between atoms: C_3  and  C_10
REMARK    3  A    between atoms: C_4  and  C_5
REMARK                            x       y       z     vdW  Elec       q    Type
REMARK                         _______ _______ _______ _____ _____    ______ ____
ROOT
ATOM      1  C   UNL     1       4.485   4.666  18.937  0.00  0.00    +0.000 C 
ATOM      2  C   UNL     1       3.206   5.001  18.642  0.00  0.00    +0.000 C 
ENDROOT
BRANCH   2   3
ATOM      3  C   UNL     1       2.115   4.178  19.017  0.00  0.00    +0.000 A 
ATOM      4  C   UNL     1       1.329   4.110  20.150  0.00  0.00    +0.000 A 
ATOM      5  C   UNL     1       0.454   3.007  19.995  0.00  0.00    +0.000 A 
ATOM      6  C   UNL     1       0.711   2.448  18.764  0.00  0.00    +0.000 A 
ATOM      7  N   UNL     1       1.705   3.180  18.165  0.00  0.00    +0.000 N 
ATOM      8  H   UNL     1       2.107   2.974  17.259  0.00  0.00    +0.000 HD
ENDBRANCH   2   3
BRANCH   1   9
ATOM      9  C   UNL     1       5.624   5.528  18.536  0.00  0.00    +0.000 A 
ATOM     10  C   UNL     1       6.859   5.471  19.211  0.00  0.00    +0.000 A 
ATOM     11  C   UNL     1       7.915   6.317  18.863  0.00  0.00    +0.000 A 
ATOM     12  C   UNL     1       7.765   7.223  17.818  0.00  0.00    +0.000 A 
ATOM     13  C   UNL     1       6.563   7.275  17.118  0.00  0.00    +0.000 A 
ATOM     14  C   UNL     1       5.501   6.435  17.471  0.00  0.00    +0.000 A 
ENDBRANCH   1   9
BRANCH   1  16
ATOM     15  N   UNL     1       4.911   2.188  20.126  0.00  0.00    +0.000 NA
ATOM     16  C   UNL     1       4.718   3.312  19.587  0.00  0.00    +0.000 C 
ENDBRANCH   1  16
TORSDOF 3
ENDMDL
MODEL 4
REMARK VINA RESULT:      -6.4      1.873      6.346
REMARK  Name = 
REMARK  3 active torsions:
REMARK  status: ('A' for Active; 'I' for Inactive)
REMARK    1  A    between atoms: C_2  and  C_3
REMARK    2  A    between atoms: C_3  and  C_10
REMARK    3  A    between atoms: C_4  and  C_5
REMARK                            x       y       z     vdW  Elec       q    Type
REMARK                         _______ _______ _______ _____ _____    ______ ____
ROOT
ATOM      1  C   UNL     1       5.957   4.291  15.931  0.00  0.00    +0.000 C 
ATOM      2  C   UNL     1       4.675   4.022  16.273  0.00  0.00    +0.000 C 
ENDROOT
BRANCH   2   3
ATOM      3  C   UNL     1       4.259   3.976  17.627  0.00  0.00    +0.000 A 
ATOM      4  C   UNL     1       3.754   4.925  18.492  0.00  0.00    +0.000 A 
ATOM      5  C   UNL     1       3.620   4.314  19.764  0.00  0.00    +0.000 A 
ATOM      6  C   UNL     1       4.022   3.004  19.634  0.00  0.00    +0.000 A 
ATOM      7  N   UNL     1       4.386   2.799  18.327  0.00  0.00    +0.000 N 
ATOM      8  H   UNL     1       4.746   1.928  17.958  0.00  0.00    +0.000 HD
ENDBRANCH   2   3
BRANCH   1   9
ATOM      9  C   UNL     1       6.389   4.333  14.512  0.00  0.00    +0.000 A 
ATOM     10  C   UNL     1       5.786   3.513  13.539  0.00  0.00    +0.000 A 
ATOM     11  C   UNL     1       6.226   3.519  12.212  0.00  0.00    +0.000 A 
ATOM     12  C   UNL     1       7.263   4.362  11.828  0.00  0.00    +0.000 A 
ATOM     13  C   UNL     1       7.852   5.203  12.767  0.00  0.00    +0.000 A 
ATOM     14  C   UNL     1       7.420   5.191  14.098  0.00  0.00    +0.000 A 
ENDBRANCH   1   9
BRANCH   1  16
ATOM     15  N   UNL     1       7.801   4.545  17.998  0.00  0.00    +0.000 NA
ATOM     16  C   UNL     1       6.965   4.430  17.061  0.00  0.00    +0.000 C 
ENDBRANCH   1  16
TORSDOF 3
ENDMDL
MODEL 5
REMARK VINA RESULT:      -6.4      2.353      5.623
REMARK  Name = 
REMARK  3 active torsions:
REMARK  status: ('A' for Active; 'I' for Inactive)
REMARK    1  A    between atoms: C_2  and  C_3
REMARK    2  A    between atoms: C_3  and  C_10
REMARK    3  A    between atoms: C_4  and  C_5
REMARK                            x       y       z     vdW  Elec       q    Type
REMARK                         _______ _______ _______ _____ _____    ______ ____
ROOT
ATOM      1  C   UNL     1       4.451   4.663  18.958  0.00  0.00    +0.000 C 
ATOM      2  C   UNL     1       3.170   4.996  18.674  0.00  0.00    +0.000 C 
ENDROOT
BRANCH   2   3
ATOM      3  C   UNL     1       2.085   4.158  19.037  0.00  0.00    +0.000 A 
ATOM      4  C   UNL     1       1.302   4.065  20.170  0.00  0.00    +0.000 A 
ATOM      5  C   UNL     1       0.434   2.958  19.998  0.00  0.00    +0.000 A 
ATOM      6  C   UNL     1       0.693   2.423  18.757  0.00  0.00    +0.000 A 
ATOM      7  N   UNL     1       1.681   3.172  18.168  0.00  0.00    +0.000 N 
ATOM      8  H   UNL     1       2.083   2.985  17.259  0.00  0.00    +0.000 HD
ENDBRANCH   2   3
BRANCH   1   9
ATOM      9  C   UNL     1       5.583   5.541  18.571  0.00  0.00    +0.000 A 
ATOM     10  C   UNL     1       5.468   6.460  17.511  0.00  0.00    +0.000 A 
ATOM     11  C   UNL     1       6.551   7.252  17.117  0.00  0.00    +0.000 A 
ATOM     12  C   UNL     1       7.764   7.156  17.791  0.00  0.00    +0.000 A 
ATOM     13  C   UNL     1       7.890   6.276  18.862  0.00  0.00    +0.000 A 
ATOM     14  C   UNL     1       6.810   5.476  19.251  0.00  0.00    +0.000 A 
ENDBRANCH   1   9
BRANCH   1  16
ATOM     15  N   UNL     1       4.898   2.166  20.098  0.00  0.00    +0.000 NA
ATOM     16  C   UNL     1       4.695   3.299  19.581  0.00  0.00    +0.000 C 
ENDBRANCH   1  16
TORSDOF 3
ENDMDL
MODEL 6
REMARK VINA RESULT:      -6.3      1.312      1.846
REMARK  Name = 
REMARK  3 active torsions:
REMARK  status: ('A' for Active; 'I' for Inactive)
REMARK    1  A    between atoms: C_2  and  C_3
REMARK    2  A    between atoms: C_3  and  C_10
REMARK    3  A    between atoms: C_4  and  C_5
REMARK                            x       y       z     vdW  Elec       q    Type
REMARK                         _______ _______ _______ _____ _____    ______ ____
ROOT
ATOM      1  C   UNL     1       3.836   4.410  18.112  0.00  0.00    +0.000 C 
ATOM      2  C   UNL     1       4.545   3.572  17.319  0.00  0.00    +0.000 C 
ENDROOT
BRANCH   2   3
ATOM      3  C   UNL     1       5.383   4.059  16.284  0.00  0.00    +0.000 A 
ATOM      4  C   UNL     1       5.173   4.320  14.945  0.00  0.00    +0.000 A 
ATOM      5  C   UNL     1       6.420   4.692  14.384  0.00  0.00    +0.000 A 
ATOM      6  C   UNL     1       7.349   4.674  15.399  0.00  0.00    +0.000 A 
ATOM      7  N   UNL     1       6.707   4.311  16.556  0.00  0.00    +0.000 N 
ATOM      8  H   UNL     1       7.157   4.195  17.455  0.00  0.00    +0.000 HD
ENDBRANCH   2   3
BRANCH   1   9
ATOM      9  C   UNL     1       2.955   3.896  19.191  0.00  0.00    +0.000 A 
ATOM     10  C   UNL     1       1.590   4.233  19.244  0.00  0.00    +0.000 A 
ATOM     11  C   UNL     1       0.773   3.786  20.286  0.00  0.00    +0.000 A 
ATOM     12  C   UNL     1       1.302   2.976  21.285  0.00  0.00    +0.000 A 
ATOM     13  C   UNL     1       2.642   2.606  21.236  0.00  0.00    +0.000 A 
ATOM     14  C   UNL     1       3.464   3.060  20.198  0.00  0.00    +0.000 A 
ENDBRANCH   1   9
BRANCH   1  16
ATOM     15  N   UNL     1       3.920   7.122  17.501  0.00  0.00    +0.000 NA
ATOM     16  C   UNL     1       3.882   5.892  17.778  0.00  0.00    +0.000 C 
ENDBRANCH   1  16
TORSDOF 3
ENDMDL
MODEL 7
REMARK VINA RESULT:      -6.3      1.552      1.792
REMARK  Name = 
REMARK  3 active torsions:
REMARK  status: ('A' for Active; 'I' for Inactive)
REMARK    1  A    between atoms: C_2  and  C_3
REMARK    2  A    between atoms: C_3  and  C_10
REMARK    3  A    between atoms: C_4  and  C_5
REMARK                            x       y       z     vdW  Elec       q    Type
REMARK                         _______ _______ _______ _____ _____    ______ ____
ROOT
ATOM      1  C   UNL     1       3.683   4.590  17.680  0.00  0.00    +0.000 C 
ATOM      2  C   UNL     1       4.377   3.734  16.894  0.00  0.00    +0.000 C 
ENDROOT
BRANCH   2   3
ATOM      3  C   UNL     1       5.369   4.191  15.991  0.00  0.00    +0.000 A 
ATOM      4  C   UNL     1       5.387   4.376  14.623  0.00  0.00    +0.000 A 
ATOM      5  C   UNL     1       6.703   4.757  14.262  0.00  0.00    +0.000 A 
ATOM      6  C   UNL     1       7.444   4.821  15.420  0.00  0.00    +0.000 A 
ATOM      7  N   UNL     1       6.621   4.499  16.469  0.00  0.00    +0.000 N 
ATOM      8  H   UNL     1       6.914   4.443  17.437  0.00  0.00    +0.000 HD
ENDBRANCH   2   3
BRANCH   1   9
ATOM      9  C   UNL     1       2.641   4.107  18.620  0.00  0.00    +0.000 A 
ATOM     10  C   UNL     1       2.477   4.685  19.893  0.00  0.00    +0.000 A 
ATOM     11  C   UNL     1       1.527   4.198  20.794  0.00  0.00    +0.000 A 
ATOM     12  C   UNL     1       0.706   3.136  20.432  0.00  0.00    +0.000 A 
ATOM     13  C   UNL     1       0.829   2.569  19.167  0.00  0.00    +0.000 A 
ATOM     14  C   UNL     1       1.787   3.050  18.267  0.00  0.00    +0.000 A 
ENDBRANCH   1   9
BRANCH   1  16
ATOM     15  N   UNL     1       4.127   7.310  17.307  0.00  0.00    +0.000 NA
ATOM     16  C   UNL     1       3.925   6.077  17.476  0.00  0.00    +0.000 C 
ENDBRANCH   1  16
TORSDOF 3
ENDMDL
MODEL 8
REMARK VINA RESULT:      -6.3      1.317      1.378
REMARK  Name = 
REMARK  3 active torsions:
REMARK  status: ('A' for Active; 'I' for Inactive)
REMARK    1  A    between atoms: C_2  and  C_3
REMARK    2  A    between atoms: C_3  and  C_10
REMARK    3  A    between atoms: C_4  and  C_5
REMARK                            x       y       z     vdW  Elec       q    Type
REMARK                         _______ _______ _______ _____ _____    ______ ____
ROOT
ATOM      1  C   UNL     1       3.837   4.442  18.152  0.00  0.00    +0.000 C 
ATOM      2  C   UNL     1       4.559   3.597  17.377  0.00  0.00    +0.000 C 
ENDROOT
BRANCH   2   3
ATOM      3  C   UNL     1       5.388   4.073  16.331  0.00  0.00    +0.000 A 
ATOM      4  C   UNL     1       5.162   4.349  14.998  0.00  0.00    +0.000 A 
ATOM      5  C   UNL     1       6.406   4.698  14.417  0.00  0.00    +0.000 A 
ATOM      6  C   UNL     1       7.352   4.652  15.416  0.00  0.00    +0.000 A 
ATOM      7  N   UNL     1       6.722   4.295  16.581  0.00  0.00    +0.000 N 
ATOM      8  H   UNL     1       7.186   4.162  17.471  0.00  0.00    +0.000 HD
ENDBRANCH   2   3
BRANCH   1   9
ATOM      9  C   UNL     1       2.965   3.939  19.242  0.00  0.00    +0.000 A 
ATOM     10  C   UNL     1       3.468   3.101  20.255  0.00  0.00    +0.000 A 
ATOM     11  C   UNL     1       2.635   2.590  21.254  0.00  0.00    +0.000 A 
ATOM     12  C   UNL     1       1.285   2.925  21.273  0.00  0.00    +0.000 A 
ATOM     13  C   UNL     1       0.773   3.777  20.299  0.00  0.00    +0.000 A 
ATOM     14  C   UNL     1       1.604   4.282  19.292  0.00  0.00    +0.000 A 
ENDBRANCH   1   9
BRANCH   1  16
ATOM     15  N   UNL     1       3.879   7.140  17.479  0.00  0.00    +0.000 NA
ATOM     16  C   UNL     1       3.860   5.916  17.784  0.00  0.00    +0.000 C 
ENDBRANCH   1  16
TORSDOF 3
ENDMDL
MODEL 9
REMARK VINA RESULT:      -6.2      1.854      6.394
REMARK  Name = 
REMARK  3 active torsions:
REMARK  status: ('A' for Active; 'I' for Inactive)
REMARK    1  A    between atoms: C_2  and  C_3
REMARK    2  A    between atoms: C_3  and  C_10
REMARK    3  A    between atoms: C_4  and  C_5
REMARK                            x       y       z     vdW  Elec       q    Type
REMARK                         _______ _______ _______ _____ _____    ______ ____
ROOT
ATOM      1  C   UNL     1       5.961   4.384  15.969  0.00  0.00    +0.000 C 
ATOM      2  C   UNL     1       4.667   4.222  16.334  0.00  0.00    +0.000 C 
ENDROOT
BRANCH   2   3
ATOM      3  C   UNL     1       4.271   4.229  17.695  0.00  0.00    +0.000 A 
ATOM      4  C   UNL     1       4.032   3.227  18.614  0.00  0.00    +0.000 A 
ATOM      5  C   UNL     1       3.557   3.841  19.800  0.00  0.00    +0.000 A 
ATOM      6  C   UNL     1       3.545   5.200  19.582  0.00  0.00    +0.000 A 
ATOM      7  N   UNL     1       4.003   5.430  18.309  0.00  0.00    +0.000 N 
ATOM      8  H   UNL     1       4.076   6.343  17.877  0.00  0.00    +0.000 HD
ENDBRANCH   2   3
BRANCH   1   9
ATOM      9  C   UNL     1       6.371   4.369  14.543  0.00  0.00    +0.000 A 
ATOM     10  C   UNL     1       5.731   3.538  13.605  0.00  0.00    +0.000 A 
ATOM     11  C   UNL     1       6.150   3.491  12.272  0.00  0.00    +0.000 A 
ATOM     12  C   UNL     1       7.204   4.291  11.846  0.00  0.00    +0.000 A 
ATOM     13  C   UNL     1       7.832   5.143  12.750  0.00  0.00    +0.000 A 
ATOM     14  C   UNL     1       7.420   5.185  14.087  0.00  0.00    +0.000 A 
ENDBRANCH   1   9
BRANCH   1  16
ATOM     15  N   UNL     1       7.852   4.523  18.003  0.00  0.00    +0.000 NA
ATOM     16  C   UNL     1       6.995   4.460  17.081  0.00  0.00    +0.000 C 
ENDBRANCH   1  16
TORSDOF 3
ENDMDL
