MODEL 1
REMARK VINA RESULT:      -6.9      0.000      0.000
REMARK  Name = 
REMARK  14 active torsions:
REMARK  status: ('A' for Active; 'I' for Inactive)
REMARK    1  A    between atoms: C_1  and  C_2
REMARK    2  A    between atoms: C_2  and  C_3
REMARK    3  A    between atoms: C_3  and  C_4
REMARK    4  A    between atoms: C_4  and  C_5
REMARK    5  A    between atoms: C_5  and  C_6
REMARK    6  A    between atoms: C_6  and  C_7
REMARK    7  A    between atoms: C_7  and  C_9
REMARK    8  A    between atoms: C_10  and  C_11
REMARK    9  A    between atoms: C_12  and  C_13
REMARK   10  A    between atoms: C_13  and  C_14
REMARK   11  A    between atoms: C_14  and  C_15
REMARK   12  A    between atoms: C_15  and  O_17
REMARK   13  A    between atoms: N_18  and  C_19
REMARK   14  A    between atoms: C_20  and  C_21
REMARK                            x       y       z     vdW  Elec       q    Type
REMARK                         _______ _______ _______ _____ _____    ______ ____
ROOT
ATOM      1  C   UNL     1       4.735   4.582  17.397  0.00  0.00    +0.000 A 
ATOM      2  C   UNL     1       3.709   3.735  18.005  0.00  0.00    +0.000 A 
ATOM      3  C   UNL     1       3.741   2.227  18.033  0.00  0.00    +0.000 C 
ATOM      4  C   UNL     1       2.716   4.572  18.572  0.00  0.00    +0.000 A 
ATOM      5  N   UNL     1       3.098   5.872  18.267  0.00  0.00    +0.000 N 
ATOM      6  C   UNL     1       2.447   7.144  18.542  0.00  0.00    +0.000 C 
ATOM      7  C   UNL     1       4.298   5.891  17.586  0.00  0.00    +0.000 A 
ATOM      8  C   UNL     1       4.912   7.174  17.116  0.00  0.00    +0.000 C 
ENDROOT
BRANCH   1   9
ATOM      9  C   UNL     1       5.979   4.218  16.653  0.00  0.00    +0.000 C 
ATOM     10  O   UNL     1       7.083   4.474  17.100  0.00  0.00    +0.000 OA
BRANCH   9  11
ATOM     11  C   UNL     1       5.865   3.443  15.307  0.00  0.00    +0.000 C 
BRANCH  11  12
ATOM     12  C   UNL     1       5.733   4.317  14.054  0.00  0.00    +0.000 C 
BRANCH  12  13
ATOM     13  C   UNL     1       6.493   3.739  12.858  0.00  0.00    +0.000 C 
BRANCH  13  14
ATOM     14  C   UNL     1       5.552   2.979  11.919  0.00  0.00    +0.000 C 
BRANCH  14  16
ATOM     15  C   UNL     1       3.370   3.028  10.670  0.00  0.00    +0.000 C 
ATOM     16  C   UNL     1       4.355   3.835  11.500  0.00  0.00    +0.000 C 
ENDBRANCH  14  16
ENDBRANCH  13  14
ENDBRANCH  12  13
ENDBRANCH  11  12
ENDBRANCH   9  11
ENDBRANCH   1   9
BRANCH   4  17
ATOM     17  C   UNL     1       1.400   4.199  19.316  0.00  0.00    +0.000 C 
BRANCH  17  18
ATOM     18  C   UNL     1       1.490   4.256  20.843  0.00  0.00    +0.000 C 
BRANCH  18  19
ATOM     19  C   UNL     1       2.107   3.053  21.559  0.00  0.00    +0.000 C 
ATOM     20  O   UNL     1       3.241   2.667  21.453  0.00  0.00    +0.000 OA
BRANCH  19  21
ATOM     21  O   UNL     1       1.197   2.418  22.365  0.00  0.00    +0.000 OA
ATOM     22  H   UNL     1       1.571   1.822  23.040  0.00  0.00    +0.000 HD
ENDBRANCH  19  21
ENDBRANCH  18  19
ENDBRANCH  17  18
ENDBRANCH   4  17
TORSDOF 10
ENDMDL
MODEL 2
REMARK VINA RESULT:      -6.6      2.569      5.271
REMARK  Name = 
REMARK  14 active torsions:
REMARK  status: ('A' for Active; 'I' for Inactive)
REMARK    1  A    between atoms: C_1  and  C_2
REMARK    2  A    between atoms: C_2  and  C_3
REMARK    3  A    between atoms: C_3  and  C_4
REMARK    4  A    between atoms: C_4  and  C_5
REMARK    5  A    between atoms: C_5  and  C_6
REMARK    6  A    between atoms: C_6  and  C_7
REMARK    7  A    between atoms: C_7  and  C_9
REMARK    8  A    between atoms: C_10  and  C_11
REMARK    9  A    between atoms: C_12  and  C_13
REMARK   10  A    between atoms: C_13  and  C_14
REMARK   11  A    between atoms: C_14  and  C_15
REMARK   12  A    between atoms: C_15  and  O_17
REMARK   13  A    between atoms: N_18  and  C_19
REMARK   14  A    between atoms: C_20  and  C_21
REMARK                            x       y       z     vdW  Elec       q    Type
REMARK                         _______ _______ _______ _____ _____    ______ ____
ROOT
ATOM      1  C   UNL     1       4.525   5.343  16.908  0.00  0.00    +0.000 A 
ATOM      2  C   UNL     1       3.456   5.710  17.837  0.00  0.00    +0.000 A 
ATOM      3  C   UNL     1       3.058   7.125  18.177  0.00  0.00    +0.000 C 
ATOM      4  C   UNL     1       2.861   4.522  18.327  0.00  0.00    +0.000 A 
ATOM      5  N   UNL     1       3.581   3.477  17.761  0.00  0.00    +0.000 N 
ATOM      6  C   UNL     1       3.462   2.037  17.933  0.00  0.00    +0.000 C 
ATOM      7  C   UNL     1       4.557   3.950  16.908  0.00  0.00    +0.000 A 
ATOM      8  C   UNL     1       5.490   3.022  16.194  0.00  0.00    +0.000 C 
ENDROOT
BRANCH   1   9
ATOM      9  C   UNL     1       5.475   6.198  16.134  0.00  0.00    +0.000 C 
ATOM     10  O   UNL     1       5.096   6.884  15.202  0.00  0.00    +0.000 OA
BRANCH   9  11
ATOM     11  C   UNL     1       6.971   6.260  16.564  0.00  0.00    +0.000 C 
BRANCH  11  12
ATOM     12  C   UNL     1       7.247   6.991  17.882  0.00  0.00    +0.000 C 
BRANCH  12  13
ATOM     13  C   UNL     1       7.619   8.461  17.666  0.00  0.00    +0.000 C 
BRANCH  13  14
ATOM     14  C   UNL     1       8.803   8.868  18.547  0.00  0.00    +0.000 C 
BRANCH  14  16
ATOM     15  C   UNL     1       9.460  10.869  19.922  0.00  0.00    +0.000 C 
ATOM     16  C   UNL     1       9.013  10.383  18.551  0.00  0.00    +0.000 C 
ENDBRANCH  14  16
ENDBRANCH  13  14
ENDBRANCH  12  13
ENDBRANCH  11  12
ENDBRANCH   9  11
ENDBRANCH   1   9
BRANCH   4  17
ATOM     17  C   UNL     1       1.703   4.332  19.351  0.00  0.00    +0.000 C 
BRANCH  17  18
ATOM     18  C   UNL     1       2.135   4.369  20.820  0.00  0.00    +0.000 C 
BRANCH  18  19
ATOM     19  C   UNL     1       2.216   3.033  21.563  0.00  0.00    +0.000 C 
ATOM     20  O   UNL     1       1.338   2.521  22.203  0.00  0.00    +0.000 OA
BRANCH  19  21
ATOM     21  O   UNL     1       3.452   2.452  21.430  0.00  0.00    +0.000 OA
ATOM     22  H   UNL     1       4.191   3.064  21.256  0.00  0.00    +0.000 HD
ENDBRANCH  19  21
ENDBRANCH  18  19
ENDBRANCH  17  18
ENDBRANCH   4  17
TORSDOF 10
ENDMDL
MODEL 3
REMARK VINA RESULT:      -6.6      0.930      1.057
REMARK  Name = 
REMARK  14 active torsions:
REMARK  status: ('A' for Active; 'I' for Inactive)
REMARK    1  A    between atoms: C_1  and  C_2
REMARK    2  A    between atoms: C_2  and  C_3
REMARK    3  A    between atoms: C_3  and  C_4
REMARK    4  A    between atoms: C_4  and  C_5
REMARK    5  A    between atoms: C_5  and  C_6
REMARK    6  A    between atoms: C_6  and  C_7
REMARK    7  A    between atoms: C_7  and  C_9
REMARK    8  A    between atoms: C_10  and  C_11
REMARK    9  A    between atoms: C_12  and  C_13
REMARK   10  A    between atoms: C_13  and  C_14
REMARK   11  A    between atoms: C_14  and  C_15
REMARK   12  A    between atoms: C_15  and  O_17
REMARK   13  A    between atoms: N_18  and  C_19
REMARK   14  A    between atoms: C_20  and  C_21
REMARK                            x       y       z     vdW  Elec       q    Type
REMARK                         _______ _______ _______ _____ _____    ______ ____
ROOT
ATOM      1  C   UNL     1       5.347   4.878  17.162  0.00  0.00    +0.000 A 
ATOM      2  C   UNL     1       4.238   4.018  17.578  0.00  0.00    +0.000 A 
ATOM      3  C   UNL     1       4.257   2.510  17.542  0.00  0.00    +0.000 C 
ATOM      4  C   UNL     1       3.179   4.841  18.031  0.00  0.00    +0.000 A 
ATOM      5  N   UNL     1       3.609   6.149  17.843  0.00  0.00    +0.000 N 
ATOM      6  C   UNL     1       2.932   7.416  18.078  0.00  0.00    +0.000 C 
ATOM      7  C   UNL     1       4.895   6.183  17.344  0.00  0.00    +0.000 A 
ATOM      8  C   UNL     1       5.577   7.477  17.025  0.00  0.00    +0.000 C 
ENDROOT
BRANCH   1   9
ATOM      9  C   UNL     1       6.683   4.531  16.590  0.00  0.00    +0.000 C 
ATOM     10  O   UNL     1       7.658   4.379  17.304  0.00  0.00    +0.000 OA
BRANCH   9  11
ATOM     11  C   UNL     1       6.821   4.303  15.055  0.00  0.00    +0.000 C 
BRANCH  11  12
ATOM     12  C   UNL     1       5.500   4.228  14.280  0.00  0.00    +0.000 C 
BRANCH  12  13
ATOM     13  C   UNL     1       5.625   3.403  12.996  0.00  0.00    +0.000 C 
BRANCH  13  14
ATOM     14  C   UNL     1       4.848   4.048  11.845  0.00  0.00    +0.000 C 
BRANCH  14  16
ATOM     15  C   UNL     1       3.169   3.702  10.006  0.00  0.00    +0.000 C 
ATOM     16  C   UNL     1       3.939   3.042  11.139  0.00  0.00    +0.000 C 
ENDBRANCH  14  16
ENDBRANCH  13  14
ENDBRANCH  12  13
ENDBRANCH  11  12
ENDBRANCH   9  11
ENDBRANCH   1   9
BRANCH   4  17
ATOM     17  C   UNL     1       1.767   4.453  18.561  0.00  0.00    +0.000 C 
BRANCH  17  18
ATOM     18  C   UNL     1       1.641   4.422  20.087  0.00  0.00    +0.000 C 
BRANCH  18  19
ATOM     19  C   UNL     1       1.622   3.050  20.764  0.00  0.00    +0.000 C 
ATOM     20  O   UNL     1       1.590   2.841  21.947  0.00  0.00    +0.000 OA
BRANCH  19  21
ATOM     21  O   UNL     1       1.655   2.030  19.847  0.00  0.00    +0.000 OA
ATOM     22  H   UNL     1       1.305   1.173  20.154  0.00  0.00    +0.000 HD
ENDBRANCH  19  21
ENDBRANCH  18  19
ENDBRANCH  17  18
ENDBRANCH   4  17
TORSDOF 10
ENDMDL
MODEL 4
REMARK VINA RESULT:      -6.6      2.518      5.140
REMARK  Name = 
REMARK  14 active torsions:
REMARK  status: ('A' for Active; 'I' for Inactive)
REMARK    1  A    between atoms: C_1  and  C_2
REMARK    2  A    between atoms: C_2  and  C_3
REMARK    3  A    between atoms: C_3  and  C_4
REMARK    4  A    between atoms: C_4  and  C_5
REMARK    5  A    between atoms: C_5  and  C_6
REMARK    6  A    between atoms: C_6  and  C_7
REMARK    7  A    between atoms: C_7  and  C_9
REMARK    8  A    between atoms: C_10  and  C_11
REMARK    9  A    between atoms: C_12  and  C_13
REMARK   10  A    between atoms: C_13  and  C_14
REMARK   11  A    between atoms: C_14  and  C_15
REMARK   12  A    between atoms: C_15  and  O_17
REMARK   13  A    between atoms: N_18  and  C_19
REMARK   14  A    between atoms: C_20  and  C_21
REMARK                            x       y       z     vdW  Elec       q    Type
REMARK                         _______ _______ _______ _____ _____    ______ ____
ROOT
ATOM      1  C   UNL     1       4.244   5.555  16.974  0.00  0.00    +0.000 A 
ATOM      2  C   UNL     1       3.047   5.750  17.793  0.00  0.00    +0.000 A 
ATOM      3  C   UNL     1       2.483   7.092  18.190  0.00  0.00    +0.000 C 
ATOM      4  C   UNL     1       2.513   4.478  18.116  0.00  0.00    +0.000 A 
ATOM      5  N   UNL     1       3.387   3.550  17.562  0.00  0.00    +0.000 N 
ATOM      6  C   UNL     1       3.384   2.096  17.608  0.00  0.00    +0.000 C 
ATOM      7  C   UNL     1       4.405   4.175  16.871  0.00  0.00    +0.000 A 
ATOM      8  C   UNL     1       5.495   3.394  16.207  0.00  0.00    +0.000 C 
ENDROOT
BRANCH   1   9
ATOM      9  C   UNL     1       5.192   6.551  16.388  0.00  0.00    +0.000 C 
ATOM     10  O   UNL     1       5.202   6.788  15.193  0.00  0.00    +0.000 OA
BRANCH   9  11
ATOM     11  C   UNL     1       6.145   7.344  17.329  0.00  0.00    +0.000 C 
BRANCH  11  12
ATOM     12  C   UNL     1       7.239   6.512  18.010  0.00  0.00    +0.000 C 
BRANCH  12  13
ATOM     13  C   UNL     1       8.365   7.382  18.576  0.00  0.00    +0.000 C 
BRANCH  13  14
ATOM     14  C   UNL     1       8.297   8.807  18.018  0.00  0.00    +0.000 C 
BRANCH  14  16
ATOM     15  C   UNL     1       9.078  11.183  18.280  0.00  0.00    +0.000 C 
ATOM     16  C   UNL     1       9.017   9.806  18.924  0.00  0.00    +0.000 C 
ENDBRANCH  14  16
ENDBRANCH  13  14
ENDBRANCH  12  13
ENDBRANCH  11  12
ENDBRANCH   9  11
ENDBRANCH   1   9
BRANCH   4  17
ATOM     17  C   UNL     1       1.270   4.104  18.975  0.00  0.00    +0.000 C 
BRANCH  17  18
ATOM     18  C   UNL     1       1.547   3.105  20.101  0.00  0.00    +0.000 C 
BRANCH  18  19
ATOM     19  C   UNL     1       2.175   3.648  21.387  0.00  0.00    +0.000 C 
ATOM     20  O   UNL     1       2.512   3.002  22.342  0.00  0.00    +0.000 OA
BRANCH  19  21
ATOM     21  O   UNL     1       2.316   5.012  21.347  0.00  0.00    +0.000 OA
ATOM     22  H   UNL     1       1.622   5.495  20.860  0.00  0.00    +0.000 HD
ENDBRANCH  19  21
ENDBRANCH  18  19
ENDBRANCH  17  18
ENDBRANCH   4  17
TORSDOF 10
ENDMDL
MODEL 5
REMARK VINA RESULT:      -6.6      3.167      4.694
REMARK  Name = 
REMARK  14 active torsions:
REMARK  status: ('A' for Active; 'I' for Inactive)
REMARK    1  A    between atoms: C_1  and  C_2
REMARK    2  A    between atoms: C_2  and  C_3
REMARK    3  A    between atoms: C_3  and  C_4
REMARK    4  A    between atoms: C_4  and  C_5
REMARK    5  A    between atoms: C_5  and  C_6
REMARK    6  A    between atoms: C_6  and  C_7
REMARK    7  A    between atoms: C_7  and  C_9
REMARK    8  A    between atoms: C_10  and  C_11
REMARK    9  A    between atoms: C_12  and  C_13
REMARK   10  A    between atoms: C_13  and  C_14
REMARK   11  A    between atoms: C_14  and  C_15
REMARK   12  A    between atoms: C_15  and  O_17
REMARK   13  A    between atoms: N_18  and  C_19
REMARK   14  A    between atoms: C_20  and  C_21
REMARK                            x       y       z     vdW  Elec       q    Type
REMARK                         _______ _______ _______ _____ _____    ______ ____
ROOT
ATOM      1  C   UNL     1       4.973   5.001  18.281  0.00  0.00    +0.000 A 
ATOM      2  C   UNL     1       4.281   4.223  19.309  0.00  0.00    +0.000 A 
ATOM      3  C   UNL     1       4.740   2.883  19.829  0.00  0.00    +0.000 C 
ATOM      4  C   UNL     1       3.143   4.952  19.733  0.00  0.00    +0.000 A 
ATOM      5  N   UNL     1       3.117   6.100  18.951  0.00  0.00    +0.000 N 
ATOM      6  C   UNL     1       2.159   7.194  18.900  0.00  0.00    +0.000 C 
ATOM      7  C   UNL     1       4.202   6.147  18.100  0.00  0.00    +0.000 A 
ATOM      8  C   UNL     1       4.388   7.273  17.130  0.00  0.00    +0.000 C 
ENDROOT
BRANCH   1   9
ATOM      9  C   UNL     1       6.203   4.691  17.492  0.00  0.00    +0.000 C 
ATOM     10  O   UNL     1       6.134   4.253  16.357  0.00  0.00    +0.000 OA
BRANCH   9  11
ATOM     11  C   UNL     1       7.602   4.988  18.108  0.00  0.00    +0.000 C 
BRANCH  11  12
ATOM     12  C   UNL     1       7.846   6.446  18.513  0.00  0.00    +0.000 C 
BRANCH  12  13
ATOM     13  C   UNL     1       7.764   7.403  17.320  0.00  0.00    +0.000 C 
BRANCH  13  14
ATOM     14  C   UNL     1       7.702   8.861  17.784  0.00  0.00    +0.000 C 
BRANCH  14  16
ATOM     15  C   UNL     1       9.285  10.639  18.595  0.00  0.00    +0.000 C 
ATOM     16  C   UNL     1       8.835   9.196  18.757  0.00  0.00    +0.000 C 
ENDBRANCH  14  16
ENDBRANCH  13  14
ENDBRANCH  12  13
ENDBRANCH  11  12
ENDBRANCH   9  11
ENDBRANCH   1   9
BRANCH   4  17
ATOM     17  C   UNL     1       2.053   4.582  20.781  0.00  0.00    +0.000 C 
BRANCH  17  18
ATOM     18  C   UNL     1       0.845   3.833  20.211  0.00  0.00    +0.000 C 
BRANCH  18  19
ATOM     19  C   UNL     1       1.104   2.836  19.080  0.00  0.00    +0.000 C 
ATOM     20  O   UNL     1       1.486   1.703  19.204  0.00  0.00    +0.000 OA
BRANCH  19  21
ATOM     21  O   UNL     1       0.856   3.387  17.849  0.00  0.00    +0.000 OA
ATOM     22  H   UNL     1       1.616   3.820  17.417  0.00  0.00    +0.000 HD
ENDBRANCH  19  21
ENDBRANCH  18  19
ENDBRANCH  17  18
ENDBRANCH   4  17
TORSDOF 10
ENDMDL
MODEL 6
REMARK VINA RESULT:      -6.6      2.650      4.463
REMARK  Name = 
REMARK  14 active torsions:
REMARK  status: ('A' for Active; 'I' for Inactive)
REMARK    1  A    between atoms: C_1  and  C_2
REMARK    2  A    between atoms: C_2  and  C_3
REMARK    3  A    between atoms: C_3  and  C_4
REMARK    4  A    between atoms: C_4  and  C_5
REMARK    5  A    between atoms: C_5  and  C_6
REMARK    6  A    between atoms: C_6  and  C_7
REMARK    7  A    between atoms: C_7  and  C_9
REMARK    8  A    between atoms: C_10  and  C_11
REMARK    9  A    between atoms: C_12  and  C_13
REMARK   10  A    between atoms: C_13  and  C_14
REMARK   11  A    between atoms: C_14  and  C_15
REMARK   12  A    between atoms: C_15  and  O_17
REMARK   13  A    between atoms: N_18  and  C_19
REMARK   14  A    between atoms: C_20  and  C_21
REMARK                            x       y       z     vdW  Elec       q    Type
REMARK                         _______ _______ _______ _____ _____    ______ ____
ROOT
ATOM      1  C   UNL     1       4.858   4.935  17.534  0.00  0.00    +0.000 A 
ATOM      2  C   UNL     1       4.044   4.391  18.621  0.00  0.00    +0.000 A 
ATOM      3  C   UNL     1       4.271   3.054  19.281  0.00  0.00    +0.000 C 
ATOM      4  C   UNL     1       3.044   5.339  18.949  0.00  0.00    +0.000 A 
ATOM      5  N   UNL     1       3.211   6.389  18.055  0.00  0.00    +0.000 N 
ATOM      6  C   UNL     1       2.449   7.617  17.877  0.00  0.00    +0.000 C 
ATOM      7  C   UNL     1       4.290   6.169  17.224  0.00  0.00    +0.000 A 
ATOM      8  C   UNL     1       4.663   7.143  16.150  0.00  0.00    +0.000 C 
ENDROOT
BRANCH   1   9
ATOM      9  C   UNL     1       6.020   4.346  16.802  0.00  0.00    +0.000 C 
ATOM     10  O   UNL     1       5.867   3.725  15.765  0.00  0.00    +0.000 OA
BRANCH   9  11
ATOM     11  C   UNL     1       7.462   4.580  17.343  0.00  0.00    +0.000 C 
BRANCH  11  12
ATOM     12  C   UNL     1       7.606   5.716  18.361  0.00  0.00    +0.000 C 
BRANCH  12  13
ATOM     13  C   UNL     1       7.775   7.082  17.690  0.00  0.00    +0.000 C 
BRANCH  13  14
ATOM     14  C   UNL     1       8.447   8.083  18.634  0.00  0.00    +0.000 C 
BRANCH  14  16
ATOM     15  C   UNL     1       9.273  10.444  18.892  0.00  0.00    +0.000 C 
ATOM     16  C   UNL     1       8.386   9.510  18.085  0.00  0.00    +0.000 C 
ENDBRANCH  14  16
ENDBRANCH  13  14
ENDBRANCH  12  13
ENDBRANCH  11  12
ENDBRANCH   9  11
ENDBRANCH   1   9
BRANCH   4  17
ATOM     17  C   UNL     1       1.905   5.264  20.008  0.00  0.00    +0.000 C 
BRANCH  17  18
ATOM     18  C   UNL     1       2.226   4.406  21.235  0.00  0.00    +0.000 C 
BRANCH  18  19
ATOM     19  C   UNL     1       1.442   3.104  21.408  0.00  0.00    +0.000 C 
ATOM     20  O   UNL     1       1.641   2.259  22.239  0.00  0.00    +0.000 OA
BRANCH  19  21
ATOM     21  O   UNL     1       0.446   2.981  20.473  0.00  0.00    +0.000 OA
ATOM     22  H   UNL     1      -0.419   2.685  20.811  0.00  0.00    +0.000 HD
ENDBRANCH  19  21
ENDBRANCH  18  19
ENDBRANCH  17  18
ENDBRANCH   4  17
TORSDOF 10
ENDMDL
MODEL 7
REMARK VINA RESULT:      -6.5      0.615      1.033
REMARK  Name = 
REMARK  14 active torsions:
REMARK  status: ('A' for Active; 'I' for Inactive)
REMARK    1  A    between atoms: C_1  and  C_2
REMARK    2  A    between atoms: C_2  and  C_3
REMARK    3  A    between atoms: C_3  and  C_4
REMARK    4  A    between atoms: C_4  and  C_5
REMARK    5  A    between atoms: C_5  and  C_6
REMARK    6  A    between atoms: C_6  and  C_7
REMARK    7  A    between atoms: C_7  and  C_9
REMARK    8  A    between atoms: C_10  and  C_11
REMARK    9  A    between atoms: C_12  and  C_13
REMARK   10  A    between atoms: C_13  and  C_14
REMARK   11  A    between atoms: C_14  and  C_15
REMARK   12  A    between atoms: C_15  and  O_17
REMARK   13  A    between atoms: N_18  and  C_19
REMARK   14  A    between atoms: C_20  and  C_21
REMARK                            x       y       z     vdW  Elec       q    Type
REMARK                         _______ _______ _______ _____ _____    ______ ____
ROOT
ATOM      1  C   UNL     1       4.473   4.888  17.130  0.00  0.00    +0.000 A 
ATOM      2  C   UNL     1       3.550   3.970  17.799  0.00  0.00    +0.000 A 
ATOM      3  C   UNL     1       3.585   2.467  17.671  0.00  0.00    +0.000 C 
ATOM      4  C   UNL     1       2.655   4.732  18.589  0.00  0.00    +0.000 A 
ATOM      5  N   UNL     1       2.987   6.062  18.362  0.00  0.00    +0.000 N 
ATOM      6  C   UNL     1       2.387   7.291  18.858  0.00  0.00    +0.000 C 
ATOM      7  C   UNL     1       4.070   6.166  17.513  0.00  0.00    +0.000 A 
ATOM      8  C   UNL     1       4.606   7.497  17.087  0.00  0.00    +0.000 C 
ENDROOT
BRANCH   1   9
ATOM      9  C   UNL     1       5.589   4.617  16.174  0.00  0.00    +0.000 C 
ATOM     10  O   UNL     1       6.585   4.006  16.519  0.00  0.00    +0.000 OA
BRANCH   9  11
ATOM     11  C   UNL     1       5.453   5.074  14.692  0.00  0.00    +0.000 C 
BRANCH  11  12
ATOM     12  C   UNL     1       6.105   4.150  13.657  0.00  0.00    +0.000 C 
BRANCH  12  13
ATOM     13  C   UNL     1       5.098   3.190  13.016  0.00  0.00    +0.000 C 
BRANCH  13  14
ATOM     14  C   UNL     1       4.990   3.428  11.508  0.00  0.00    +0.000 C 
BRANCH  14  16
ATOM     15  C   UNL     1       3.157   4.048   9.901  0.00  0.00    +0.000 C 
ATOM     16  C   UNL     1       3.602   3.067  10.975  0.00  0.00    +0.000 C 
ENDBRANCH  14  16
ENDBRANCH  13  14
ENDBRANCH  12  13
ENDBRANCH  11  12
ENDBRANCH   9  11
ENDBRANCH   1   9
BRANCH   4  17
ATOM     17  C   UNL     1       1.467   4.268  19.483  0.00  0.00    +0.000 C 
BRANCH  17  18
ATOM     18  C   UNL     1       1.760   4.262  20.986  0.00  0.00    +0.000 C 
BRANCH  18  19
ATOM     19  C   UNL     1       2.052   2.910  21.641  0.00  0.00    +0.000 C 
ATOM     20  O   UNL     1       1.268   2.228  22.244  0.00  0.00    +0.000 OA
BRANCH  19  21
ATOM     21  O   UNL     1       3.361   2.536  21.474  0.00  0.00    +0.000 OA
ATOM     22  H   UNL     1       3.738   1.984  22.184  0.00  0.00    +0.000 HD
ENDBRANCH  19  21
ENDBRANCH  18  19
ENDBRANCH  17  18
ENDBRANCH   4  17
TORSDOF 10
ENDMDL
MODEL 8
REMARK VINA RESULT:      -6.4      0.738      1.054
REMARK  Name = 
REMARK  14 active torsions:
REMARK  status: ('A' for Active; 'I' for Inactive)
REMARK    1  A    between atoms: C_1  and  C_2
REMARK    2  A    between atoms: C_2  and  C_3
REMARK    3  A    between atoms: C_3  and  C_4
REMARK    4  A    between atoms: C_4  and  C_5
REMARK    5  A    between atoms: C_5  and  C_6
REMARK    6  A    between atoms: C_6  and  C_7
REMARK    7  A    between atoms: C_7  and  C_9
REMARK    8  A    between atoms: C_10  and  C_11
REMARK    9  A    between atoms: C_12  and  C_13
REMARK   10  A    between atoms: C_13  and  C_14
REMARK   11  A    between atoms: C_14  and  C_15
REMARK   12  A    between atoms: C_15  and  O_17
REMARK   13  A    between atoms: N_18  and  C_19
REMARK   14  A    between atoms: C_20  and  C_21
REMARK                            x       y       z     vdW  Elec       q    Type
REMARK                         _______ _______ _______ _____ _____    ______ ____
ROOT
ATOM      1  C   UNL     1       4.479   4.569  17.196  0.00  0.00    +0.000 A 
ATOM      2  C   UNL     1       3.493   3.638  17.746  0.00  0.00    +0.000 A 
ATOM      3  C   UNL     1       3.503   2.145  17.527  0.00  0.00    +0.000 C 
ATOM      4  C   UNL     1       2.566   4.374  18.523  0.00  0.00    +0.000 A 
ATOM      5  N   UNL     1       2.942   5.705  18.401  0.00  0.00    +0.000 N 
ATOM      6  C   UNL     1       2.338   6.917  18.933  0.00  0.00    +0.000 C 
ATOM      7  C   UNL     1       4.081   5.832  17.632  0.00  0.00    +0.000 A 
ATOM      8  C   UNL     1       4.674   7.172  17.325  0.00  0.00    +0.000 C 
ENDROOT
BRANCH   1   9
ATOM      9  C   UNL     1       5.649   4.328  16.300  0.00  0.00    +0.000 C 
ATOM     10  O   UNL     1       6.761   4.115  16.751  0.00  0.00    +0.000 OA
BRANCH   9  11
ATOM     11  C   UNL     1       5.435   4.288  14.758  0.00  0.00    +0.000 C 
BRANCH  11  12
ATOM     12  C   UNL     1       6.716   4.306  13.915  0.00  0.00    +0.000 C 
BRANCH  12  13
ATOM     13  C   UNL     1       6.439   4.057  12.430  0.00  0.00    +0.000 C 
BRANCH  13  14
ATOM     14  C   UNL     1       6.366   2.558  12.124  0.00  0.00    +0.000 C 
BRANCH  14  16
ATOM     15  C   UNL     1       4.098   3.304  11.332  0.00  0.00    +0.000 C 
ATOM     16  C   UNL     1       5.158   2.215  11.251  0.00  0.00    +0.000 C 
ENDBRANCH  14  16
ENDBRANCH  13  14
ENDBRANCH  12  13
ENDBRANCH  11  12
ENDBRANCH   9  11
ENDBRANCH   1   9
BRANCH   4  17
ATOM     17  C   UNL     1       1.311   3.888  19.307  0.00  0.00    +0.000 C 
BRANCH  17  18
ATOM     18  C   UNL     1       1.536   2.642  20.168  0.00  0.00    +0.000 C 
BRANCH  18  19
ATOM     19  C   UNL     1       2.513   2.763  21.340  0.00  0.00    +0.000 C 
ATOM     20  O   UNL     1       2.279   3.248  22.414  0.00  0.00    +0.000 OA
BRANCH  19  21
ATOM     21  O   UNL     1       3.746   2.247  21.030  0.00  0.00    +0.000 OA
ATOM     22  H   UNL     1       3.802   1.761  20.186  0.00  0.00    +0.000 HD
ENDBRANCH  19  21
ENDBRANCH  18  19
ENDBRANCH  17  18
ENDBRANCH   4  17
TORSDOF 10
ENDMDL
MODEL 9
REMARK VINA RESULT:      -6.4      1.497      1.663
REMARK  Name = 
REMARK  14 active torsions:
REMARK  status: ('A' for Active; 'I' for Inactive)
REMARK    1  A    between atoms: C_1  and  C_2
REMARK    2  A    between atoms: C_2  and  C_3
REMARK    3  A    between atoms: C_3  and  C_4
REMARK    4  A    between atoms: C_4  and  C_5
REMARK    5  A    between atoms: C_5  and  C_6
REMARK    6  A    between atoms: C_6  and  C_7
REMARK    7  A    between atoms: C_7  and  C_9
REMARK    8  A    between atoms: C_10  and  C_11
REMARK    9  A    between atoms: C_12  and  C_13
REMARK   10  A    between atoms: C_13  and  C_14
REMARK   11  A    between atoms: C_14  and  C_15
REMARK   12  A    between atoms: C_15  and  O_17
REMARK   13  A    between atoms: N_18  and  C_19
REMARK   14  A    between atoms: C_20  and  C_21
REMARK                            x       y       z     vdW  Elec       q    Type
REMARK                         _______ _______ _______ _____ _____    ______ ____
ROOT
ATOM      1  C   UNL     1       4.840   4.996  18.063  0.00  0.00    +0.000 A 
ATOM      2  C   UNL     1       4.266   4.058  19.028  0.00  0.00    +0.000 A 
ATOM      3  C   UNL     1       4.734   2.638  19.232  0.00  0.00    +0.000 C 
ATOM      4  C   UNL     1       3.233   4.719  19.737  0.00  0.00    +0.000 A 
ATOM      5  N   UNL     1       3.147   5.990  19.180  0.00  0.00    +0.000 N 
ATOM      6  C   UNL     1       2.241   7.092  19.464  0.00  0.00    +0.000 C 
ATOM      7  C   UNL     1       4.102   6.170  18.201  0.00  0.00    +0.000 A 
ATOM      8  C   UNL     1       4.198   7.448  17.427  0.00  0.00    +0.000 C 
ENDROOT
BRANCH   1   9
ATOM      9  C   UNL     1       5.930   4.810  17.058  0.00  0.00    +0.000 C 
ATOM     10  O   UNL     1       7.053   4.476  17.395  0.00  0.00    +0.000 OA
BRANCH   9  11
ATOM     11  C   UNL     1       5.613   4.990  15.544  0.00  0.00    +0.000 C 
BRANCH  11  12
ATOM     12  C   UNL     1       5.759   3.728  14.687  0.00  0.00    +0.000 C 
BRANCH  12  13
ATOM     13  C   UNL     1       6.571   3.980  13.413  0.00  0.00    +0.000 C 
BRANCH  13  14
ATOM     14  C   UNL     1       5.950   3.264  12.211  0.00  0.00    +0.000 C 
BRANCH  14  16
ATOM     15  C   UNL     1       3.816   2.871  10.939  0.00  0.00    +0.000 C 
ATOM     16  C   UNL     1       4.555   3.802  11.887  0.00  0.00    +0.000 C 
ENDBRANCH  14  16
ENDBRANCH  13  14
ENDBRANCH  12  13
ENDBRANCH  11  12
ENDBRANCH   9  11
ENDBRANCH   1   9
BRANCH   4  17
ATOM     17  C   UNL     1       2.287   4.187  20.852  0.00  0.00    +0.000 C 
BRANCH  17  18
ATOM     18  C   UNL     1       1.014   3.506  20.342  0.00  0.00    +0.000 C 
BRANCH  18  19
ATOM     19  C   UNL     1       1.051   2.909  18.933  0.00  0.00    +0.000 C 
ATOM     20  O   UNL     1       0.803   3.486  17.909  0.00  0.00    +0.000 OA
BRANCH  19  21
ATOM     21  O   UNL     1       1.403   1.583  18.953  0.00  0.00    +0.000 OA
ATOM     22  H   UNL     1       0.672   0.949  18.832  0.00  0.00    +0.000 HD
ENDBRANCH  19  21
ENDBRANCH  18  19
ENDBRANCH  17  18
ENDBRANCH   4  17
TORSDOF 10
ENDMDL
