MODEL 1
REMARK VINA RESULT:      -7.9      0.000      0.000
REMARK  Name = 
REMARK  3 active torsions:
REMARK  status: ('A' for Active; 'I' for Inactive)
REMARK    1  A    between atoms: C_2  and  C_11
REMARK    2  A    between atoms: N_3  and  C_4
REMARK    3  A    between atoms: C_7  and  O_8
REMARK                            x       y       z     vdW  Elec       q    Type
REMARK                         _______ _______ _______ _____ _____    ______ ____
ROOT
ATOM      1  C   UNL     1       5.836   4.716  16.916  0.00  0.00    +0.000 A 
ATOM      2  C   UNL     1       5.337   3.945  15.938  0.00  0.00    +0.000 A 
ATOM      3  C   UNL     1       5.899   3.971  14.599  0.00  0.00    +0.000 A 
ATOM      4  C   UNL     1       5.376   3.179  13.575  0.00  0.00    +0.000 A 
ATOM      5  C   UNL     1       5.894   3.289  12.284  0.00  0.00    +0.000 A 
ATOM      6 CL   UNL     1       5.241   2.319  11.022  0.00  0.00    +0.000 Cl
ATOM      7  C   UNL     1       6.926   4.184  12.004  0.00  0.00    +0.000 A 
ATOM      8  C   UNL     1       7.457   4.967  13.032  0.00  0.00    +0.000 A 
ATOM      9 BR   UNL     1       8.849   6.183  12.625  0.00  0.00    +0.000 Br
ATOM     10  C   UNL     1       6.943   4.848  14.325  0.00  0.00    +0.000 A 
ATOM     11  O   UNL     1       7.493   5.623  15.365  0.00  0.00    +0.000 OA
ATOM     12  C   UNL     1       7.018   5.566  16.671  0.00  0.00    +0.000 A 
ATOM     13  O   UNL     1       7.555   6.199  17.575  0.00  0.00    +0.000 OA
ENDROOT
BRANCH   1  15
ATOM     14  O   UNL     1       5.455   5.438  19.121  0.00  0.00    +0.000 OA
ATOM     15  C   UNL     1       5.094   4.687  18.216  0.00  0.00    +0.000 C 
ATOM     16  N   UNL     1       4.069   3.769  18.302  0.00  0.00    +0.000 N 
ATOM     17  H   UNL     1       3.935   3.140  17.509  0.00  0.00    +0.000 HD
BRANCH  16  18
ATOM     18  C   UNL     1       3.296   3.488  19.451  0.00  0.00    +0.000 A 
ATOM     19  C   UNL     1       3.734   2.662  20.489  0.00  0.00    +0.000 A 
ATOM     20  C   UNL     1       2.886   2.333  21.549  0.00  0.00    +0.000 A 
ATOM     21  C   UNL     1       1.598   2.846  21.576  0.00  0.00    +0.000 A 
ATOM     22  C   UNL     1       1.161   3.715  20.584  0.00  0.00    +0.000 A 
ATOM     23  C   UNL     1       2.013   4.044  19.525  0.00  0.00    +0.000 A 
BRANCH  21  24
ATOM     24  O   UNL     1       0.725   2.508  22.565  0.00  0.00    +0.000 OA
ATOM     25  H   UNL     1       0.916   3.059  23.342  0.00  0.00    +0.000 HD
ENDBRANCH  21  24
ENDBRANCH  16  18
ENDBRANCH   1  15
TORSDOF 3
ENDMDL
MODEL 2
REMARK VINA RESULT:      -7.8      6.330      8.367
REMARK  Name = 
REMARK  3 active torsions:
REMARK  status: ('A' for Active; 'I' for Inactive)
REMARK    1  A    between atoms: C_2  and  C_11
REMARK    2  A    between atoms: N_3  and  C_4
REMARK    3  A    between atoms: C_7  and  O_8
REMARK                            x       y       z     vdW  Elec       q    Type
REMARK                         _______ _______ _______ _____ _____    ______ ____
ROOT
ATOM      1  C   UNL     1       2.014   7.987  19.143  0.00  0.00    +0.000 A 
ATOM      2  C   UNL     1       1.320   8.190  20.274  0.00  0.00    +0.000 A 
ATOM      3  C   UNL     1       0.626   9.442  20.516  0.00  0.00    +0.000 A 
ATOM      4  C   UNL     1      -0.088   9.661  21.696  0.00  0.00    +0.000 A 
ATOM      5  C   UNL     1      -0.677  10.905  21.925  0.00  0.00    +0.000 A 
ATOM      6 CL   UNL     1      -1.547  11.176  23.384  0.00  0.00    +0.000 Cl
ATOM      7  C   UNL     1      -0.556  11.934  20.991  0.00  0.00    +0.000 A 
ATOM      8  C   UNL     1       0.148  11.709  19.806  0.00  0.00    +0.000 A 
ATOM      9 BR   UNL     1       0.307  13.124  18.559  0.00  0.00    +0.000 Br
ATOM     10  C   UNL     1       0.727  10.460  19.575  0.00  0.00    +0.000 A 
ATOM     11  O   UNL     1       1.420  10.229  18.370  0.00  0.00    +0.000 OA
ATOM     12  C   UNL     1       2.035   9.014  18.083  0.00  0.00    +0.000 A 
ATOM     13  O   UNL     1       2.576   8.811  17.000  0.00  0.00    +0.000 OA
ENDROOT
BRANCH   1  15
ATOM     14  O   UNL     1       3.989   6.750  18.834  0.00  0.00    +0.000 OA
ATOM     15  C   UNL     1       2.782   6.704  19.067  0.00  0.00    +0.000 C 
ATOM     16  N   UNL     1       2.043   5.552  19.229  0.00  0.00    +0.000 N 
ATOM     17  H   UNL     1       1.031   5.652  19.322  0.00  0.00    +0.000 HD
BRANCH  16  18
ATOM     18  C   UNL     1       2.524   4.229  19.100  0.00  0.00    +0.000 A 
ATOM     19  C   UNL     1       3.372   3.625  20.032  0.00  0.00    +0.000 A 
ATOM     20  C   UNL     1       3.901   2.354  19.799  0.00  0.00    +0.000 A 
ATOM     21  C   UNL     1       3.569   1.679  18.634  0.00  0.00    +0.000 A 
ATOM     22  C   UNL     1       2.683   2.238  17.720  0.00  0.00    +0.000 A 
ATOM     23  C   UNL     1       2.153   3.510  17.958  0.00  0.00    +0.000 A 
BRANCH  21  24
ATOM     24  O   UNL     1       4.106   0.461  18.347  0.00  0.00    +0.000 OA
ATOM     25  H   UNL     1       4.885   0.331  18.912  0.00  0.00    +0.000 HD
ENDBRANCH  21  24
ENDBRANCH  16  18
ENDBRANCH   1  15
TORSDOF 3
ENDMDL
MODEL 3
REMARK VINA RESULT:      -7.6      0.226      1.029
REMARK  Name = 
REMARK  3 active torsions:
REMARK  status: ('A' for Active; 'I' for Inactive)
REMARK    1  A    between atoms: C_2  and  C_11
REMARK    2  A    between atoms: N_3  and  C_4
REMARK    3  A    between atoms: C_7  and  O_8
REMARK                            x       y       z     vdW  Elec       q    Type
REMARK                         _______ _______ _______ _____ _____    ______ ____
ROOT
ATOM      1  C   UNL     1       5.726   4.705  16.811  0.00  0.00    +0.000 A 
ATOM      2  C   UNL     1       5.313   3.918  15.805  0.00  0.00    +0.000 A 
ATOM      3  C   UNL     1       5.964   3.952  14.508  0.00  0.00    +0.000 A 
ATOM      4  C   UNL     1       5.531   3.143  13.454  0.00  0.00    +0.000 A 
ATOM      5  C   UNL     1       6.134   3.260  12.202  0.00  0.00    +0.000 A 
ATOM      6 CL   UNL     1       5.591   2.269  10.904  0.00  0.00    +0.000 Cl
ATOM      7  C   UNL     1       7.160   4.179  11.987  0.00  0.00    +0.000 A 
ATOM      8  C   UNL     1       7.602   4.978  13.044  0.00  0.00    +0.000 A 
ATOM      9 BR   UNL     1       8.989   6.226  12.726  0.00  0.00    +0.000 Br
ATOM     10  C   UNL     1       7.004   4.852  14.300  0.00  0.00    +0.000 A 
ATOM     11  O   UNL     1       7.463   5.645  15.370  0.00  0.00    +0.000 OA
ATOM     12  C   UNL     1       6.902   5.582  16.641  0.00  0.00    +0.000 A 
ATOM     13  O   UNL     1       7.360   6.232  17.576  0.00  0.00    +0.000 OA
ENDROOT
BRANCH   1  15
ATOM     14  O   UNL     1       5.144   5.464  18.958  0.00  0.00    +0.000 OA
ATOM     15  C   UNL     1       4.898   4.663  18.057  0.00  0.00    +0.000 C 
ATOM     16  N   UNL     1       3.933   3.680  18.105  0.00  0.00    +0.000 N 
ATOM     17  H   UNL     1       3.898   3.020  17.326  0.00  0.00    +0.000 HD
BRANCH  16  18
ATOM     18  C   UNL     1       3.102   3.381  19.207  0.00  0.00    +0.000 A 
ATOM     19  C   UNL     1       1.808   3.888  19.354  0.00  0.00    +0.000 A 
ATOM     20  C   UNL     1       1.072   3.646  20.516  0.00  0.00    +0.000 A 
ATOM     21  C   UNL     1       1.629   2.881  21.530  0.00  0.00    +0.000 A 
ATOM     22  C   UNL     1       2.893   2.321  21.381  0.00  0.00    +0.000 A 
ATOM     23  C   UNL     1       3.626   2.563  20.215  0.00  0.00    +0.000 A 
BRANCH  21  24
ATOM     24  O   UNL     1       0.964   2.666  22.698  0.00  0.00    +0.000 OA
ATOM     25  H   UNL     1       0.417   3.447  22.886  0.00  0.00    +0.000 HD
ENDBRANCH  21  24
ENDBRANCH  16  18
ENDBRANCH   1  15
TORSDOF 3
ENDMDL
MODEL 4
REMARK VINA RESULT:      -7.5      6.763      8.783
REMARK  Name = 
REMARK  3 active torsions:
REMARK  status: ('A' for Active; 'I' for Inactive)
REMARK    1  A    between atoms: C_2  and  C_11
REMARK    2  A    between atoms: N_3  and  C_4
REMARK    3  A    between atoms: C_7  and  O_8
REMARK                            x       y       z     vdW  Elec       q    Type
REMARK                         _______ _______ _______ _____ _____    ______ ____
ROOT
ATOM      1  C   UNL     1       1.537   8.461  19.461  0.00  0.00    +0.000 A 
ATOM      2  C   UNL     1       0.867   8.951  20.516  0.00  0.00    +0.000 A 
ATOM      3  C   UNL     1       0.564  10.367  20.623  0.00  0.00    +0.000 A 
ATOM      4  C   UNL     1      -0.124  10.883  21.724  0.00  0.00    +0.000 A 
ATOM      5  C   UNL     1      -0.328  12.259  21.827  0.00  0.00    +0.000 A 
ATOM      6 CL   UNL     1      -1.166  12.892  23.189  0.00  0.00    +0.000 Cl
ATOM      7  C   UNL     1       0.150  13.126  20.845  0.00  0.00    +0.000 A 
ATOM      8  C   UNL     1       0.826  12.608  19.738  0.00  0.00    +0.000 A 
ATOM      9 BR   UNL     1       1.475  13.806  18.424  0.00  0.00    +0.000 Br
ATOM     10  C   UNL     1       1.021  11.229  19.632  0.00  0.00    +0.000 A 
ATOM     11  O   UNL     1       1.686  10.706  18.506  0.00  0.00    +0.000 OA
ATOM     12  C   UNL     1       1.927   9.346  18.345  0.00  0.00    +0.000 A 
ATOM     13  O   UNL     1       2.448   8.904  17.325  0.00  0.00    +0.000 OA
ENDROOT
BRANCH   1  15
ATOM     14  O   UNL     1       1.935   6.459  20.628  0.00  0.00    +0.000 OA
ATOM     15  C   UNL     1       1.891   7.008  19.528  0.00  0.00    +0.000 C 
ATOM     16  N   UNL     1       2.183   6.405  18.323  0.00  0.00    +0.000 N 
ATOM     17  H   UNL     1       2.201   7.001  17.493  0.00  0.00    +0.000 HD
BRANCH  16  18
ATOM     18  C   UNL     1       2.638   5.080  18.144  0.00  0.00    +0.000 A 
ATOM     19  C   UNL     1       1.798   4.020  17.790  0.00  0.00    +0.000 A 
ATOM     20  C   UNL     1       2.282   2.712  17.731  0.00  0.00    +0.000 A 
ATOM     21  C   UNL     1       3.617   2.465  18.015  0.00  0.00    +0.000 A 
ATOM     22  C   UNL     1       4.482   3.511  18.314  0.00  0.00    +0.000 A 
ATOM     23  C   UNL     1       3.994   4.820  18.369  0.00  0.00    +0.000 A 
BRANCH  21  24
ATOM     24  O   UNL     1       4.114   1.197  18.019  0.00  0.00    +0.000 OA
ATOM     25  H   UNL     1       4.496   1.022  18.894  0.00  0.00    +0.000 HD
ENDBRANCH  21  24
ENDBRANCH  16  18
ENDBRANCH   1  15
TORSDOF 3
ENDMDL
MODEL 5
REMARK VINA RESULT:      -7.5      6.278      7.565
REMARK  Name = 
REMARK  3 active torsions:
REMARK  status: ('A' for Active; 'I' for Inactive)
REMARK    1  A    between atoms: C_2  and  C_11
REMARK    2  A    between atoms: N_3  and  C_4
REMARK    3  A    between atoms: C_7  and  O_8
REMARK                            x       y       z     vdW  Elec       q    Type
REMARK                         _______ _______ _______ _____ _____    ______ ____
ROOT
ATOM      1  C   UNL     1       2.000   8.158  19.076  0.00  0.00    +0.000 A 
ATOM      2  C   UNL     1       2.210   7.015  19.748  0.00  0.00    +0.000 A 
ATOM      3  C   UNL     1       3.109   5.996  19.236  0.00  0.00    +0.000 A 
ATOM      4  C   UNL     1       3.322   4.800  19.926  0.00  0.00    +0.000 A 
ATOM      5  C   UNL     1       4.133   3.815  19.363  0.00  0.00    +0.000 A 
ATOM      6 CL   UNL     1       4.385   2.339  20.211  0.00  0.00    +0.000 Cl
ATOM      7  C   UNL     1       4.731   4.008  18.118  0.00  0.00    +0.000 A 
ATOM      8  C   UNL     1       4.527   5.208  17.435  0.00  0.00    +0.000 A 
ATOM      9 BR   UNL     1       5.339   5.442  15.742  0.00  0.00    +0.000 Br
ATOM     10  C   UNL     1       3.723   6.198  18.004  0.00  0.00    +0.000 A 
ATOM     11  O   UNL     1       3.535   7.417  17.323  0.00  0.00    +0.000 OA
ATOM     12  C   UNL     1       2.734   8.437  17.826  0.00  0.00    +0.000 A 
ATOM     13  O   UNL     1       2.636   9.517  17.249  0.00  0.00    +0.000 OA
ENDROOT
BRANCH   1  15
ATOM     14  O   UNL     1       0.683   8.977  20.843  0.00  0.00    +0.000 OA
ATOM     15  C   UNL     1       0.962   9.072  19.648  0.00  0.00    +0.000 C 
ATOM     16  N   UNL     1       0.364   9.935  18.755  0.00  0.00    +0.000 N 
ATOM     17  H   UNL     1       0.622   9.844  17.771  0.00  0.00    +0.000 HD
BRANCH  16  18
ATOM     18  C   UNL     1      -0.705  10.815  19.036  0.00  0.00    +0.000 A 
ATOM     19  C   UNL     1      -0.701  11.712  20.108  0.00  0.00    +0.000 A 
ATOM     20  C   UNL     1      -1.829  12.482  20.400  0.00  0.00    +0.000 A 
ATOM     21  C   UNL     1      -2.961  12.363  19.608  0.00  0.00    +0.000 A 
ATOM     22  C   UNL     1      -2.967  11.519  18.504  0.00  0.00    +0.000 A 
ATOM     23  C   UNL     1      -1.835  10.751  18.212  0.00  0.00    +0.000 A 
BRANCH  21  24
ATOM     24  O   UNL     1      -4.097  13.058  19.893  0.00  0.00    +0.000 OA
ATOM     25  H   UNL     1      -4.142  13.188  20.854  0.00  0.00    +0.000 HD
ENDBRANCH  21  24
ENDBRANCH  16  18
ENDBRANCH   1  15
TORSDOF 3
ENDMDL
MODEL 6
REMARK VINA RESULT:      -7.5      6.262      7.579
REMARK  Name = 
REMARK  3 active torsions:
REMARK  status: ('A' for Active; 'I' for Inactive)
REMARK    1  A    between atoms: C_2  and  C_11
REMARK    2  A    between atoms: N_3  and  C_4
REMARK    3  A    between atoms: C_7  and  O_8
REMARK                            x       y       z     vdW  Elec       q    Type
REMARK                         _______ _______ _______ _____ _____    ______ ____
ROOT
ATOM      1  C   UNL     1       1.992   8.062  19.172  0.00  0.00    +0.000 A 
ATOM      2  C   UNL     1       2.227   6.904  19.809  0.00  0.00    +0.000 A 
ATOM      3  C   UNL     1       3.141   5.917  19.263  0.00  0.00    +0.000 A 
ATOM      4  C   UNL     1       3.380   4.706  19.916  0.00  0.00    +0.000 A 
ATOM      5  C   UNL     1       4.206   3.752  19.321  0.00  0.00    +0.000 A 
ATOM      6 CL   UNL     1       4.490   2.257  20.124  0.00  0.00    +0.000 Cl
ATOM      7  C   UNL     1       4.792   3.992  18.079  0.00  0.00    +0.000 A 
ATOM      8  C   UNL     1       4.563   5.208  17.432  0.00  0.00    +0.000 A 
ATOM      9 BR   UNL     1       5.360   5.506  15.741  0.00  0.00    +0.000 Br
ATOM     10  C   UNL     1       3.744   6.165  18.034  0.00  0.00    +0.000 A 
ATOM     11  O   UNL     1       3.529   7.400  17.390  0.00  0.00    +0.000 OA
ATOM     12  C   UNL     1       2.713   8.391  17.926  0.00  0.00    +0.000 A 
ATOM     13  O   UNL     1       2.592   9.484  17.382  0.00  0.00    +0.000 OA
ENDROOT
BRANCH   1  15
ATOM     14  O   UNL     1       0.649   8.784  20.961  0.00  0.00    +0.000 OA
ATOM     15  C   UNL     1       0.941   8.939  19.776  0.00  0.00    +0.000 C 
ATOM     16  N   UNL     1       0.347   9.842  18.920  0.00  0.00    +0.000 N 
ATOM     17  H   UNL     1       0.617   9.802  17.935  0.00  0.00    +0.000 HD
BRANCH  16  18
ATOM     18  C   UNL     1      -0.731  10.700  19.231  0.00  0.00    +0.000 A 
ATOM     19  C   UNL     1      -1.923  10.732  18.501  0.00  0.00    +0.000 A 
ATOM     20  C   UNL     1      -2.912  11.676  18.788  0.00  0.00    +0.000 A 
ATOM     21  C   UNL     1      -2.712  12.582  19.818  0.00  0.00    +0.000 A 
ATOM     22  C   UNL     1      -1.559  12.532  20.592  0.00  0.00    +0.000 A 
ATOM     23  C   UNL     1      -0.572  11.584  20.304  0.00  0.00    +0.000 A 
BRANCH  21  24
ATOM     24  O   UNL     1      -3.630  13.550  20.094  0.00  0.00    +0.000 OA
ATOM     25  H   UNL     1      -4.430  13.367  19.574  0.00  0.00    +0.000 HD
ENDBRANCH  21  24
ENDBRANCH  16  18
ENDBRANCH   1  15
TORSDOF 3
ENDMDL
MODEL 7
REMARK VINA RESULT:      -7.5      6.549      8.581
REMARK  Name = 
REMARK  3 active torsions:
REMARK  status: ('A' for Active; 'I' for Inactive)
REMARK    1  A    between atoms: C_2  and  C_11
REMARK    2  A    between atoms: N_3  and  C_4
REMARK    3  A    between atoms: C_7  and  O_8
REMARK                            x       y       z     vdW  Elec       q    Type
REMARK                         _______ _______ _______ _____ _____    ______ ____
ROOT
ATOM      1  C   UNL     1       1.538   8.055  19.820  0.00  0.00    +0.000 A 
ATOM      2  C   UNL     1       0.850   8.635  20.816  0.00  0.00    +0.000 A 
ATOM      3  C   UNL     1       0.572  10.060  20.806  0.00  0.00    +0.000 A 
ATOM      4  C   UNL     1      -0.134  10.671  21.845  0.00  0.00    +0.000 A 
ATOM      5  C   UNL     1      -0.314  12.055  21.837  0.00  0.00    +0.000 A 
ATOM      6 CL   UNL     1      -1.175  12.805  23.124  0.00  0.00    +0.000 Cl
ATOM      7  C   UNL     1       0.206  12.835  20.805  0.00  0.00    +0.000 A 
ATOM      8  C   UNL     1       0.901  12.222  19.760  0.00  0.00    +0.000 A 
ATOM      9 BR   UNL     1       1.607  13.304  18.377  0.00  0.00    +0.000 Br
ATOM     10  C   UNL     1       1.071  10.836  19.765  0.00  0.00    +0.000 A 
ATOM     11  O   UNL     1       1.755  10.217  18.700  0.00  0.00    +0.000 OA
ATOM     12  C   UNL     1       1.974   8.844  18.651  0.00  0.00    +0.000 A 
ATOM     13  O   UNL     1       2.513   8.316  17.682  0.00  0.00    +0.000 OA
ENDROOT
BRANCH   1  15
ATOM     14  O   UNL     1       1.789   6.123  21.137  0.00  0.00    +0.000 OA
ATOM     15  C   UNL     1       1.861   6.606  20.007  0.00  0.00    +0.000 C 
ATOM     16  N   UNL     1       2.262   5.928  18.875  0.00  0.00    +0.000 N 
ATOM     17  H   UNL     1       2.370   6.472  18.017  0.00  0.00    +0.000 HD
BRANCH  16  18
ATOM     18  C   UNL     1       2.712   4.590  18.820  0.00  0.00    +0.000 A 
ATOM     19  C   UNL     1       3.911   4.158  19.392  0.00  0.00    +0.000 A 
ATOM     20  C   UNL     1       4.358   2.847  19.213  0.00  0.00    +0.000 A 
ATOM     21  C   UNL     1       3.593   1.961  18.471  0.00  0.00    +0.000 A 
ATOM     22  C   UNL     1       2.369   2.353  17.941  0.00  0.00    +0.000 A 
ATOM     23  C   UNL     1       1.924   3.666  18.123  0.00  0.00    +0.000 A 
BRANCH  21  24
ATOM     24  O   UNL     1       4.019   0.689  18.231  0.00  0.00    +0.000 OA
ATOM     25  H   UNL     1       4.950   0.624  18.504  0.00  0.00    +0.000 HD
ENDBRANCH  21  24
ENDBRANCH  16  18
ENDBRANCH   1  15
TORSDOF 3
ENDMDL
MODEL 8
REMARK VINA RESULT:      -7.5      6.328      8.411
REMARK  Name = 
REMARK  3 active torsions:
REMARK  status: ('A' for Active; 'I' for Inactive)
REMARK    1  A    between atoms: C_2  and  C_11
REMARK    2  A    between atoms: N_3  and  C_4
REMARK    3  A    between atoms: C_7  and  O_8
REMARK                            x       y       z     vdW  Elec       q    Type
REMARK                         _______ _______ _______ _____ _____    ______ ____
ROOT
ATOM      1  C   UNL     1       2.030   7.973  19.135  0.00  0.00    +0.000 A 
ATOM      2  C   UNL     1       1.357   8.166  20.280  0.00  0.00    +0.000 A 
ATOM      3  C   UNL     1       0.624   9.395  20.523  0.00  0.00    +0.000 A 
ATOM      4  C   UNL     1      -0.069   9.605  21.718  0.00  0.00    +0.000 A 
ATOM      5  C   UNL     1      -0.697  10.830  21.945  0.00  0.00    +0.000 A 
ATOM      6 CL   UNL     1      -1.541  11.088  23.422  0.00  0.00    +0.000 Cl
ATOM      7  C   UNL     1      -0.636  11.849  20.996  0.00  0.00    +0.000 A 
ATOM      8  C   UNL     1       0.047  11.635  19.797  0.00  0.00    +0.000 A 
ATOM      9 BR   UNL     1       0.126  13.037  18.529  0.00  0.00    +0.000 Br
ATOM     10  C   UNL     1       0.666  10.404  19.567  0.00  0.00    +0.000 A 
ATOM     11  O   UNL     1       1.338  10.182  18.349  0.00  0.00    +0.000 OA
ATOM     12  C   UNL     1       1.989   8.986  18.062  0.00  0.00    +0.000 A 
ATOM     13  O   UNL     1       2.511   8.788  16.968  0.00  0.00    +0.000 OA
ENDROOT
BRANCH   1  15
ATOM     14  O   UNL     1       4.069   6.805  19.060  0.00  0.00    +0.000 OA
ATOM     15  C   UNL     1       2.841   6.718  19.056  0.00  0.00    +0.000 C 
ATOM     16  N   UNL     1       2.125   5.545  18.942  0.00  0.00    +0.000 N 
ATOM     17  H   UNL     1       1.110   5.623  18.855  0.00  0.00    +0.000 HD
BRANCH  16  18
ATOM     18  C   UNL     1       2.665   4.254  18.753  0.00  0.00    +0.000 A 
ATOM     19  C   UNL     1       2.393   3.463  17.634  0.00  0.00    +0.000 A 
ATOM     20  C   UNL     1       2.868   2.152  17.551  0.00  0.00    +0.000 A 
ATOM     21  C   UNL     1       3.631   1.636  18.588  0.00  0.00    +0.000 A 
ATOM     22  C   UNL     1       3.961   2.424  19.684  0.00  0.00    +0.000 A 
ATOM     23  C   UNL     1       3.486   3.737  19.763  0.00  0.00    +0.000 A 
BRANCH  21  24
ATOM     24  O   UNL     1       4.069   0.346  18.567  0.00  0.00    +0.000 OA
ATOM     25  H   UNL     1       3.605  -0.144  19.266  0.00  0.00    +0.000 HD
ENDBRANCH  21  24
ENDBRANCH  16  18
ENDBRANCH   1  15
TORSDOF 3
ENDMDL
MODEL 9
REMARK VINA RESULT:      -7.4      7.427      9.429
REMARK  Name = 
REMARK  3 active torsions:
REMARK  status: ('A' for Active; 'I' for Inactive)
REMARK    1  A    between atoms: C_2  and  C_11
REMARK    2  A    between atoms: N_3  and  C_4
REMARK    3  A    between atoms: C_7  and  O_8
REMARK                            x       y       z     vdW  Elec       q    Type
REMARK                         _______ _______ _______ _____ _____    ______ ____
ROOT
ATOM      1  C   UNL     1       1.439   9.339  19.336  0.00  0.00    +0.000 A 
ATOM      2  C   UNL     1       1.347  10.540  18.742  0.00  0.00    +0.000 A 
ATOM      3  C   UNL     1       0.641  11.639  19.375  0.00  0.00    +0.000 A 
ATOM      4  C   UNL     1       0.534  12.887  18.757  0.00  0.00    +0.000 A 
ATOM      5  C   UNL     1      -0.217  13.895  19.362  0.00  0.00    +0.000 A 
ATOM      6 CL   UNL     1      -0.356  15.428  18.592  0.00  0.00    +0.000 Cl
ATOM      7  C   UNL     1      -0.866  13.670  20.575  0.00  0.00    +0.000 A 
ATOM      8  C   UNL     1      -0.748  12.426  21.199  0.00  0.00    +0.000 A 
ATOM      9 BR   UNL     1      -1.648  12.140  22.840  0.00  0.00    +0.000 Br
ATOM     10  C   UNL     1       0.013  11.422  20.597  0.00  0.00    +0.000 A 
ATOM     11  O   UNL     1       0.147  10.174  21.237  0.00  0.00    +0.000 OA
ATOM     12  C   UNL     1       0.876   9.126  20.684  0.00  0.00    +0.000 A 
ATOM     13  O   UNL     1       1.037   8.069  21.289  0.00  0.00    +0.000 OA
ENDROOT
BRANCH   1  15
ATOM     14  O   UNL     1       2.312   8.463  17.336  0.00  0.00    +0.000 OA
ATOM     15  C   UNL     1       2.086   8.258  18.529  0.00  0.00    +0.000 C 
ATOM     16  N   UNL     1       2.345   7.081  19.199  0.00  0.00    +0.000 N 
ATOM     17  H   UNL     1       2.020   7.011  20.165  0.00  0.00    +0.000 HD
BRANCH  16  18
ATOM     18  C   UNL     1       2.855   5.893  18.629  0.00  0.00    +0.000 A 
ATOM     19  C   UNL     1       2.062   4.964  17.950  0.00  0.00    +0.000 A 
ATOM     20  C   UNL     1       2.600   3.756  17.502  0.00  0.00    +0.000 A 
ATOM     21  C   UNL     1       3.942   3.483  17.723  0.00  0.00    +0.000 A 
ATOM     22  C   UNL     1       4.761   4.417  18.346  0.00  0.00    +0.000 A 
ATOM     23  C   UNL     1       4.219   5.626  18.792  0.00  0.00    +0.000 A 
BRANCH  21  24
ATOM     24  O   UNL     1       4.491   2.295  17.347  0.00  0.00    +0.000 OA
ATOM     25  H   UNL     1       4.535   1.719  18.128  0.00  0.00    +0.000 HD
ENDBRANCH  21  24
ENDBRANCH  16  18
ENDBRANCH   1  15
TORSDOF 3
ENDMDL
