MODEL 1
REMARK VINA RESULT:      -7.8      0.000      0.000
REMARK  Name = 
REMARK  10 active torsions:
REMARK  status: ('A' for Active; 'I' for Inactive)
REMARK    1  A    between atoms: C_1  and  O_2
REMARK    2  A    between atoms: O_2  and  C_3
REMARK    3  A    between atoms: C_6  and  S_7
REMARK    4  A    between atoms: S_7  and  N_10
REMARK    5  A    between atoms: N_10  and  C_11
REMARK    6  A    between atoms: C_11  and  C_12
REMARK    7  A    between atoms: C_12  and  S_13
REMARK    8  A    between atoms: S_13  and  N_16
REMARK    9  A    between atoms: N_19  and  C_20
REMARK   10  A    between atoms: C_29  and  C_30
REMARK                            x       y       z     vdW  Elec       q    Type
REMARK                         _______ _______ _______ _____ _____    ______ ____
ROOT
ATOM      1  C   UNL     1       8.243   7.538  18.329  0.00  0.00    +0.000 C 
ENDROOT
BRANCH   1   2
ATOM      2  S   UNL     1       7.134   6.703  17.219  0.00  0.00    +0.000 S 
ATOM      3  O   UNL     1       5.874   7.410  17.261  0.00  0.00    +0.000 OA
ATOM      4  O   UNL     1       7.846   6.492  15.973  0.00  0.00    +0.000 OA
BRANCH   2   5
ATOM      5  N   UNL     1       6.945   5.197  17.988  0.00  0.00    +0.000 NA
ATOM      6  C   UNL     1       6.379   5.251  19.377  0.00  0.00    +0.000 C 
ATOM      7  C   UNL     1       4.866   5.556  19.350  0.00  0.00    +0.000 C 
ATOM      8  N   UNL     1       4.174   4.560  18.511  0.00  0.00    +0.000 N 
ATOM      9  C   UNL     1       4.705   4.395  17.146  0.00  0.00    +0.000 C 
ATOM     10  C   UNL     1       6.226   4.136  17.196  0.00  0.00    +0.000 C 
BRANCH   8  11
ATOM     11  C   UNL     1       3.014   3.948  18.943  0.00  0.00    +0.000 A 
ATOM     12  C   UNL     1       2.393   2.930  18.201  0.00  0.00    +0.000 A 
ATOM     13  C   UNL     1       1.156   2.391  18.571  0.00  0.00    +0.000 A 
ATOM     14  C   UNL     1       0.514   2.850  19.714  0.00  0.00    +0.000 A 
ATOM     15  C   UNL     1       1.124   3.824  20.494  0.00  0.00    +0.000 A 
ATOM     16  C   UNL     1       2.359   4.361  20.112  0.00  0.00    +0.000 A 
ENDBRANCH   8  11
ENDBRANCH   2   5
ENDBRANCH   1   2
BRANCH   1  17
ATOM     17  C   UNL     1       8.270   9.036  18.109  0.00  0.00    +0.000 C 
BRANCH  17  18
ATOM     18  N   UNL     1       9.038   9.725  19.154  0.00  0.00    +0.000 NA
ATOM     19  H   UNL     1       8.667   9.690  20.113  0.00  0.00    +0.000 HD
BRANCH  18  20
ATOM     20  S   UNL     1       9.709  11.227  18.794  0.00  0.00    +0.000 S 
ATOM     21  O   UNL     1       8.957  11.810  17.712  0.00  0.00    +0.000 OA
ATOM     22  O   UNL     1      11.139  11.034  18.724  0.00  0.00    +0.000 OA
BRANCH  20  26
ATOM     23  C   UNL     1       8.694  13.650  22.528  0.00  0.00    +0.000 A 
ATOM     24  C   UNL     1       9.186  14.289  21.382  0.00  0.00    +0.000 A 
ATOM     25  C   UNL     1       9.508  13.549  20.246  0.00  0.00    +0.000 A 
ATOM     26  C   UNL     1       9.373  12.161  20.271  0.00  0.00    +0.000 A 
ATOM     27  C   UNL     1       8.917  11.508  21.418  0.00  0.00    +0.000 A 
ATOM     28  C   UNL     1       8.581  12.248  22.561  0.00  0.00    +0.000 A 
ATOM     29  C   UNL     1       8.103  11.531  23.794  0.00  0.00    +0.000 C 
BRANCH  23  31
ATOM     30  C   UNL     1       9.184  15.404  24.021  0.00  0.00    +0.000 C 
ATOM     31  O   UNL     1       8.315  14.333  23.655  0.00  0.00    +0.000 OA
ENDBRANCH  23  31
ENDBRANCH  20  26
ENDBRANCH  18  20
ENDBRANCH  17  18
ENDBRANCH   1  17
TORSDOF 8
ENDMDL
MODEL 2
REMARK VINA RESULT:      -7.4      6.221      8.961
REMARK  Name = 
REMARK  10 active torsions:
REMARK  status: ('A' for Active; 'I' for Inactive)
REMARK    1  A    between atoms: C_1  and  O_2
REMARK    2  A    between atoms: O_2  and  C_3
REMARK    3  A    between atoms: C_6  and  S_7
REMARK    4  A    between atoms: S_7  and  N_10
REMARK    5  A    between atoms: N_10  and  C_11
REMARK    6  A    between atoms: C_11  and  C_12
REMARK    7  A    between atoms: C_12  and  S_13
REMARK    8  A    between atoms: S_13  and  N_16
REMARK    9  A    between atoms: N_19  and  C_20
REMARK   10  A    between atoms: C_29  and  C_30
REMARK                            x       y       z     vdW  Elec       q    Type
REMARK                         _______ _______ _______ _____ _____    ______ ____
ROOT
ATOM      1  C   UNL     1       2.654   7.125  17.998  0.00  0.00    +0.000 C 
ENDROOT
BRANCH   1   2
ATOM      2  S   UNL     1       3.160   5.614  18.786  0.00  0.00    +0.000 S 
ATOM      3  O   UNL     1       3.008   5.804  20.211  0.00  0.00    +0.000 OA
ATOM      4  O   UNL     1       2.504   4.523  18.091  0.00  0.00    +0.000 OA
BRANCH   2   5
ATOM      5  N   UNL     1       4.819   5.567  18.411  0.00  0.00    +0.000 NA
ATOM      6  C   UNL     1       5.341   4.231  17.968  0.00  0.00    +0.000 C 
ATOM      7  C   UNL     1       4.889   3.907  16.528  0.00  0.00    +0.000 C 
ATOM      8  N   UNL     1       5.308   4.991  15.620  0.00  0.00    +0.000 N 
ATOM      9  C   UNL     1       4.891   6.349  16.012  0.00  0.00    +0.000 C 
ATOM     10  C   UNL     1       5.313   6.634  17.470  0.00  0.00    +0.000 C 
BRANCH   8  11
ATOM     11  C   UNL     1       5.915   4.712  14.411  0.00  0.00    +0.000 A 
ATOM     12  C   UNL     1       5.372   3.784  13.508  0.00  0.00    +0.000 A 
ATOM     13  C   UNL     1       6.042   3.408  12.338  0.00  0.00    +0.000 A 
ATOM     14  C   UNL     1       7.273   3.973  12.033  0.00  0.00    +0.000 A 
ATOM     15  C   UNL     1       7.815   4.929  12.884  0.00  0.00    +0.000 A 
ATOM     16  C   UNL     1       7.140   5.293  14.054  0.00  0.00    +0.000 A 
ENDBRANCH   8  11
ENDBRANCH   2   5
ENDBRANCH   1   2
BRANCH   1  17
ATOM     17  C   UNL     1       2.133   8.151  18.982  0.00  0.00    +0.000 C 
BRANCH  17  18
ATOM     18  N   UNL     1       1.434   9.249  18.305  0.00  0.00    +0.000 NA
ATOM     19  H   UNL     1       1.796   9.546  17.388  0.00  0.00    +0.000 HD
BRANCH  18  20
ATOM     20  S   UNL     1       0.915  10.558  19.229  0.00  0.00    +0.000 S 
ATOM     21  O   UNL     1       1.679  11.716  18.842  0.00  0.00    +0.000 OA
ATOM     22  O   UNL     1       0.850  10.097  20.597  0.00  0.00    +0.000 OA
BRANCH  20  26
ATOM     23  C   UNL     1      -3.332  11.276  17.715  0.00  0.00    +0.000 A 
ATOM     24  C   UNL     1      -2.915  11.821  18.937  0.00  0.00    +0.000 A 
ATOM     25  C   UNL     1      -1.623  11.592  19.406  0.00  0.00    +0.000 A 
ATOM     26  C   UNL     1      -0.759  10.784  18.668  0.00  0.00    +0.000 A 
ATOM     27  C   UNL     1      -1.173  10.205  17.465  0.00  0.00    +0.000 A 
ATOM     28  C   UNL     1      -2.469  10.441  16.983  0.00  0.00    +0.000 A 
ATOM     29  C   UNL     1      -2.906   9.802  15.693  0.00  0.00    +0.000 C 
BRANCH  23  31
ATOM     30  C   UNL     1      -5.661  11.085  18.003  0.00  0.00    +0.000 C 
ATOM     31  O   UNL     1      -4.574  11.510  17.183  0.00  0.00    +0.000 OA
ENDBRANCH  23  31
ENDBRANCH  20  26
ENDBRANCH  18  20
ENDBRANCH  17  18
ENDBRANCH   1  17
TORSDOF 8
ENDMDL
MODEL 3
REMARK VINA RESULT:      -7.3      6.080      9.469
REMARK  Name = 
REMARK  10 active torsions:
REMARK  status: ('A' for Active; 'I' for Inactive)
REMARK    1  A    between atoms: C_1  and  O_2
REMARK    2  A    between atoms: O_2  and  C_3
REMARK    3  A    between atoms: C_6  and  S_7
REMARK    4  A    between atoms: S_7  and  N_10
REMARK    5  A    between atoms: N_10  and  C_11
REMARK    6  A    between atoms: C_11  and  C_12
REMARK    7  A    between atoms: C_12  and  S_13
REMARK    8  A    between atoms: S_13  and  N_16
REMARK    9  A    between atoms: N_19  and  C_20
REMARK   10  A    between atoms: C_29  and  C_30
REMARK                            x       y       z     vdW  Elec       q    Type
REMARK                         _______ _______ _______ _____ _____    ______ ____
ROOT
ATOM      1  C   UNL     1       2.222   8.046  20.367  0.00  0.00    +0.000 C 
ENDROOT
BRANCH   1   2
ATOM      2  S   UNL     1       1.228   9.045  21.450  0.00  0.00    +0.000 S 
ATOM      3  O   UNL     1      -0.058   8.396  21.569  0.00  0.00    +0.000 OA
ATOM      4  O   UNL     1       2.034   9.354  22.615  0.00  0.00    +0.000 OA
BRANCH   2   5
ATOM      5  N   UNL     1       1.043  10.468  20.535  0.00  0.00    +0.000 NA
ATOM      6  C   UNL     1       1.196  10.303  19.051  0.00  0.00    +0.000 C 
ATOM      7  C   UNL     1      -0.040   9.611  18.438  0.00  0.00    +0.000 C 
ATOM      8  N   UNL     1      -1.256  10.369  18.786  0.00  0.00    +0.000 N 
ATOM      9  C   UNL     1      -1.456  10.632  20.222  0.00  0.00    +0.000 C 
ATOM     10  C   UNL     1      -0.191  11.282  20.823  0.00  0.00    +0.000 C 
BRANCH   8  11
ATOM     11  C   UNL     1      -2.208  10.666  17.830  0.00  0.00    +0.000 A 
ATOM     12  C   UNL     1      -3.378  11.375  18.145  0.00  0.00    +0.000 A 
ATOM     13  C   UNL     1      -4.400  11.573  17.210  0.00  0.00    +0.000 A 
ATOM     14  C   UNL     1      -4.264  11.079  15.920  0.00  0.00    +0.000 A 
ATOM     15  C   UNL     1      -3.098  10.413  15.564  0.00  0.00    +0.000 A 
ATOM     16  C   UNL     1      -2.085  10.214  16.508  0.00  0.00    +0.000 A 
ENDBRANCH   8  11
ENDBRANCH   2   5
ENDBRANCH   1   2
BRANCH   1  17
ATOM     17  C   UNL     1       1.657   6.654  20.174  0.00  0.00    +0.000 C 
BRANCH  17  18
ATOM     18  N   UNL     1       2.549   5.625  20.723  0.00  0.00    +0.000 NA
ATOM     19  H   UNL     1       3.472   5.931  21.061  0.00  0.00    +0.000 HD
BRANCH  18  20
ATOM     20  S   UNL     1       2.627   4.135  19.941  0.00  0.00    +0.000 S 
ATOM     21  O   UNL     1       1.440   3.984  19.138  0.00  0.00    +0.000 OA
ATOM     22  O   UNL     1       3.012   3.165  20.939  0.00  0.00    +0.000 OA
BRANCH  20  26
ATOM     23  C   UNL     1       6.126   4.830  17.093  0.00  0.00    +0.000 A 
ATOM     24  C   UNL     1       4.941   4.245  16.628  0.00  0.00    +0.000 A 
ATOM     25  C   UNL     1       3.877   4.020  17.499  0.00  0.00    +0.000 A 
ATOM     26  C   UNL     1       4.014   4.348  18.847  0.00  0.00    +0.000 A 
ATOM     27  C   UNL     1       5.203   4.900  19.332  0.00  0.00    +0.000 A 
ATOM     28  C   UNL     1       6.274   5.137  18.458  0.00  0.00    +0.000 A 
ATOM     29  C   UNL     1       7.553   5.720  18.995  0.00  0.00    +0.000 C 
BRANCH  23  31
ATOM     30  C   UNL     1       6.966   4.823  14.893  0.00  0.00    +0.000 C 
ATOM     31  O   UNL     1       7.186   5.117  16.271  0.00  0.00    +0.000 OA
ENDBRANCH  23  31
ENDBRANCH  20  26
ENDBRANCH  18  20
ENDBRANCH  17  18
ENDBRANCH   1  17
TORSDOF 8
ENDMDL
MODEL 4
REMARK VINA RESULT:      -7.3      6.859     10.013
REMARK  Name = 
REMARK  10 active torsions:
REMARK  status: ('A' for Active; 'I' for Inactive)
REMARK    1  A    between atoms: C_1  and  O_2
REMARK    2  A    between atoms: O_2  and  C_3
REMARK    3  A    between atoms: C_6  and  S_7
REMARK    4  A    between atoms: S_7  and  N_10
REMARK    5  A    between atoms: N_10  and  C_11
REMARK    6  A    between atoms: C_11  and  C_12
REMARK    7  A    between atoms: C_12  and  S_13
REMARK    8  A    between atoms: S_13  and  N_16
REMARK    9  A    between atoms: N_19  and  C_20
REMARK   10  A    between atoms: C_29  and  C_30
REMARK                            x       y       z     vdW  Elec       q    Type
REMARK                         _______ _______ _______ _____ _____    ______ ____
ROOT
ATOM      1  C   UNL     1       1.563   8.661  19.676  0.00  0.00    +0.000 C 
ENDROOT
BRANCH   1   2
ATOM      2  S   UNL     1       1.213   9.884  18.434  0.00  0.00    +0.000 S 
ATOM      3  O   UNL     1       2.323   9.880  17.507  0.00  0.00    +0.000 OA
ATOM      4  O   UNL     1      -0.149   9.670  17.988  0.00  0.00    +0.000 OA
BRANCH   2   5
ATOM      5  N   UNL     1       1.261  11.322  19.342  0.00  0.00    +0.000 NA
ATOM      6  C   UNL     1       0.739  12.543  18.642  0.00  0.00    +0.000 C 
ATOM      7  C   UNL     1      -0.801  12.516  18.550  0.00  0.00    +0.000 C 
ATOM      8  N   UNL     1      -1.376  12.367  19.900  0.00  0.00    +0.000 N 
ATOM      9  C   UNL     1      -0.873  11.227  20.686  0.00  0.00    +0.000 C 
ATOM     10  C   UNL     1       0.670  11.249  20.725  0.00  0.00    +0.000 C 
BRANCH   8  11
ATOM     11  C   UNL     1      -2.425  13.162  20.319  0.00  0.00    +0.000 A 
ATOM     12  C   UNL     1      -2.213  14.416  20.913  0.00  0.00    +0.000 A 
ATOM     13  C   UNL     1      -3.263  15.171  21.448  0.00  0.00    +0.000 A 
ATOM     14  C   UNL     1      -4.565  14.692  21.381  0.00  0.00    +0.000 A 
ATOM     15  C   UNL     1      -4.813  13.476  20.757  0.00  0.00    +0.000 A 
ATOM     16  C   UNL     1      -3.755  12.726  20.232  0.00  0.00    +0.000 A 
ENDBRANCH   8  11
ENDBRANCH   2   5
ENDBRANCH   1   2
BRANCH   1  17
ATOM     17  C   UNL     1       2.298   7.458  19.121  0.00  0.00    +0.000 C 
BRANCH  17  18
ATOM     18  N   UNL     1       2.573   6.461  20.162  0.00  0.00    +0.000 NA
ATOM     19  H   UNL     1       3.314   6.680  20.842  0.00  0.00    +0.000 HD
BRANCH  18  20
ATOM     20  S   UNL     1       2.577   4.833  19.729  0.00  0.00    +0.000 S 
ATOM     21  O   UNL     1       1.425   4.584  18.900  0.00  0.00    +0.000 OA
ATOM     22  O   UNL     1       2.835   4.085  20.938  0.00  0.00    +0.000 OA
BRANCH  20  26
ATOM     23  C   UNL     1       6.269   4.663  17.050  0.00  0.00    +0.000 A 
ATOM     24  C   UNL     1       5.045   4.152  16.599  0.00  0.00    +0.000 A 
ATOM     25  C   UNL     1       3.920   4.192  17.421  0.00  0.00    +0.000 A 
ATOM     26  C   UNL     1       4.031   4.711  18.711  0.00  0.00    +0.000 A 
ATOM     27  C   UNL     1       5.255   5.192  19.185  0.00  0.00    +0.000 A 
ATOM     28  C   UNL     1       6.388   5.164  18.359  0.00  0.00    +0.000 A 
ATOM     29  C   UNL     1       7.701   5.673  18.886  0.00  0.00    +0.000 C 
BRANCH  23  31
ATOM     30  C   UNL     1       7.142   4.838  14.869  0.00  0.00    +0.000 C 
ATOM     31  O   UNL     1       7.394   4.694  16.266  0.00  0.00    +0.000 OA
ENDBRANCH  23  31
ENDBRANCH  20  26
ENDBRANCH  18  20
ENDBRANCH  17  18
ENDBRANCH   1  17
TORSDOF 8
ENDMDL
MODEL 5
REMARK VINA RESULT:      -7.1      6.538      9.951
REMARK  Name = 
REMARK  10 active torsions:
REMARK  status: ('A' for Active; 'I' for Inactive)
REMARK    1  A    between atoms: C_1  and  O_2
REMARK    2  A    between atoms: O_2  and  C_3
REMARK    3  A    between atoms: C_6  and  S_7
REMARK    4  A    between atoms: S_7  and  N_10
REMARK    5  A    between atoms: N_10  and  C_11
REMARK    6  A    between atoms: C_11  and  C_12
REMARK    7  A    between atoms: C_12  and  S_13
REMARK    8  A    between atoms: S_13  and  N_16
REMARK    9  A    between atoms: N_19  and  C_20
REMARK   10  A    between atoms: C_29  and  C_30
REMARK                            x       y       z     vdW  Elec       q    Type
REMARK                         _______ _______ _______ _____ _____    ______ ____
ROOT
ATOM      1  C   UNL     1       1.675   8.434  20.491  0.00  0.00    +0.000 C 
ENDROOT
BRANCH   1   2
ATOM      2  S   UNL     1       1.001   9.768  19.529  0.00  0.00    +0.000 S 
ATOM      3  O   UNL     1       1.626  10.986  19.992  0.00  0.00    +0.000 OA
ATOM      4  O   UNL     1       1.055   9.368  18.136  0.00  0.00    +0.000 OA
BRANCH   2   5
ATOM      5  N   UNL     1      -0.627   9.762  20.024  0.00  0.00    +0.000 NA
ATOM      6  C   UNL     1      -0.860   9.403  21.463  0.00  0.00    +0.000 C 
ATOM      7  C   UNL     1      -0.460  10.564  22.398  0.00  0.00    +0.000 C 
ATOM      8  N   UNL     1      -1.188  11.787  22.010  0.00  0.00    +0.000 N 
ATOM      9  C   UNL     1      -1.065  12.181  20.596  0.00  0.00    +0.000 C 
ATOM     10  C   UNL     1      -1.426  10.991  19.680  0.00  0.00    +0.000 C 
BRANCH   8  11
ATOM     11  C   UNL     1      -1.806  12.578  22.958  0.00  0.00    +0.000 A 
ATOM     12  C   UNL     1      -3.069  12.255  23.482  0.00  0.00    +0.000 A 
ATOM     13  C   UNL     1      -3.753  13.113  24.350  0.00  0.00    +0.000 A 
ATOM     14  C   UNL     1      -3.175  14.315  24.735  0.00  0.00    +0.000 A 
ATOM     15  C   UNL     1      -1.907  14.642  24.270  0.00  0.00    +0.000 A 
ATOM     16  C   UNL     1      -1.234  13.780  23.397  0.00  0.00    +0.000 A 
ENDBRANCH   8  11
ENDBRANCH   2   5
ENDBRANCH   1   2
BRANCH   1  17
ATOM     17  C   UNL     1       2.133   7.270  19.636  0.00  0.00    +0.000 C 
BRANCH  17  18
ATOM     18  N   UNL     1       2.591   6.141  20.454  0.00  0.00    +0.000 NA
ATOM     19  H   UNL     1       3.364   6.316  21.111  0.00  0.00    +0.000 HD
BRANCH  18  20
ATOM     20  S   UNL     1       2.713   4.626  19.729  0.00  0.00    +0.000 S 
ATOM     21  O   UNL     1       1.523   4.402  18.949  0.00  0.00    +0.000 OA
ATOM     22  O   UNL     1       3.145   3.709  20.759  0.00  0.00    +0.000 OA
BRANCH  20  26
ATOM     23  C   UNL     1       6.165   5.342  16.829  0.00  0.00    +0.000 A 
ATOM     24  C   UNL     1       4.935   4.861  16.360  0.00  0.00    +0.000 A 
ATOM     25  C   UNL     1       3.885   4.630  17.246  0.00  0.00    +0.000 A 
ATOM     26  C   UNL     1       4.079   4.845  18.610  0.00  0.00    +0.000 A 
ATOM     27  C   UNL     1       5.311   5.291  19.095  0.00  0.00    +0.000 A 
ATOM     28  C   UNL     1       6.369   5.535  18.207  0.00  0.00    +0.000 A 
ATOM     29  C   UNL     1       7.694   6.002  18.745  0.00  0.00    +0.000 C 
BRANCH  23  31
ATOM     30  C   UNL     1       7.242   4.877  14.786  0.00  0.00    +0.000 C 
ATOM     31  O   UNL     1       7.215   5.633  15.997  0.00  0.00    +0.000 OA
ENDBRANCH  23  31
ENDBRANCH  20  26
ENDBRANCH  18  20
ENDBRANCH  17  18
ENDBRANCH   1  17
TORSDOF 8
ENDMDL
MODEL 6
REMARK VINA RESULT:      -7.0      6.250     10.261
REMARK  Name = 
REMARK  10 active torsions:
REMARK  status: ('A' for Active; 'I' for Inactive)
REMARK    1  A    between atoms: C_1  and  O_2
REMARK    2  A    between atoms: O_2  and  C_3
REMARK    3  A    between atoms: C_6  and  S_7
REMARK    4  A    between atoms: S_7  and  N_10
REMARK    5  A    between atoms: N_10  and  C_11
REMARK    6  A    between atoms: C_11  and  C_12
REMARK    7  A    between atoms: C_12  and  S_13
REMARK    8  A    between atoms: S_13  and  N_16
REMARK    9  A    between atoms: N_19  and  C_20
REMARK   10  A    between atoms: C_29  and  C_30
REMARK                            x       y       z     vdW  Elec       q    Type
REMARK                         _______ _______ _______ _____ _____    ______ ____
ROOT
ATOM      1  C   UNL     1       1.905   8.540  20.566  0.00  0.00    +0.000 C 
ENDROOT
BRANCH   1   2
ATOM      2  S   UNL     1       0.432   9.369  21.117  0.00  0.00    +0.000 S 
ATOM      3  O   UNL     1      -0.524   8.347  21.478  0.00  0.00    +0.000 OA
ATOM      4  O   UNL     1       0.838  10.396  22.056  0.00  0.00    +0.000 OA
BRANCH   2   5
ATOM      5  N   UNL     1      -0.091  10.129  19.687  0.00  0.00    +0.000 NA
ATOM      6  C   UNL     1      -1.152  11.177  19.865  0.00  0.00    +0.000 C 
ATOM      7  C   UNL     1      -0.561  12.468  20.472  0.00  0.00    +0.000 C 
ATOM      8  N   UNL     1       0.551  12.947  19.630  0.00  0.00    +0.000 N 
ATOM      9  C   UNL     1       1.611  11.962  19.350  0.00  0.00    +0.000 C 
ATOM     10  C   UNL     1       0.992  10.663  18.788  0.00  0.00    +0.000 C 
BRANCH   8  11
ATOM     11  C   UNL     1       0.650  14.277  19.271  0.00  0.00    +0.000 A 
ATOM     12  C   UNL     1      -0.484  15.095  19.144  0.00  0.00    +0.000 A 
ATOM     13  C   UNL     1      -0.402  16.407  18.664  0.00  0.00    +0.000 A 
ATOM     14  C   UNL     1       0.831  16.942  18.316  0.00  0.00    +0.000 A 
ATOM     15  C   UNL     1       1.978  16.173  18.475  0.00  0.00    +0.000 A 
ATOM     16  C   UNL     1       1.884  14.860  18.949  0.00  0.00    +0.000 A 
ENDBRANCH   8  11
ENDBRANCH   2   5
ENDBRANCH   1   2
BRANCH   1  17
ATOM     17  C   UNL     1       1.681   7.066  20.302  0.00  0.00    +0.000 C 
BRANCH  17  18
ATOM     18  N   UNL     1       2.334   6.631  19.062  0.00  0.00    +0.000 NA
ATOM     19  H   UNL     1       2.080   7.126  18.195  0.00  0.00    +0.000 HD
BRANCH  18  20
ATOM     20  S   UNL     1       2.543   4.980  18.804  0.00  0.00    +0.000 S 
ATOM     21  O   UNL     1       1.470   4.514  17.963  0.00  0.00    +0.000 OA
ATOM     22  O   UNL     1       2.823   4.393  20.095  0.00  0.00    +0.000 OA
BRANCH  20  26
ATOM     23  C   UNL     1       6.337   4.926  16.266  0.00  0.00    +0.000 A 
ATOM     24  C   UNL     1       5.378   3.914  16.126  0.00  0.00    +0.000 A 
ATOM     25  C   UNL     1       4.226   3.922  16.910  0.00  0.00    +0.000 A 
ATOM     26  C   UNL     1       4.051   4.926  17.862  0.00  0.00    +0.000 A 
ATOM     27  C   UNL     1       5.016   5.922  18.036  0.00  0.00    +0.000 A 
ATOM     28  C   UNL     1       6.173   5.924  17.244  0.00  0.00    +0.000 A 
ATOM     29  C   UNL     1       7.209   6.995  17.450  0.00  0.00    +0.000 C 
BRANCH  23  31
ATOM     30  C   UNL     1       7.220   4.962  14.083  0.00  0.00    +0.000 C 
ATOM     31  O   UNL     1       7.465   4.994  15.489  0.00  0.00    +0.000 OA
ENDBRANCH  23  31
ENDBRANCH  20  26
ENDBRANCH  18  20
ENDBRANCH  17  18
ENDBRANCH   1  17
TORSDOF 8
ENDMDL
MODEL 7
REMARK VINA RESULT:      -7.0      1.845      2.647
REMARK  Name = 
REMARK  10 active torsions:
REMARK  status: ('A' for Active; 'I' for Inactive)
REMARK    1  A    between atoms: C_1  and  O_2
REMARK    2  A    between atoms: O_2  and  C_3
REMARK    3  A    between atoms: C_6  and  S_7
REMARK    4  A    between atoms: S_7  and  N_10
REMARK    5  A    between atoms: N_10  and  C_11
REMARK    6  A    between atoms: C_11  and  C_12
REMARK    7  A    between atoms: C_12  and  S_13
REMARK    8  A    between atoms: S_13  and  N_16
REMARK    9  A    between atoms: N_19  and  C_20
REMARK   10  A    between atoms: C_29  and  C_30
REMARK                            x       y       z     vdW  Elec       q    Type
REMARK                         _______ _______ _______ _____ _____    ______ ____
ROOT
ATOM      1  C   UNL     1       7.229   8.452  17.459  0.00  0.00    +0.000 C 
ENDROOT
BRANCH   1   2
ATOM      2  S   UNL     1       7.012   6.690  17.362  0.00  0.00    +0.000 S 
ATOM      3  O   UNL     1       7.878   6.211  16.308  0.00  0.00    +0.000 OA
ATOM      4  O   UNL     1       7.097   6.169  18.712  0.00  0.00    +0.000 OA
BRANCH   2   5
ATOM      5  N   UNL     1       5.396   6.569  16.842  0.00  0.00    +0.000 NA
ATOM      6  C   UNL     1       4.976   5.212  16.357  0.00  0.00    +0.000 C 
ATOM      7  C   UNL     1       4.791   4.233  17.535  0.00  0.00    +0.000 C 
ATOM      8  N   UNL     1       3.829   4.795  18.501  0.00  0.00    +0.000 N 
ATOM      9  C   UNL     1       4.130   6.154  18.985  0.00  0.00    +0.000 C 
ATOM     10  C   UNL     1       4.356   7.105  17.791  0.00  0.00    +0.000 C 
BRANCH   8  11
ATOM     11  C   UNL     1       2.808   4.023  19.021  0.00  0.00    +0.000 A 
ATOM     12  C   UNL     1       1.977   3.244  18.199  0.00  0.00    +0.000 A 
ATOM     13  C   UNL     1       0.868   2.556  18.704  0.00  0.00    +0.000 A 
ATOM     14  C   UNL     1       0.575   2.615  20.059  0.00  0.00    +0.000 A 
ATOM     15  C   UNL     1       1.405   3.340  20.906  0.00  0.00    +0.000 A 
ATOM     16  C   UNL     1       2.507   4.030  20.390  0.00  0.00    +0.000 A 
ENDBRANCH   8  11
ENDBRANCH   2   5
ENDBRANCH   1   2
BRANCH   1  17
ATOM     17  C   UNL     1       8.433   8.847  18.288  0.00  0.00    +0.000 C 
BRANCH  17  18
ATOM     18  N   UNL     1       8.768  10.266  18.119  0.00  0.00    +0.000 NA
ATOM     19  H   UNL     1       9.006  10.585  17.170  0.00  0.00    +0.000 HD
BRANCH  18  20
ATOM     20  S   UNL     1       9.724  11.007  19.290  0.00  0.00    +0.000 S 
ATOM     21  O   UNL     1      11.094  10.967  18.847  0.00  0.00    +0.000 OA
ATOM     22  O   UNL     1       9.309  10.467  20.565  0.00  0.00    +0.000 OA
BRANCH  20  26
ATOM     23  C   UNL     1       8.143  15.288  19.147  0.00  0.00    +0.000 A 
ATOM     24  C   UNL     1       8.215  14.521  17.977  0.00  0.00    +0.000 A 
ATOM     25  C   UNL     1       8.710  13.219  18.017  0.00  0.00    +0.000 A 
ATOM     26  C   UNL     1       9.168  12.697  19.226  0.00  0.00    +0.000 A 
ATOM     27  C   UNL     1       9.135  13.463  20.395  0.00  0.00    +0.000 A 
ATOM     28  C   UNL     1       8.629  14.771  20.362  0.00  0.00    +0.000 A 
ATOM     29  C   UNL     1       8.610  15.588  21.624  0.00  0.00    +0.000 C 
BRANCH  23  31
ATOM     30  C   UNL     1       6.256  16.645  18.770  0.00  0.00    +0.000 C 
ATOM     31  O   UNL     1       7.621  16.556  19.174  0.00  0.00    +0.000 OA
ENDBRANCH  23  31
ENDBRANCH  20  26
ENDBRANCH  18  20
ENDBRANCH  17  18
ENDBRANCH   1  17
TORSDOF 8
ENDMDL
MODEL 8
REMARK VINA RESULT:      -7.0      6.733     10.027
REMARK  Name = 
REMARK  10 active torsions:
REMARK  status: ('A' for Active; 'I' for Inactive)
REMARK    1  A    between atoms: C_1  and  O_2
REMARK    2  A    between atoms: O_2  and  C_3
REMARK    3  A    between atoms: C_6  and  S_7
REMARK    4  A    between atoms: S_7  and  N_10
REMARK    5  A    between atoms: N_10  and  C_11
REMARK    6  A    between atoms: C_11  and  C_12
REMARK    7  A    between atoms: C_12  and  S_13
REMARK    8  A    between atoms: S_13  and  N_16
REMARK    9  A    between atoms: N_19  and  C_20
REMARK   10  A    between atoms: C_29  and  C_30
REMARK                            x       y       z     vdW  Elec       q    Type
REMARK                         _______ _______ _______ _____ _____    ______ ____
ROOT
ATOM      1  C   UNL     1       0.941   8.582  19.801  0.00  0.00    +0.000 C 
ENDROOT
BRANCH   1   2
ATOM      2  S   UNL     1       0.842   9.999  18.732  0.00  0.00    +0.000 S 
ATOM      3  O   UNL     1       2.003   9.966  17.871  0.00  0.00    +0.000 OA
ATOM      4  O   UNL     1      -0.503  10.042  18.193  0.00  0.00    +0.000 OA
BRANCH   2   5
ATOM      5  N   UNL     1       1.017  11.280  19.839  0.00  0.00    +0.000 NA
ATOM      6  C   UNL     1       0.282  12.540  19.486  0.00  0.00    +0.000 C 
ATOM      7  C   UNL     1      -1.235  12.386  19.727  0.00  0.00    +0.000 C 
ATOM      8  N   UNL     1      -1.476  11.981  21.124  0.00  0.00    +0.000 N 
ATOM      9  C   UNL     1      -0.744  10.784  21.577  0.00  0.00    +0.000 C 
ATOM     10  C   UNL     1       0.763  10.942  21.285  0.00  0.00    +0.000 C 
BRANCH   8  11
ATOM     11  C   UNL     1      -2.444  12.602  21.889  0.00  0.00    +0.000 A 
ATOM     12  C   UNL     1      -2.764  12.157  23.182  0.00  0.00    +0.000 A 
ATOM     13  C   UNL     1      -3.824  12.704  23.913  0.00  0.00    +0.000 A 
ATOM     14  C   UNL     1      -4.583  13.732  23.370  0.00  0.00    +0.000 A 
ATOM     15  C   UNL     1      -4.263  14.224  22.111  0.00  0.00    +0.000 A 
ATOM     16  C   UNL     1      -3.205  13.666  21.385  0.00  0.00    +0.000 A 
ENDBRANCH   8  11
ENDBRANCH   2   5
ENDBRANCH   1   2
BRANCH   1  17
ATOM     17  C   UNL     1       2.225   7.800  19.617  0.00  0.00    +0.000 C 
BRANCH  17  18
ATOM     18  N   UNL     1       2.204   7.004  18.384  0.00  0.00    +0.000 NA
ATOM     19  H   UNL     1       1.467   7.215  17.697  0.00  0.00    +0.000 HD
BRANCH  18  20
ATOM     20  S   UNL     1       2.503   5.350  18.496  0.00  0.00    +0.000 S 
ATOM     21  O   UNL     1       1.491   4.656  17.742  0.00  0.00    +0.000 OA
ATOM     22  O   UNL     1       2.756   5.069  19.890  0.00  0.00    +0.000 OA
BRANCH  20  26
ATOM     23  C   UNL     1       6.407   4.994  16.156  0.00  0.00    +0.000 A 
ATOM     24  C   UNL     1       5.427   3.997  16.053  0.00  0.00    +0.000 A 
ATOM     25  C   UNL     1       4.241   4.098  16.777  0.00  0.00    +0.000 A 
ATOM     26  C   UNL     1       4.051   5.181  17.634  0.00  0.00    +0.000 A 
ATOM     27  C   UNL     1       5.035   6.164  17.773  0.00  0.00    +0.000 A 
ATOM     28  C   UNL     1       6.227   6.073  17.040  0.00  0.00    +0.000 A 
ATOM     29  C   UNL     1       7.282   7.131  17.208  0.00  0.00    +0.000 C 
BRANCH  23  31
ATOM     30  C   UNL     1       7.393   4.774  14.028  0.00  0.00    +0.000 C 
ATOM     31  O   UNL     1       7.570   4.970  15.430  0.00  0.00    +0.000 OA
ENDBRANCH  23  31
ENDBRANCH  20  26
ENDBRANCH  18  20
ENDBRANCH  17  18
ENDBRANCH   1  17
TORSDOF 8
ENDMDL
MODEL 9
REMARK VINA RESULT:      -7.0      1.782      2.657
REMARK  Name = 
REMARK  10 active torsions:
REMARK  status: ('A' for Active; 'I' for Inactive)
REMARK    1  A    between atoms: C_1  and  O_2
REMARK    2  A    between atoms: O_2  and  C_3
REMARK    3  A    between atoms: C_6  and  S_7
REMARK    4  A    between atoms: S_7  and  N_10
REMARK    5  A    between atoms: N_10  and  C_11
REMARK    6  A    between atoms: C_11  and  C_12
REMARK    7  A    between atoms: C_12  and  S_13
REMARK    8  A    between atoms: S_13  and  N_16
REMARK    9  A    between atoms: N_19  and  C_20
REMARK   10  A    between atoms: C_29  and  C_30
REMARK                            x       y       z     vdW  Elec       q    Type
REMARK                         _______ _______ _______ _____ _____    ______ ____
ROOT
ATOM      1  C   UNL     1       6.957   8.493  17.428  0.00  0.00    +0.000 C 
ENDROOT
BRANCH   1   2
ATOM      2  S   UNL     1       6.922   6.736  17.158  0.00  0.00    +0.000 S 
ATOM      3  O   UNL     1       7.887   6.444  16.123  0.00  0.00    +0.000 OA
ATOM      4  O   UNL     1       6.985   6.098  18.458  0.00  0.00    +0.000 OA
BRANCH   2   5
ATOM      5  N   UNL     1       5.357   6.516  16.528  0.00  0.00    +0.000 NA
ATOM      6  C   UNL     1       4.987   5.097  16.205  0.00  0.00    +0.000 C 
ATOM      7  C   UNL     1       4.709   4.289  17.491  0.00  0.00    +0.000 C 
ATOM      8  N   UNL     1       3.664   4.963  18.284  0.00  0.00    +0.000 N 
ATOM      9  C   UNL     1       3.916   6.382  18.596  0.00  0.00    +0.000 C 
ATOM     10  C   UNL     1       4.237   7.160  17.301  0.00  0.00    +0.000 C 
BRANCH   8  11
ATOM     11  C   UNL     1       2.608   4.254  18.821  0.00  0.00    +0.000 A 
ATOM     12  C   UNL     1       2.158   4.474  20.133  0.00  0.00    +0.000 A 
ATOM     13  C   UNL     1       1.171   3.678  20.722  0.00  0.00    +0.000 A 
ATOM     14  C   UNL     1       0.590   2.645  19.999  0.00  0.00    +0.000 A 
ATOM     15  C   UNL     1       0.981   2.430  18.682  0.00  0.00    +0.000 A 
ATOM     16  C   UNL     1       1.974   3.229  18.104  0.00  0.00    +0.000 A 
ENDBRANCH   8  11
ENDBRANCH   2   5
ENDBRANCH   1   2
BRANCH   1  17
ATOM     17  C   UNL     1       8.259   8.963  18.042  0.00  0.00    +0.000 C 
BRANCH  17  18
ATOM     18  N   UNL     1       8.411  10.420  17.946  0.00  0.00    +0.000 NA
ATOM     19  H   UNL     1       8.156  10.864  17.053  0.00  0.00    +0.000 HD
BRANCH  18  20
ATOM     20  S   UNL     1       9.777  11.129  18.632  0.00  0.00    +0.000 S 
ATOM     21  O   UNL     1      10.800  11.209  17.621  0.00  0.00    +0.000 OA
ATOM     22  O   UNL     1       9.992  10.468  19.899  0.00  0.00    +0.000 OA
BRANCH  20  26
ATOM     23  C   UNL     1       8.196  15.300  19.602  0.00  0.00    +0.000 A 
ATOM     24  C   UNL     1       7.897  14.699  18.372  0.00  0.00    +0.000 A 
ATOM     25  C   UNL     1       8.390  13.431  18.070  0.00  0.00    +0.000 A 
ATOM     26  C   UNL     1       9.215  12.779  18.986  0.00  0.00    +0.000 A 
ATOM     27  C   UNL     1       9.549  13.382  20.202  0.00  0.00    +0.000 A 
ATOM     28  C   UNL     1       9.048  14.654  20.516  0.00  0.00    +0.000 A 
ATOM     29  C   UNL     1       9.426  15.296  21.823  0.00  0.00    +0.000 C 
BRANCH  23  31
ATOM     30  C   UNL     1       7.048  17.241  18.924  0.00  0.00    +0.000 C 
ATOM     31  O   UNL     1       7.698  16.523  19.972  0.00  0.00    +0.000 OA
ENDBRANCH  23  31
ENDBRANCH  20  26
ENDBRANCH  18  20
ENDBRANCH  17  18
ENDBRANCH   1  17
TORSDOF 8
ENDMDL
