MODEL 1
REMARK VINA RESULT:      -7.0      0.000      0.000
REMARK  Name = 
REMARK  8 active torsions:
REMARK  status: ('A' for Active; 'I' for Inactive)
REMARK    1  A    between atoms: C_1  and  C_2
REMARK    2  A    between atoms: C_2  and  C_3
REMARK    3  A    between atoms: C_3  and  N_4
REMARK    4  A    between atoms: N_4  and  C_5
REMARK    5  A    between atoms: C_5  and  C_6
REMARK    6  A    between atoms: C_10  and  C_11
REMARK    7  A    between atoms: C_17  and  C_18
REMARK    8  A    between atoms: N_21  and  C_22
REMARK                            x       y       z     vdW  Elec       q    Type
REMARK                         _______ _______ _______ _____ _____    ______ ____
ROOT
ATOM      1  C   UNL     1       4.095   6.335  18.154  0.00  0.00    +0.000 C 
ATOM      2  O   UNL     1       5.266   6.620  18.388  0.00  0.00    +0.000 OA
ATOM      3  N   UNL     1       3.730   5.108  17.605  0.00  0.00    +0.000 N 
ATOM      4  C   UNL     1       2.401   4.536  17.476  0.00  0.00    +0.000 C 
ATOM      5  C   UNL     1       2.560   3.117  17.981  0.00  0.00    +0.000 C 
ATOM      6  C   UNL     1       3.961   2.729  17.534  0.00  0.00    +0.000 C 
ATOM      7  C   UNL     1       4.744   4.055  17.484  0.00  0.00    +0.000 C 
ENDROOT
BRANCH   1  12
ATOM      8  N   UNL     1       0.179  10.149  19.660  0.00  0.00    +0.000 N 
ATOM      9  C   UNL     1       1.160   9.215  19.310  0.00  0.00    +0.000 A 
ATOM     10  C   UNL     1       1.702   9.238  18.025  0.00  0.00    +0.000 A 
ATOM     11  C   UNL     1       2.655   8.288  17.651  0.00  0.00    +0.000 A 
ATOM     12  C   UNL     1       3.066   7.322  18.569  0.00  0.00    +0.000 A 
ATOM     13  C   UNL     1       2.442   7.330  19.801  0.00  0.00    +0.000 A 
ATOM     14  N   UNL     1       1.528   8.256  20.191  0.00  0.00    +0.000 NA
BRANCH   8  15
ATOM     15  C   UNL     1       0.612  11.559  19.638  0.00  0.00    +0.000 C 
ATOM     16  C   UNL     1      -0.329  12.486  18.875  0.00  0.00    +0.000 C 
ENDBRANCH   8  15
BRANCH   8  17
ATOM     17  C   UNL     1      -0.727   9.721  20.736  0.00  0.00    +0.000 C 
BRANCH  17  19
ATOM     18  C   UNL     1      -0.208   9.602  23.236  0.00  0.00    +0.000 C 
ATOM     19  C   UNL     1      -0.478  10.499  22.034  0.00  0.00    +0.000 C 
ENDBRANCH  17  19
ENDBRANCH   8  17
ENDBRANCH   1  12
BRANCH   7  20
ATOM     20  C   UNL     1       5.511   4.163  16.206  0.00  0.00    +0.000 A 
ATOM     21  C   UNL     1       6.838   4.639  16.065  0.00  0.00    +0.000 A 
ATOM     22  N   UNL     1       7.304   4.516  14.820  0.00  0.00    +0.000 NA
ATOM     23  N   UNL     1       6.268   3.989  14.146  0.00  0.00    +0.000 N 
ATOM     24  C   UNL     1       6.406   3.658  12.750  0.00  0.00    +0.000 C 
ATOM     25  C   UNL     1       5.172   3.763  14.927  0.00  0.00    +0.000 A 
ENDBRANCH   7  20
TORSDOF 5
ENDMDL
MODEL 2
REMARK VINA RESULT:      -6.7      2.016      8.373
REMARK  Name = 
REMARK  8 active torsions:
REMARK  status: ('A' for Active; 'I' for Inactive)
REMARK    1  A    between atoms: C_1  and  C_2
REMARK    2  A    between atoms: C_2  and  C_3
REMARK    3  A    between atoms: C_3  and  N_4
REMARK    4  A    between atoms: N_4  and  C_5
REMARK    5  A    between atoms: C_5  and  C_6
REMARK    6  A    between atoms: C_10  and  C_11
REMARK    7  A    between atoms: C_17  and  C_18
REMARK    8  A    between atoms: N_21  and  C_22
REMARK                            x       y       z     vdW  Elec       q    Type
REMARK                         _______ _______ _______ _____ _____    ______ ____
ROOT
ATOM      1  C   UNL     1       1.797   8.837  18.358  0.00  0.00    +0.000 C 
ATOM      2  O   UNL     1       1.565   9.538  17.377  0.00  0.00    +0.000 OA
ATOM      3  N   UNL     1       1.346   9.178  19.631  0.00  0.00    +0.000 N 
ATOM      4  C   UNL     1       1.342   8.366  20.835  0.00  0.00    +0.000 C 
ATOM      5  C   UNL     1      -0.053   8.548  21.397  0.00  0.00    +0.000 C 
ATOM      6  C   UNL     1      -0.396   9.990  21.054  0.00  0.00    +0.000 C 
ATOM      7  C   UNL     1       0.407  10.296  19.775  0.00  0.00    +0.000 C 
ENDROOT
BRANCH   1  12
ATOM      8  N   UNL     1       4.417   3.891  17.454  0.00  0.00    +0.000 N 
ATOM      9  C   UNL     1       3.788   5.116  17.698  0.00  0.00    +0.000 A 
ATOM     10  C   UNL     1       2.408   5.152  17.897  0.00  0.00    +0.000 A 
ATOM     11  C   UNL     1       1.762   6.373  18.104  0.00  0.00    +0.000 A 
ATOM     12  C   UNL     1       2.504   7.554  18.117  0.00  0.00    +0.000 A 
ATOM     13  C   UNL     1       3.855   7.443  17.856  0.00  0.00    +0.000 A 
ATOM     14  N   UNL     1       4.505   6.263  17.671  0.00  0.00    +0.000 NA
BRANCH   8  15
ATOM     15  C   UNL     1       4.336   2.910  18.553  0.00  0.00    +0.000 C 
ATOM     16  C   UNL     1       3.515   1.668  18.218  0.00  0.00    +0.000 C 
ENDBRANCH   8  15
BRANCH   8  17
ATOM     17  C   UNL     1       5.675   3.980  16.699  0.00  0.00    +0.000 C 
BRANCH  17  19
ATOM     18  C   UNL     1       6.635   4.566  14.403  0.00  0.00    +0.000 C 
ATOM     19  C   UNL     1       5.428   4.066  15.188  0.00  0.00    +0.000 C 
ENDBRANCH  17  19
ENDBRANCH   8  17
ENDBRANCH   1  12
BRANCH   7  20
ATOM     20  C   UNL     1       1.114  11.606  19.901  0.00  0.00    +0.000 A 
ATOM     21  C   UNL     1       1.346  12.319  21.104  0.00  0.00    +0.000 A 
ATOM     22  N   UNL     1       2.101  13.406  20.927  0.00  0.00    +0.000 NA
ATOM     23  N   UNL     1       2.334  13.415  19.604  0.00  0.00    +0.000 N 
ATOM     24  C   UNL     1       3.174  14.432  19.024  0.00  0.00    +0.000 C 
ATOM     25  C   UNL     1       1.763  12.364  18.945  0.00  0.00    +0.000 A 
ENDBRANCH   7  20
TORSDOF 5
ENDMDL
MODEL 3
REMARK VINA RESULT:      -6.5      2.946      9.152
REMARK  Name = 
REMARK  8 active torsions:
REMARK  status: ('A' for Active; 'I' for Inactive)
REMARK    1  A    between atoms: C_1  and  C_2
REMARK    2  A    between atoms: C_2  and  C_3
REMARK    3  A    between atoms: C_3  and  N_4
REMARK    4  A    between atoms: N_4  and  C_5
REMARK    5  A    between atoms: C_5  and  C_6
REMARK    6  A    between atoms: C_10  and  C_11
REMARK    7  A    between atoms: C_17  and  C_18
REMARK    8  A    between atoms: N_21  and  C_22
REMARK                            x       y       z     vdW  Elec       q    Type
REMARK                         _______ _______ _______ _____ _____    ______ ____
ROOT
ATOM      1  C   UNL     1       0.377  10.570  19.226  0.00  0.00    +0.000 C 
ATOM      2  O   UNL     1       0.919  11.541  19.746  0.00  0.00    +0.000 OA
ATOM      3  N   UNL     1      -0.930  10.623  18.748  0.00  0.00    +0.000 N 
ATOM      4  C   UNL     1      -1.631   9.655  17.922  0.00  0.00    +0.000 C 
ATOM      5  C   UNL     1      -2.275  10.492  16.838  0.00  0.00    +0.000 C 
ATOM      6  C   UNL     1      -2.643  11.785  17.551  0.00  0.00    +0.000 C 
ATOM      7  C   UNL     1      -1.610  11.921  18.685  0.00  0.00    +0.000 C 
ENDROOT
BRANCH   1  12
ATOM      8  N   UNL     1       3.557   5.944  18.428  0.00  0.00    +0.000 N 
ATOM      9  C   UNL     1       2.752   7.070  18.633  0.00  0.00    +0.000 A 
ATOM     10  C   UNL     1       2.548   7.969  17.587  0.00  0.00    +0.000 A 
ATOM     11  C   UNL     1       1.777   9.115  17.790  0.00  0.00    +0.000 A 
ATOM     12  C   UNL     1       1.208   9.354  19.040  0.00  0.00    +0.000 A 
ATOM     13  C   UNL     1       1.502   8.448  20.041  0.00  0.00    +0.000 A 
ATOM     14  N   UNL     1       2.234   7.316  19.858  0.00  0.00    +0.000 NA
BRANCH   8  15
ATOM     15  C   UNL     1       3.060   4.987  17.421  0.00  0.00    +0.000 C 
ATOM     16  C   UNL     1       1.712   4.364  17.769  0.00  0.00    +0.000 C 
ENDBRANCH   8  15
BRANCH   8  17
ATOM     17  C   UNL     1       4.189   5.404  19.641  0.00  0.00    +0.000 C 
BRANCH  17  19
ATOM     18  C   UNL     1       6.696   5.486  19.145  0.00  0.00    +0.000 C 
ATOM     19  C   UNL     1       5.460   4.610  19.316  0.00  0.00    +0.000 C 
ENDBRANCH  17  19
ENDBRANCH   8  17
ENDBRANCH   1  12
BRANCH   7  20
ATOM     20  C   UNL     1      -2.288  12.259  19.974  0.00  0.00    +0.000 A 
ATOM     21  C   UNL     1      -3.641  12.652  20.129  0.00  0.00    +0.000 A 
ATOM     22  N   UNL     1      -4.001  12.781  21.408  0.00  0.00    +0.000 NA
ATOM     23  N   UNL     1      -2.873  12.502  22.082  0.00  0.00    +0.000 N 
ATOM     24  C   UNL     1      -2.877  12.488  23.524  0.00  0.00    +0.000 C 
ATOM     25  C   UNL     1      -1.820  12.187  21.272  0.00  0.00    +0.000 A 
ENDBRANCH   7  20
TORSDOF 5
ENDMDL
MODEL 4
REMARK VINA RESULT:      -6.4      2.048      8.119
REMARK  Name = 
REMARK  8 active torsions:
REMARK  status: ('A' for Active; 'I' for Inactive)
REMARK    1  A    between atoms: C_1  and  C_2
REMARK    2  A    between atoms: C_2  and  C_3
REMARK    3  A    between atoms: C_3  and  N_4
REMARK    4  A    between atoms: N_4  and  C_5
REMARK    5  A    between atoms: C_5  and  C_6
REMARK    6  A    between atoms: C_10  and  C_11
REMARK    7  A    between atoms: C_17  and  C_18
REMARK    8  A    between atoms: N_21  and  C_22
REMARK                            x       y       z     vdW  Elec       q    Type
REMARK                         _______ _______ _______ _____ _____    ______ ____
ROOT
ATOM      1  C   UNL     1       1.793   8.942  18.393  0.00  0.00    +0.000 C 
ATOM      2  O   UNL     1       1.576   9.553  17.350  0.00  0.00    +0.000 OA
ATOM      3  N   UNL     1       1.316   9.388  19.623  0.00  0.00    +0.000 N 
ATOM      4  C   UNL     1       1.293   8.683  20.893  0.00  0.00    +0.000 C 
ATOM      5  C   UNL     1      -0.113   8.902  21.410  0.00  0.00    +0.000 C 
ATOM      6  C   UNL     1      -0.458  10.306  20.937  0.00  0.00    +0.000 C 
ATOM      7  C   UNL     1       0.367  10.506  19.652  0.00  0.00    +0.000 C 
ENDROOT
BRANCH   1  12
ATOM      8  N   UNL     1       4.596   4.039  17.889  0.00  0.00    +0.000 N 
ATOM      9  C   UNL     1       3.882   5.237  18.004  0.00  0.00    +0.000 A 
ATOM     10  C   UNL     1       4.375   6.391  17.395  0.00  0.00    +0.000 A 
ATOM     11  C   UNL     1       3.691   7.601  17.534  0.00  0.00    +0.000 A 
ATOM     12  C   UNL     1       2.512   7.648  18.277  0.00  0.00    +0.000 A 
ATOM     13  C   UNL     1       2.119   6.477  18.895  0.00  0.00    +0.000 A 
ATOM     14  N   UNL     1       2.760   5.286  18.757  0.00  0.00    +0.000 NA
BRANCH   8  15
ATOM     15  C   UNL     1       4.732   3.514  16.517  0.00  0.00    +0.000 C 
ATOM     16  C   UNL     1       6.068   3.841  15.856  0.00  0.00    +0.000 C 
ENDBRANCH   8  15
BRANCH   8  17
ATOM     17  C   UNL     1       4.372   3.077  18.978  0.00  0.00    +0.000 C 
BRANCH  17  19
ATOM     18  C   UNL     1       2.097   1.913  18.906  0.00  0.00    +0.000 C 
ATOM     19  C   UNL     1       3.567   1.860  18.507  0.00  0.00    +0.000 C 
ENDBRANCH  17  19
ENDBRANCH   8  17
ENDBRANCH   1  12
BRANCH   7  20
ATOM     20  C   UNL     1       1.064  11.829  19.678  0.00  0.00    +0.000 A 
ATOM     21  C   UNL     1       1.476  12.535  20.836  0.00  0.00    +0.000 A 
ATOM     22  N   UNL     1       2.175  13.636  20.551  0.00  0.00    +0.000 NA
ATOM     23  N   UNL     1       2.189  13.661  19.208  0.00  0.00    +0.000 N 
ATOM     24  C   UNL     1       2.908  14.699  18.512  0.00  0.00    +0.000 C 
ATOM     25  C   UNL     1       1.536  12.606  18.638  0.00  0.00    +0.000 A 
ENDBRANCH   7  20
TORSDOF 5
ENDMDL
MODEL 5
REMARK VINA RESULT:      -6.4      2.228      8.620
REMARK  Name = 
REMARK  8 active torsions:
REMARK  status: ('A' for Active; 'I' for Inactive)
REMARK    1  A    between atoms: C_1  and  C_2
REMARK    2  A    between atoms: C_2  and  C_3
REMARK    3  A    between atoms: C_3  and  N_4
REMARK    4  A    between atoms: N_4  and  C_5
REMARK    5  A    between atoms: C_5  and  C_6
REMARK    6  A    between atoms: C_10  and  C_11
REMARK    7  A    between atoms: C_17  and  C_18
REMARK    8  A    between atoms: N_21  and  C_22
REMARK                            x       y       z     vdW  Elec       q    Type
REMARK                         _______ _______ _______ _____ _____    ______ ____
ROOT
ATOM      1  C   UNL     1       0.854   9.494  19.399  0.00  0.00    +0.000 C 
ATOM      2  O   UNL     1       0.176   9.922  18.470  0.00  0.00    +0.000 OA
ATOM      3  N   UNL     1       0.704   9.967  20.701  0.00  0.00    +0.000 N 
ATOM      4  C   UNL     1       1.258   9.423  21.929  0.00  0.00    +0.000 C 
ATOM      5  C   UNL     1       0.082   9.397  22.883  0.00  0.00    +0.000 C 
ATOM      6  C   UNL     1      -0.719  10.633  22.502  0.00  0.00    +0.000 C 
ATOM      7  C   UNL     1      -0.422  10.855  21.007  0.00  0.00    +0.000 C 
ENDROOT
BRANCH   1  12
ATOM      8  N   UNL     1       4.421   5.265  18.156  0.00  0.00    +0.000 N 
ATOM      9  C   UNL     1       3.521   6.291  18.465  0.00  0.00    +0.000 A 
ATOM     10  C   UNL     1       3.408   7.386  17.610  0.00  0.00    +0.000 A 
ATOM     11  C   UNL     1       2.540   8.434  17.926  0.00  0.00    +0.000 A 
ATOM     12  C   UNL     1       1.784   8.377  19.096  0.00  0.00    +0.000 A 
ATOM     13  C   UNL     1       1.993   7.288  19.918  0.00  0.00    +0.000 A 
ATOM     14  N   UNL     1       2.817   6.249  19.620  0.00  0.00    +0.000 NA
BRANCH   8  15
ATOM     15  C   UNL     1       4.138   4.531  16.908  0.00  0.00    +0.000 C 
ATOM     16  C   UNL     1       5.274   4.578  15.890  0.00  0.00    +0.000 C 
ENDBRANCH   8  15
BRANCH   8  17
ATOM     17  C   UNL     1       4.908   4.500  19.313  0.00  0.00    +0.000 C 
BRANCH  17  19
ATOM     18  C   UNL     1       3.354   2.740  20.326  0.00  0.00    +0.000 C 
ATOM     19  C   UNL     1       4.421   3.046  19.281  0.00  0.00    +0.000 C 
ENDBRANCH  17  19
ENDBRANCH   8  17
ENDBRANCH   1  12
BRANCH   7  20
ATOM     20  C   UNL     1      -0.089  12.289  20.746  0.00  0.00    +0.000 A 
ATOM     21  C   UNL     1       1.208  12.859  20.743  0.00  0.00    +0.000 A 
ATOM     22  N   UNL     1       1.211  14.141  20.367  0.00  0.00    +0.000 NA
ATOM     23  N   UNL     1      -0.088  14.410  20.157  0.00  0.00    +0.000 N 
ATOM     24  C   UNL     1      -0.489  15.710  19.681  0.00  0.00    +0.000 C 
ATOM     25  C   UNL     1      -0.907  13.339  20.373  0.00  0.00    +0.000 A 
ENDBRANCH   7  20
TORSDOF 5
ENDMDL
MODEL 6
REMARK VINA RESULT:      -6.4      2.371      8.787
REMARK  Name = 
REMARK  8 active torsions:
REMARK  status: ('A' for Active; 'I' for Inactive)
REMARK    1  A    between atoms: C_1  and  C_2
REMARK    2  A    between atoms: C_2  and  C_3
REMARK    3  A    between atoms: C_3  and  N_4
REMARK    4  A    between atoms: N_4  and  C_5
REMARK    5  A    between atoms: C_5  and  C_6
REMARK    6  A    between atoms: C_10  and  C_11
REMARK    7  A    between atoms: C_17  and  C_18
REMARK    8  A    between atoms: N_21  and  C_22
REMARK                            x       y       z     vdW  Elec       q    Type
REMARK                         _______ _______ _______ _____ _____    ______ ____
ROOT
ATOM      1  C   UNL     1       0.745   9.543  19.487  0.00  0.00    +0.000 C 
ATOM      2  O   UNL     1       0.010   9.945  18.589  0.00  0.00    +0.000 OA
ATOM      3  N   UNL     1       0.615   9.986  20.801  0.00  0.00    +0.000 N 
ATOM      4  C   UNL     1       1.241   9.457  21.999  0.00  0.00    +0.000 C 
ATOM      5  C   UNL     1       0.104   9.348  22.993  0.00  0.00    +0.000 C 
ATOM      6  C   UNL     1      -0.780  10.542  22.662  0.00  0.00    +0.000 C 
ATOM      7  C   UNL     1      -0.549  10.803  21.162  0.00  0.00    +0.000 C 
ENDROOT
BRANCH   1  12
ATOM      8  N   UNL     1       4.492   5.540  18.043  0.00  0.00    +0.000 N 
ATOM      9  C   UNL     1       3.549   6.508  18.405  0.00  0.00    +0.000 A 
ATOM     10  C   UNL     1       3.248   7.539  17.515  0.00  0.00    +0.000 A 
ATOM     11  C   UNL     1       2.336   8.533  17.879  0.00  0.00    +0.000 A 
ATOM     12  C   UNL     1       1.725   8.486  19.131  0.00  0.00    +0.000 A 
ATOM     13  C   UNL     1       2.117   7.467  19.977  0.00  0.00    +0.000 A 
ATOM     14  N   UNL     1       2.987   6.480  19.635  0.00  0.00    +0.000 NA
BRANCH   8  15
ATOM     15  C   UNL     1       4.132   4.714  16.875  0.00  0.00    +0.000 C 
ATOM     16  C   UNL     1       3.167   3.575  17.193  0.00  0.00    +0.000 C 
ENDBRANCH   8  15
BRANCH   8  17
ATOM     17  C   UNL     1       5.170   4.884  19.171  0.00  0.00    +0.000 C 
BRANCH  17  19
ATOM     18  C   UNL     1       7.510   5.144  18.176  0.00  0.00    +0.000 C 
ATOM     19  C   UNL     1       6.596   5.414  19.365  0.00  0.00    +0.000 C 
ENDBRANCH  17  19
ENDBRANCH   8  17
ENDBRANCH   1  12
BRANCH   7  20
ATOM     20  C   UNL     1      -0.308  12.258  20.915  0.00  0.00    +0.000 A 
ATOM     21  C   UNL     1      -1.302  13.252  20.739  0.00  0.00    +0.000 A 
ATOM     22  N   UNL     1      -0.795  14.484  20.648  0.00  0.00    +0.000 NA
ATOM     23  N   UNL     1       0.531  14.285  20.732  0.00  0.00    +0.000 N 
ATOM     24  C   UNL     1       1.433  15.410  20.722  0.00  0.00    +0.000 C 
ATOM     25  C   UNL     1       0.874  12.973  20.889  0.00  0.00    +0.000 A 
ENDBRANCH   7  20
TORSDOF 5
ENDMDL
MODEL 7
REMARK VINA RESULT:      -6.4      3.016      9.090
REMARK  Name = 
REMARK  8 active torsions:
REMARK  status: ('A' for Active; 'I' for Inactive)
REMARK    1  A    between atoms: C_1  and  C_2
REMARK    2  A    between atoms: C_2  and  C_3
REMARK    3  A    between atoms: C_3  and  N_4
REMARK    4  A    between atoms: N_4  and  C_5
REMARK    5  A    between atoms: C_5  and  C_6
REMARK    6  A    between atoms: C_10  and  C_11
REMARK    7  A    between atoms: C_17  and  C_18
REMARK    8  A    between atoms: N_21  and  C_22
REMARK                            x       y       z     vdW  Elec       q    Type
REMARK                         _______ _______ _______ _____ _____    ______ ____
ROOT
ATOM      1  C   UNL     1       0.745  10.582  19.187  0.00  0.00    +0.000 C 
ATOM      2  O   UNL     1       1.445  11.543  19.494  0.00  0.00    +0.000 OA
ATOM      3  N   UNL     1      -0.611  10.718  18.902  0.00  0.00    +0.000 N 
ATOM      4  C   UNL     1      -1.514   9.742  18.317  0.00  0.00    +0.000 C 
ATOM      5  C   UNL     1      -2.247  10.516  17.242  0.00  0.00    +0.000 C 
ATOM      6  C   UNL     1      -2.385  11.912  17.832  0.00  0.00    +0.000 C 
ATOM      7  C   UNL     1      -1.178  12.065  18.776  0.00  0.00    +0.000 C 
ENDROOT
BRANCH   1  12
ATOM      8  N   UNL     1       3.368   5.599  18.524  0.00  0.00    +0.000 N 
ATOM      9  C   UNL     1       2.699   6.815  18.695  0.00  0.00    +0.000 A 
ATOM     10  C   UNL     1       2.661   7.732  17.645  0.00  0.00    +0.000 A 
ATOM     11  C   UNL     1       2.028   8.966  17.815  0.00  0.00    +0.000 A 
ATOM     12  C   UNL     1       1.429   9.273  19.037  0.00  0.00    +0.000 A 
ATOM     13  C   UNL     1       1.557   8.338  20.045  0.00  0.00    +0.000 A 
ATOM     14  N   UNL     1       2.152   7.125  19.894  0.00  0.00    +0.000 NA
BRANCH   8  15
ATOM     15  C   UNL     1       2.810   4.711  17.487  0.00  0.00    +0.000 C 
ATOM     16  C   UNL     1       1.469   4.086  17.862  0.00  0.00    +0.000 C 
ENDBRANCH   8  15
BRANCH   8  17
ATOM     17  C   UNL     1       3.866   4.986  19.764  0.00  0.00    +0.000 C 
BRANCH  17  19
ATOM     18  C   UNL     1       4.223   2.475  20.080  0.00  0.00    +0.000 C 
ATOM     19  C   UNL     1       4.757   3.771  19.482  0.00  0.00    +0.000 C 
ENDBRANCH  17  19
ENDBRANCH   8  17
ENDBRANCH   1  12
BRANCH   7  20
ATOM     20  C   UNL     1      -1.612  12.614  20.097  0.00  0.00    +0.000 A 
ATOM     21  C   UNL     1      -2.940  12.653  20.591  0.00  0.00    +0.000 A 
ATOM     22  N   UNL     1      -3.014  13.096  21.848  0.00  0.00    +0.000 NA
ATOM     23  N   UNL     1      -1.737  13.375  22.159  0.00  0.00    +0.000 N 
ATOM     24  C   UNL     1      -1.400  13.840  23.481  0.00  0.00    +0.000 C 
ATOM     25  C   UNL     1      -0.861  13.108  21.147  0.00  0.00    +0.000 A 
ENDBRANCH   7  20
TORSDOF 5
ENDMDL
MODEL 8
REMARK VINA RESULT:      -6.3      2.049      8.161
REMARK  Name = 
REMARK  8 active torsions:
REMARK  status: ('A' for Active; 'I' for Inactive)
REMARK    1  A    between atoms: C_1  and  C_2
REMARK    2  A    between atoms: C_2  and  C_3
REMARK    3  A    between atoms: C_3  and  N_4
REMARK    4  A    between atoms: N_4  and  C_5
REMARK    5  A    between atoms: C_5  and  C_6
REMARK    6  A    between atoms: C_10  and  C_11
REMARK    7  A    between atoms: C_17  and  C_18
REMARK    8  A    between atoms: N_21  and  C_22
REMARK                            x       y       z     vdW  Elec       q    Type
REMARK                         _______ _______ _______ _____ _____    ______ ____
ROOT
ATOM      1  C   UNL     1       1.702   8.805  18.310  0.00  0.00    +0.000 C 
ATOM      2  O   UNL     1       1.404   9.454  17.311  0.00  0.00    +0.000 OA
ATOM      3  N   UNL     1       1.298   9.188  19.587  0.00  0.00    +0.000 N 
ATOM      4  C   UNL     1       1.374   8.430  20.824  0.00  0.00    +0.000 C 
ATOM      5  C   UNL     1       0.001   8.595  21.441  0.00  0.00    +0.000 C 
ATOM      6  C   UNL     1      -0.403  10.009  21.053  0.00  0.00    +0.000 C 
ATOM      7  C   UNL     1       0.331  10.282  19.726  0.00  0.00    +0.000 C 
ENDROOT
BRANCH   1  12
ATOM      8  N   UNL     1       4.587   3.999  17.454  0.00  0.00    +0.000 N 
ATOM      9  C   UNL     1       3.858   5.178  17.645  0.00  0.00    +0.000 A 
ATOM     10  C   UNL     1       4.520   6.406  17.622  0.00  0.00    +0.000 A 
ATOM     11  C   UNL     1       3.810   7.587  17.849  0.00  0.00    +0.000 A 
ATOM     12  C   UNL     1       2.438   7.534  18.091  0.00  0.00    +0.000 A 
ATOM     13  C   UNL     1       1.866   6.279  18.154  0.00  0.00    +0.000 A 
ATOM     14  N   UNL     1       2.535   5.119  17.918  0.00  0.00    +0.000 NA
BRANCH   8  15
ATOM     15  C   UNL     1       5.237   3.865  16.137  0.00  0.00    +0.000 C 
ATOM     16  C   UNL     1       6.712   4.255  16.130  0.00  0.00    +0.000 C 
ENDBRANCH   8  15
BRANCH   8  17
ATOM     17  C   UNL     1       3.990   2.798  18.056  0.00  0.00    +0.000 C 
BRANCH  17  19
ATOM     18  C   UNL     1       3.215   2.734  20.491  0.00  0.00    +0.000 C 
ATOM     19  C   UNL     1       4.391   2.638  19.527  0.00  0.00    +0.000 C 
ENDBRANCH  17  19
ENDBRANCH   8  17
ENDBRANCH   1  12
BRANCH   7  20
ATOM     20  C   UNL     1       1.001  11.618  19.763  0.00  0.00    +0.000 A 
ATOM     21  C   UNL     1       1.155  12.507  18.670  0.00  0.00    +0.000 A 
ATOM     22  N   UNL     1       1.693  13.676  19.024  0.00  0.00    +0.000 NA
ATOM     23  N   UNL     1       1.918  13.534  20.340  0.00  0.00    +0.000 N 
ATOM     24  C   UNL     1       2.460  14.631  21.104  0.00  0.00    +0.000 C 
ATOM     25  C   UNL     1       1.526  12.322  20.830  0.00  0.00    +0.000 A 
ENDBRANCH   7  20
TORSDOF 5
ENDMDL
MODEL 9
REMARK VINA RESULT:      -6.3      2.779      8.962
REMARK  Name = 
REMARK  8 active torsions:
REMARK  status: ('A' for Active; 'I' for Inactive)
REMARK    1  A    between atoms: C_1  and  C_2
REMARK    2  A    between atoms: C_2  and  C_3
REMARK    3  A    between atoms: C_3  and  N_4
REMARK    4  A    between atoms: N_4  and  C_5
REMARK    5  A    between atoms: C_5  and  C_6
REMARK    6  A    between atoms: C_10  and  C_11
REMARK    7  A    between atoms: C_17  and  C_18
REMARK    8  A    between atoms: N_21  and  C_22
REMARK                            x       y       z     vdW  Elec       q    Type
REMARK                         _______ _______ _______ _____ _____    ______ ____
ROOT
ATOM      1  C   UNL     1       0.811  10.573  18.930  0.00  0.00    +0.000 C 
ATOM      2  O   UNL     1       1.523  11.548  19.158  0.00  0.00    +0.000 OA
ATOM      3  N   UNL     1      -0.541  10.702  18.624  0.00  0.00    +0.000 N 
ATOM      4  C   UNL     1      -1.454   9.690  18.120  0.00  0.00    +0.000 C 
ATOM      5  C   UNL     1      -2.168  10.376  16.974  0.00  0.00    +0.000 C 
ATOM      6  C   UNL     1      -2.290  11.820  17.437  0.00  0.00    +0.000 C 
ATOM      7  C   UNL     1      -1.087  12.040  18.374  0.00  0.00    +0.000 C 
ENDROOT
BRANCH   1  12
ATOM      8  N   UNL     1       3.377   5.520  18.737  0.00  0.00    +0.000 N 
ATOM      9  C   UNL     1       2.720   6.754  18.790  0.00  0.00    +0.000 A 
ATOM     10  C   UNL     1       2.825   7.635  17.714  0.00  0.00    +0.000 A 
ATOM     11  C   UNL     1       2.206   8.885  17.770  0.00  0.00    +0.000 A 
ATOM     12  C   UNL     1       1.477   9.246  18.903  0.00  0.00    +0.000 A 
ATOM     13  C   UNL     1       1.467   8.344  19.949  0.00  0.00    +0.000 A 
ATOM     14  N   UNL     1       2.047   7.116  19.907  0.00  0.00    +0.000 NA
BRANCH   8  15
ATOM     15  C   UNL     1       2.921   4.607  17.672  0.00  0.00    +0.000 C 
ATOM     16  C   UNL     1       4.052   4.001  16.847  0.00  0.00    +0.000 C 
ENDBRANCH   8  15
BRANCH   8  17
ATOM     17  C   UNL     1       3.713   4.941  20.046  0.00  0.00    +0.000 C 
BRANCH  17  19
ATOM     18  C   UNL     1       1.737   3.747  21.143  0.00  0.00    +0.000 C 
ATOM     19  C   UNL     1       2.989   3.611  20.284  0.00  0.00    +0.000 C 
ENDBRANCH  17  19
ENDBRANCH   8  17
ENDBRANCH   1  12
BRANCH   7  20
ATOM     20  C   UNL     1      -1.523  12.710  19.637  0.00  0.00    +0.000 A 
ATOM     21  C   UNL     1      -0.884  13.808  20.265  0.00  0.00    +0.000 A 
ATOM     22  N   UNL     1      -1.561  14.269  21.320  0.00  0.00    +0.000 NA
ATOM     23  N   UNL     1      -2.622  13.450  21.395  0.00  0.00    +0.000 N 
ATOM     24  C   UNL     1      -3.632  13.666  22.401  0.00  0.00    +0.000 C 
ATOM     25  C   UNL     1      -2.645  12.499  20.416  0.00  0.00    +0.000 A 
ENDBRANCH   7  20
TORSDOF 5
ENDMDL
