MODEL 1
REMARK VINA RESULT:      -6.6      0.000      0.000
REMARK  Name = 
REMARK  9 active torsions:
REMARK  status: ('A' for Active; 'I' for Inactive)
REMARK    1  A    between atoms: C_1  and  S_2
REMARK    2  A    between atoms: S_2  and  C_3
REMARK    3  A    between atoms: C_3  and  C_4
REMARK    4  A    between atoms: C_7  and  C_8
REMARK    5  A    between atoms: C_8  and  N_9
REMARK    6  A    between atoms: N_9  and  C_10
REMARK    7  A    between atoms: N_9  and  C_11
REMARK    8  A    between atoms: C_11  and  C_12
REMARK    9  A    between atoms: C_12  and  C_13
REMARK                            x       y       z     vdW  Elec       q    Type
REMARK                         _______ _______ _______ _____ _____    ______ ____
ROOT
ATOM      1  N   UNL     1       5.783   5.635  17.456  0.00  0.00    +0.000 NA
ATOM      2  C   UNL     1       4.951   6.294  16.437  0.00  0.00    +0.000 C 
ENDROOT
BRANCH   1   3
ATOM      3  C   UNL     1       6.561   4.524  16.856  0.00  0.00    +0.000 C 
BRANCH   3   7
ATOM      4  C   UNL     1       7.048   4.484  13.324  0.00  0.00    +0.000 A 
ATOM      5  N   UNL     1       7.901   5.471  13.634  0.00  0.00    +0.000 NA
ATOM      6  O   UNL     1       7.759   5.594  15.019  0.00  0.00    +0.000 OA
ATOM      7  C   UNL     1       6.837   4.657  15.397  0.00  0.00    +0.000 A 
ATOM      8  N   UNL     1       6.376   3.945  14.392  0.00  0.00    +0.000 NA
BRANCH   4   9
ATOM      9  C   UNL     1       6.867   3.993  11.935  0.00  0.00    +0.000 C 
BRANCH   9  11
ATOM     10  C   UNL     1       4.263   3.216  11.386  0.00  0.00    +0.000 C 
ATOM     11  S   UNL     1       5.852   2.477  11.836  0.00  0.00    +0.000 S 
ENDBRANCH   9  11
ENDBRANCH   4   9
ENDBRANCH   3   7
ENDBRANCH   1   3
BRANCH   1  12
ATOM     12  C   UNL     1       4.906   5.130  18.542  0.00  0.00    +0.000 C 
BRANCH  12  13
ATOM     13  C   UNL     1       3.605   4.492  18.030  0.00  0.00    +0.000 C 
BRANCH  13  14
ATOM     14  C   UNL     1       2.796   3.883  19.144  0.00  0.00    +0.000 A 
ATOM     15  C   UNL     1       1.410   4.001  19.161  0.00  0.00    +0.000 A 
ATOM     16  C   UNL     1       0.709   3.466  20.237  0.00  0.00    +0.000 A 
ATOM     17  C   UNL     1       1.405   2.825  21.255  0.00  0.00    +0.000 A 
ATOM     18  C   UNL     1       2.782   2.737  21.151  0.00  0.00    +0.000 A 
ATOM     19  N   UNL     1       3.490   3.240  20.118  0.00  0.00    +0.000 NA
ENDBRANCH  13  14
ENDBRANCH  12  13
ENDBRANCH   1  12
TORSDOF 7
ENDMDL
MODEL 2
REMARK VINA RESULT:      -6.3      1.123      1.296
REMARK  Name = 
REMARK  9 active torsions:
REMARK  status: ('A' for Active; 'I' for Inactive)
REMARK    1  A    between atoms: C_1  and  S_2
REMARK    2  A    between atoms: S_2  and  C_3
REMARK    3  A    between atoms: C_3  and  C_4
REMARK    4  A    between atoms: C_7  and  C_8
REMARK    5  A    between atoms: C_8  and  N_9
REMARK    6  A    between atoms: N_9  and  C_10
REMARK    7  A    between atoms: N_9  and  C_11
REMARK    8  A    between atoms: C_11  and  C_12
REMARK    9  A    between atoms: C_12  and  C_13
REMARK                            x       y       z     vdW  Elec       q    Type
REMARK                         _______ _______ _______ _____ _____    ______ ____
ROOT
ATOM      1  N   UNL     1       6.450   4.702  17.805  0.00  0.00    +0.000 NA
ATOM      2  C   UNL     1       7.450   5.476  18.557  0.00  0.00    +0.000 C 
ENDROOT
BRANCH   1   3
ATOM      3  C   UNL     1       5.879   5.517  16.704  0.00  0.00    +0.000 C 
BRANCH   3   7
ATOM      4  C   UNL     1       6.956   4.553  13.445  0.00  0.00    +0.000 A 
ATOM      5  N   UNL     1       8.007   5.310  13.789  0.00  0.00    +0.000 NA
ATOM      6  O   UNL     1       7.664   5.775  15.061  0.00  0.00    +0.000 OA
ATOM      7  C   UNL     1       6.441   5.238  15.351  0.00  0.00    +0.000 A 
ATOM      8  N   UNL     1       5.966   4.474  14.393  0.00  0.00    +0.000 NA
BRANCH   4   9
ATOM      9  C   UNL     1       6.881   3.832  12.149  0.00  0.00    +0.000 C 
BRANCH   9  11
ATOM     10  C   UNL     1       5.964   1.397  11.194  0.00  0.00    +0.000 C 
ATOM     11  S   UNL     1       5.314   2.920  11.925  0.00  0.00    +0.000 S 
ENDBRANCH   9  11
ENDBRANCH   4   9
ENDBRANCH   3   7
ENDBRANCH   1   3
BRANCH   1  12
ATOM     12  C   UNL     1       5.380   4.263  18.736  0.00  0.00    +0.000 C 
BRANCH  12  13
ATOM     13  C   UNL     1       4.259   3.469  18.047  0.00  0.00    +0.000 C 
BRANCH  13  14
ATOM     14  C   UNL     1       3.036   3.346  18.915  0.00  0.00    +0.000 A 
ATOM     15  C   UNL     1       1.860   2.797  18.413  0.00  0.00    +0.000 A 
ATOM     16  C   UNL     1       0.741   2.750  19.238  0.00  0.00    +0.000 A 
ATOM     17  C   UNL     1       0.828   3.241  20.535  0.00  0.00    +0.000 A 
ATOM     18  C   UNL     1       2.040   3.755  20.960  0.00  0.00    +0.000 A 
ATOM     19  N   UNL     1       3.144   3.809  20.187  0.00  0.00    +0.000 NA
ENDBRANCH  13  14
ENDBRANCH  12  13
ENDBRANCH   1  12
TORSDOF 7
ENDMDL
MODEL 3
REMARK VINA RESULT:      -6.3      2.862      7.153
REMARK  Name = 
REMARK  9 active torsions:
REMARK  status: ('A' for Active; 'I' for Inactive)
REMARK    1  A    between atoms: C_1  and  S_2
REMARK    2  A    between atoms: S_2  and  C_3
REMARK    3  A    between atoms: C_3  and  C_4
REMARK    4  A    between atoms: C_7  and  C_8
REMARK    5  A    between atoms: C_8  and  N_9
REMARK    6  A    between atoms: N_9  and  C_10
REMARK    7  A    between atoms: N_9  and  C_11
REMARK    8  A    between atoms: C_11  and  C_12
REMARK    9  A    between atoms: C_12  and  C_13
REMARK                            x       y       z     vdW  Elec       q    Type
REMARK                         _______ _______ _______ _____ _____    ______ ____
ROOT
ATOM      1  N   UNL     1       5.759   6.520  17.579  0.00  0.00    +0.000 NA
ATOM      2  C   UNL     1       7.097   7.096  17.376  0.00  0.00    +0.000 C 
ENDROOT
BRANCH   1   3
ATOM      3  C   UNL     1       5.651   5.911  18.927  0.00  0.00    +0.000 C 
BRANCH   3   7
ATOM      4  C   UNL     1       3.321   3.219  19.110  0.00  0.00    +0.000 A 
ATOM      5  N   UNL     1       4.429   2.551  19.461  0.00  0.00    +0.000 NA
ATOM      6  O   UNL     1       5.428   3.525  19.386  0.00  0.00    +0.000 OA
ATOM      7  C   UNL     1       4.809   4.683  19.003  0.00  0.00    +0.000 A 
ATOM      8  N   UNL     1       3.513   4.548  18.828  0.00  0.00    +0.000 NA
BRANCH   4   9
ATOM      9  C   UNL     1       1.984   2.575  19.057  0.00  0.00    +0.000 C 
BRANCH   9  11
ATOM     10  C   UNL     1       1.756   2.960  21.793  0.00  0.00    +0.000 C 
ATOM     11  S   UNL     1       0.810   3.259  20.279  0.00  0.00    +0.000 S 
ENDBRANCH   9  11
ENDBRANCH   4   9
ENDBRANCH   3   7
ENDBRANCH   1   3
BRANCH   1  12
ATOM     12  C   UNL     1       5.507   5.503  16.527  0.00  0.00    +0.000 C 
BRANCH  12  13
ATOM     13  C   UNL     1       6.765   4.717  16.123  0.00  0.00    +0.000 C 
BRANCH  13  14
ATOM     14  C   UNL     1       6.940   4.657  14.630  0.00  0.00    +0.000 A 
ATOM     15  C   UNL     1       6.200   3.763  13.863  0.00  0.00    +0.000 A 
ATOM     16  C   UNL     1       6.432   3.708  12.492  0.00  0.00    +0.000 A 
ATOM     17  C   UNL     1       7.384   4.548  11.928  0.00  0.00    +0.000 A 
ATOM     18  C   UNL     1       8.064   5.420  12.760  0.00  0.00    +0.000 A 
ATOM     19  N   UNL     1       7.857   5.501  14.091  0.00  0.00    +0.000 NA
ENDBRANCH  13  14
ENDBRANCH  12  13
ENDBRANCH   1  12
TORSDOF 7
ENDMDL
MODEL 4
REMARK VINA RESULT:      -6.2      1.232      1.601
REMARK  Name = 
REMARK  9 active torsions:
REMARK  status: ('A' for Active; 'I' for Inactive)
REMARK    1  A    between atoms: C_1  and  S_2
REMARK    2  A    between atoms: S_2  and  C_3
REMARK    3  A    between atoms: C_3  and  C_4
REMARK    4  A    between atoms: C_7  and  C_8
REMARK    5  A    between atoms: C_8  and  N_9
REMARK    6  A    between atoms: N_9  and  C_10
REMARK    7  A    between atoms: N_9  and  C_11
REMARK    8  A    between atoms: C_11  and  C_12
REMARK    9  A    between atoms: C_12  and  C_13
REMARK                            x       y       z     vdW  Elec       q    Type
REMARK                         _______ _______ _______ _____ _____    ______ ____
ROOT
ATOM      1  N   UNL     1       4.561   4.686  17.633  0.00  0.00    +0.000 NA
ATOM      2  C   UNL     1       4.261   6.113  17.438  0.00  0.00    +0.000 C 
ENDROOT
BRANCH   1   3
ATOM      3  C   UNL     1       5.990   4.409  17.349  0.00  0.00    +0.000 C 
BRANCH   3   7
ATOM      4  C   UNL     1       6.821   4.460  13.882  0.00  0.00    +0.000 A 
ATOM      5  N   UNL     1       7.583   5.486  14.287  0.00  0.00    +0.000 NA
ATOM      6  O   UNL     1       7.300   5.576  15.653  0.00  0.00    +0.000 OA
ATOM      7  C   UNL     1       6.399   4.584  15.926  0.00  0.00    +0.000 A 
ATOM      8  N   UNL     1       6.079   3.866  14.872  0.00  0.00    +0.000 NA
BRANCH   4   9
ATOM      9  C   UNL     1       6.803   3.986  12.475  0.00  0.00    +0.000 C 
BRANCH   9  11
ATOM     10  C   UNL     1       5.881   1.595  11.418  0.00  0.00    +0.000 C 
ATOM     11  S   UNL     1       5.232   3.177  12.010  0.00  0.00    +0.000 S 
ENDBRANCH   9  11
ENDBRANCH   4   9
ENDBRANCH   3   7
ENDBRANCH   1   3
BRANCH   1  12
ATOM     12  C   UNL     1       3.687   3.883  16.741  0.00  0.00    +0.000 C 
BRANCH  12  13
ATOM     13  C   UNL     1       3.091   2.643  17.425  0.00  0.00    +0.000 C 
BRANCH  13  14
ATOM     14  C   UNL     1       2.576   2.951  18.806  0.00  0.00    +0.000 A 
ATOM     15  C   UNL     1       3.283   2.548  19.934  0.00  0.00    +0.000 A 
ATOM     16  C   UNL     1       2.743   2.810  21.189  0.00  0.00    +0.000 A 
ATOM     17  C   UNL     1       1.524   3.471  21.282  0.00  0.00    +0.000 A 
ATOM     18  C   UNL     1       0.894   3.852  20.110  0.00  0.00    +0.000 A 
ATOM     19  N   UNL     1       1.395   3.617  18.880  0.00  0.00    +0.000 NA
ENDBRANCH  13  14
ENDBRANCH  12  13
ENDBRANCH   1  12
TORSDOF 7
ENDMDL
MODEL 5
REMARK VINA RESULT:      -6.2      1.218      1.305
REMARK  Name = 
REMARK  9 active torsions:
REMARK  status: ('A' for Active; 'I' for Inactive)
REMARK    1  A    between atoms: C_1  and  S_2
REMARK    2  A    between atoms: S_2  and  C_3
REMARK    3  A    between atoms: C_3  and  C_4
REMARK    4  A    between atoms: C_7  and  C_8
REMARK    5  A    between atoms: C_8  and  N_9
REMARK    6  A    between atoms: N_9  and  C_10
REMARK    7  A    between atoms: N_9  and  C_11
REMARK    8  A    between atoms: C_11  and  C_12
REMARK    9  A    between atoms: C_12  and  C_13
REMARK                            x       y       z     vdW  Elec       q    Type
REMARK                         _______ _______ _______ _____ _____    ______ ____
ROOT
ATOM      1  N   UNL     1       6.763   5.772  18.352  0.00  0.00    +0.000 NA
ATOM      2  C   UNL     1       6.860   7.041  17.616  0.00  0.00    +0.000 C 
ENDROOT
BRANCH   1   3
ATOM      3  C   UNL     1       7.371   4.666  17.571  0.00  0.00    +0.000 C 
BRANCH   3   7
ATOM      4  C   UNL     1       6.335   4.251  14.185  0.00  0.00    +0.000 A 
ATOM      5  N   UNL     1       7.252   5.212  13.999  0.00  0.00    +0.000 NA
ATOM      6  O   UNL     1       7.704   5.478  15.295  0.00  0.00    +0.000 OA
ATOM      7  C   UNL     1       7.013   4.640  16.124  0.00  0.00    +0.000 A 
ATOM      8  N   UNL     1       6.165   3.860  15.490  0.00  0.00    +0.000 NA
BRANCH   4   9
ATOM      9  C   UNL     1       5.582   3.638  13.062  0.00  0.00    +0.000 C 
BRANCH   9  11
ATOM     10  C   UNL     1       5.891   1.492  11.334  0.00  0.00    +0.000 C 
ATOM     11  S   UNL     1       6.659   3.092  11.690  0.00  0.00    +0.000 S 
ENDBRANCH   9  11
ENDBRANCH   4   9
ENDBRANCH   3   7
ENDBRANCH   1   3
BRANCH   1  12
ATOM     12  C   UNL     1       5.333   5.485  18.633  0.00  0.00    +0.000 C 
BRANCH  12  13
ATOM     13  C   UNL     1       5.074   4.032  19.061  0.00  0.00    +0.000 C 
BRANCH  13  14
ATOM     14  C   UNL     1       3.713   3.858  19.680  0.00  0.00    +0.000 A 
ATOM     15  C   UNL     1       2.695   4.772  19.427  0.00  0.00    +0.000 A 
ATOM     16  C   UNL     1       1.470   4.598  20.061  0.00  0.00    +0.000 A 
ATOM     17  C   UNL     1       1.292   3.518  20.918  0.00  0.00    +0.000 A 
ATOM     18  C   UNL     1       2.351   2.646  21.100  0.00  0.00    +0.000 A 
ATOM     19  N   UNL     1       3.549   2.785  20.495  0.00  0.00    +0.000 NA
ENDBRANCH  13  14
ENDBRANCH  12  13
ENDBRANCH   1  12
TORSDOF 7
ENDMDL
MODEL 6
REMARK VINA RESULT:      -6.2      1.249      1.475
REMARK  Name = 
REMARK  9 active torsions:
REMARK  status: ('A' for Active; 'I' for Inactive)
REMARK    1  A    between atoms: C_1  and  S_2
REMARK    2  A    between atoms: S_2  and  C_3
REMARK    3  A    between atoms: C_3  and  C_4
REMARK    4  A    between atoms: C_7  and  C_8
REMARK    5  A    between atoms: C_8  and  N_9
REMARK    6  A    between atoms: N_9  and  C_10
REMARK    7  A    between atoms: N_9  and  C_11
REMARK    8  A    between atoms: C_11  and  C_12
REMARK    9  A    between atoms: C_12  and  C_13
REMARK                            x       y       z     vdW  Elec       q    Type
REMARK                         _______ _______ _______ _____ _____    ______ ____
ROOT
ATOM      1  N   UNL     1       5.234   5.010  18.158  0.00  0.00    +0.000 NA
ATOM      2  C   UNL     1       6.289   5.817  18.791  0.00  0.00    +0.000 C 
ENDROOT
BRANCH   1   3
ATOM      3  C   UNL     1       5.826   3.900  17.373  0.00  0.00    +0.000 C 
BRANCH   3   7
ATOM      4  C   UNL     1       6.820   4.496  14.001  0.00  0.00    +0.000 A 
ATOM      5  N   UNL     1       7.756   5.230  14.620  0.00  0.00    +0.000 NA
ATOM      6  O   UNL     1       7.430   5.090  15.972  0.00  0.00    +0.000 OA
ATOM      7  C   UNL     1       6.332   4.277  16.022  0.00  0.00    +0.000 A 
ATOM      8  N   UNL     1       5.923   3.879  14.837  0.00  0.00    +0.000 NA
BRANCH   4   9
ATOM      9  C   UNL     1       6.775   4.340  12.525  0.00  0.00    +0.000 C 
BRANCH   9  11
ATOM     10  C   UNL     1       4.404   3.286  11.549  0.00  0.00    +0.000 C 
ATOM     11  S   UNL     1       6.071   2.740  11.994  0.00  0.00    +0.000 S 
ENDBRANCH   9  11
ENDBRANCH   4   9
ENDBRANCH   3   7
ENDBRANCH   1   3
BRANCH   1  12
ATOM     12  C   UNL     1       4.415   5.887  17.284  0.00  0.00    +0.000 C 
BRANCH  12  13
ATOM     13  C   UNL     1       3.136   6.403  17.962  0.00  0.00    +0.000 C 
BRANCH  13  14
ATOM     14  C   UNL     1       2.380   5.302  18.656  0.00  0.00    +0.000 A 
ATOM     15  C   UNL     1       1.854   4.236  17.932  0.00  0.00    +0.000 A 
ATOM     16  C   UNL     1       1.119   3.268  18.610  0.00  0.00    +0.000 A 
ATOM     17  C   UNL     1       0.939   3.385  19.983  0.00  0.00    +0.000 A 
ATOM     18  C   UNL     1       1.510   4.468  20.628  0.00  0.00    +0.000 A 
ATOM     19  N   UNL     1       2.232   5.419  20.000  0.00  0.00    +0.000 NA
ENDBRANCH  13  14
ENDBRANCH  12  13
ENDBRANCH   1  12
TORSDOF 7
ENDMDL
MODEL 7
REMARK VINA RESULT:      -6.1      1.255      1.444
REMARK  Name = 
REMARK  9 active torsions:
REMARK  status: ('A' for Active; 'I' for Inactive)
REMARK    1  A    between atoms: C_1  and  S_2
REMARK    2  A    between atoms: S_2  and  C_3
REMARK    3  A    between atoms: C_3  and  C_4
REMARK    4  A    between atoms: C_7  and  C_8
REMARK    5  A    between atoms: C_8  and  N_9
REMARK    6  A    between atoms: N_9  and  C_10
REMARK    7  A    between atoms: N_9  and  C_11
REMARK    8  A    between atoms: C_11  and  C_12
REMARK    9  A    between atoms: C_12  and  C_13
REMARK                            x       y       z     vdW  Elec       q    Type
REMARK                         _______ _______ _______ _____ _____    ______ ____
ROOT
ATOM      1  N   UNL     1       5.782   4.622  18.130  0.00  0.00    +0.000 NA
ATOM      2  C   UNL     1       6.011   5.135  19.489  0.00  0.00    +0.000 C 
ENDROOT
BRANCH   1   3
ATOM      3  C   UNL     1       7.015   4.738  17.313  0.00  0.00    +0.000 C 
BRANCH   3   7
ATOM      4  C   UNL     1       6.364   4.115  13.863  0.00  0.00    +0.000 A 
ATOM      5  N   UNL     1       7.248   5.114  13.725  0.00  0.00    +0.000 NA
ATOM      6  O   UNL     1       7.546   5.463  15.045  0.00  0.00    +0.000 OA
ATOM      7  C   UNL     1       6.814   4.626  15.840  0.00  0.00    +0.000 A 
ATOM      8  N   UNL     1       6.076   3.775  15.162  0.00  0.00    +0.000 NA
BRANCH   4   9
ATOM      9  C   UNL     1       5.765   3.412  12.701  0.00  0.00    +0.000 C 
BRANCH   9  11
ATOM     10  C   UNL     1       6.288   1.181  11.142  0.00  0.00    +0.000 C 
ATOM     11  S   UNL     1       7.011   2.798  11.514  0.00  0.00    +0.000 S 
ENDBRANCH   9  11
ENDBRANCH   4   9
ENDBRANCH   3   7
ENDBRANCH   1   3
BRANCH   1  12
ATOM     12  C   UNL     1       4.672   5.386  17.506  0.00  0.00    +0.000 C 
BRANCH  12  13
ATOM     13  C   UNL     1       3.396   4.554  17.303  0.00  0.00    +0.000 C 
BRANCH  13  14
ATOM     14  C   UNL     1       2.721   4.225  18.608  0.00  0.00    +0.000 A 
ATOM     15  C   UNL     1       2.181   5.232  19.402  0.00  0.00    +0.000 A 
ATOM     16  C   UNL     1       1.612   4.885  20.623  0.00  0.00    +0.000 A 
ATOM     17  C   UNL     1       1.589   3.550  21.010  0.00  0.00    +0.000 A 
ATOM     18  C   UNL     1       2.132   2.610  20.153  0.00  0.00    +0.000 A 
ATOM     19  N   UNL     1       2.686   2.915  18.961  0.00  0.00    +0.000 NA
ENDBRANCH  13  14
ENDBRANCH  12  13
ENDBRANCH   1  12
TORSDOF 7
ENDMDL
MODEL 8
REMARK VINA RESULT:      -6.1      3.701      4.920
REMARK  Name = 
REMARK  9 active torsions:
REMARK  status: ('A' for Active; 'I' for Inactive)
REMARK    1  A    between atoms: C_1  and  S_2
REMARK    2  A    between atoms: S_2  and  C_3
REMARK    3  A    between atoms: C_3  and  C_4
REMARK    4  A    between atoms: C_7  and  C_8
REMARK    5  A    between atoms: C_8  and  N_9
REMARK    6  A    between atoms: N_9  and  C_10
REMARK    7  A    between atoms: N_9  and  C_11
REMARK    8  A    between atoms: C_11  and  C_12
REMARK    9  A    between atoms: C_12  and  C_13
REMARK                            x       y       z     vdW  Elec       q    Type
REMARK                         _______ _______ _______ _____ _____    ______ ____
ROOT
ATOM      1  N   UNL     1       5.520   4.872  16.286  0.00  0.00    +0.000 NA
ATOM      2  C   UNL     1       6.091   4.138  15.145  0.00  0.00    +0.000 C 
ENDROOT
BRANCH   1   3
ATOM      3  C   UNL     1       6.434   4.815  17.453  0.00  0.00    +0.000 C 
BRANCH   3   7
ATOM      4  C   UNL     1       7.908   8.026  17.932  0.00  0.00    +0.000 A 
ATOM      5  N   UNL     1       8.484   7.384  18.959  0.00  0.00    +0.000 NA
ATOM      6  O   UNL     1       7.937   6.101  18.882  0.00  0.00    +0.000 OA
ATOM      7  C   UNL     1       7.092   6.105  17.807  0.00  0.00    +0.000 A 
ATOM      8  N   UNL     1       7.045   7.263  17.186  0.00  0.00    +0.000 NA
BRANCH   4   9
ATOM      9  C   UNL     1       8.203   9.445  17.611  0.00  0.00    +0.000 C 
BRANCH   9  11
ATOM     10  C   UNL     1      10.100  11.445  17.906  0.00  0.00    +0.000 C 
ATOM     11  S   UNL     1       9.141  10.298  18.926  0.00  0.00    +0.000 S 
ENDBRANCH   9  11
ENDBRANCH   4   9
ENDBRANCH   3   7
ENDBRANCH   1   3
BRANCH   1  12
ATOM     12  C   UNL     1       4.201   4.282  16.628  0.00  0.00    +0.000 C 
BRANCH  12  13
ATOM     13  C   UNL     1       3.415   5.102  17.662  0.00  0.00    +0.000 C 
BRANCH  13  14
ATOM     14  C   UNL     1       2.690   4.225  18.648  0.00  0.00    +0.000 A 
ATOM     15  C   UNL     1       1.512   3.577  18.289  0.00  0.00    +0.000 A 
ATOM     16  C   UNL     1       0.850   2.818  19.249  0.00  0.00    +0.000 A 
ATOM     17  C   UNL     1       1.384   2.719  20.528  0.00  0.00    +0.000 A 
ATOM     18  C   UNL     1       2.569   3.381  20.796  0.00  0.00    +0.000 A 
ATOM     19  N   UNL     1       3.237   4.120  19.886  0.00  0.00    +0.000 NA
ENDBRANCH  13  14
ENDBRANCH  12  13
ENDBRANCH   1  12
TORSDOF 7
ENDMDL
MODEL 9
REMARK VINA RESULT:      -6.1      1.110      1.241
REMARK  Name = 
REMARK  9 active torsions:
REMARK  status: ('A' for Active; 'I' for Inactive)
REMARK    1  A    between atoms: C_1  and  S_2
REMARK    2  A    between atoms: S_2  and  C_3
REMARK    3  A    between atoms: C_3  and  C_4
REMARK    4  A    between atoms: C_7  and  C_8
REMARK    5  A    between atoms: C_8  and  N_9
REMARK    6  A    between atoms: N_9  and  C_10
REMARK    7  A    between atoms: N_9  and  C_11
REMARK    8  A    between atoms: C_11  and  C_12
REMARK    9  A    between atoms: C_12  and  C_13
REMARK                            x       y       z     vdW  Elec       q    Type
REMARK                         _______ _______ _______ _____ _____    ______ ____
ROOT
ATOM      1  N   UNL     1       5.385   5.678  17.543  0.00  0.00    +0.000 NA
ATOM      2  C   UNL     1       4.366   6.736  17.465  0.00  0.00    +0.000 C 
ENDROOT
BRANCH   1   3
ATOM      3  C   UNL     1       5.041   4.554  16.638  0.00  0.00    +0.000 C 
BRANCH   3   7
ATOM      4  C   UNL     1       6.565   4.209  13.434  0.00  0.00    +0.000 A 
ATOM      5  N   UNL     1       7.215   5.306  13.850  0.00  0.00    +0.000 NA
ATOM      6  O   UNL     1       6.656   5.552  15.107  0.00  0.00    +0.000 OA
ATOM      7  C   UNL     1       5.731   4.568  15.317  0.00  0.00    +0.000 A 
ATOM      8  N   UNL     1       5.643   3.714  14.321  0.00  0.00    +0.000 NA
BRANCH   4   9
ATOM      9  C   UNL     1       6.843   3.565  12.125  0.00  0.00    +0.000 C 
BRANCH   9  11
ATOM     10  C   UNL     1       4.243   3.372  11.182  0.00  0.00    +0.000 C 
ATOM     11  S   UNL     1       5.610   2.293  11.676  0.00  0.00    +0.000 S 
ENDBRANCH   9  11
ENDBRANCH   4   9
ENDBRANCH   3   7
ENDBRANCH   1   3
BRANCH   1  12
ATOM     12  C   UNL     1       5.483   5.205  18.947  0.00  0.00    +0.000 C 
BRANCH  12  13
ATOM     13  C   UNL     1       4.914   3.793  19.157  0.00  0.00    +0.000 C 
BRANCH  13  14
ATOM     14  C   UNL     1       3.473   3.823  19.591  0.00  0.00    +0.000 A 
ATOM     15  C   UNL     1       2.624   2.756  19.312  0.00  0.00    +0.000 A 
ATOM     16  C   UNL     1       1.288   2.851  19.688  0.00  0.00    +0.000 A 
ATOM     17  C   UNL     1       0.841   3.995  20.337  0.00  0.00    +0.000 A 
ATOM     18  C   UNL     1       1.756   5.002  20.592  0.00  0.00    +0.000 A 
ATOM     19  N   UNL     1       3.058   4.938  20.245  0.00  0.00    +0.000 NA
ENDBRANCH  13  14
ENDBRANCH  12  13
ENDBRANCH   1  12
TORSDOF 7
ENDMDL
