MODEL 1
REMARK VINA RESULT:      -8.5      0.000      0.000
REMARK  Name = 
REMARK  9 active torsions:
REMARK  status: ('A' for Active; 'I' for Inactive)
REMARK    1  A    between atoms: C_1  and  C_2
REMARK    2  A    between atoms: C_2  and  C_3
REMARK    3  A    between atoms: C_3  and  C_4
REMARK    4  A    between atoms: C_3  and  C_5
REMARK    5  A    between atoms: N_7  and  C_8
REMARK    6  A    between atoms: C_11  and  C_12
REMARK    7  A    between atoms: C_12  and  C_13
REMARK    8  A    between atoms: N_15  and  C_16
REMARK    9  A    between atoms: C_20  and  C_21
REMARK                            x       y       z     vdW  Elec       q    Type
REMARK                         _______ _______ _______ _____ _____    ______ ____
ROOT
ATOM      1  C   UNL     1       1.940   5.741  20.427  0.00  0.00    +0.000 C 
ATOM      2  O   UNL     1       0.753   5.606  20.706  0.00  0.00    +0.000 OA
ATOM      3  N   UNL     1       2.554   6.950  20.126  0.00  0.00    +0.000 N 
ATOM      4  H   UNL     1       3.391   6.891  19.555  0.00  0.00    +0.000 HD
ENDROOT
BRANCH   3   5
ATOM      5  C   UNL     1       1.851   8.167  20.088  0.00  0.00    +0.000 A 
ATOM      6  C   UNL     1       1.569   8.731  18.843  0.00  0.00    +0.000 A 
ATOM      7  C   UNL     1       0.749   9.861  18.747  0.00  0.00    +0.000 A 
ATOM      8  C   UNL     1       0.237  10.473  19.896  0.00  0.00    +0.000 A 
ATOM      9  C   UNL     1      -0.843  11.471  19.875  0.00  0.00    +0.000 A 
ATOM     10  C   UNL     1      -1.318  12.137  18.618  0.00  0.00    +0.000 C 
ATOM     11  C   UNL     1      -1.474  11.702  21.038  0.00  0.00    +0.000 A 
ATOM     12  C   UNL     1      -0.782  11.491  22.318  0.00  0.00    +0.000 A 
ATOM     13  O   UNL     1      -1.061  12.185  23.290  0.00  0.00    +0.000 OA
ATOM     14  O   UNL     1       0.224  10.547  22.340  0.00  0.00    +0.000 OA
ATOM     15  C   UNL     1       0.632   9.954  21.133  0.00  0.00    +0.000 A 
ATOM     16  C   UNL     1       1.415   8.804  21.247  0.00  0.00    +0.000 A 
ENDBRANCH   3   5
BRANCH   1  17
ATOM     17  C   UNL     1       2.877   4.543  20.421  0.00  0.00    +0.000 C 
BRANCH  17  21
ATOM     18  C   UNL     1       4.966   3.830  16.680  0.00  0.00    +0.000 A 
ATOM     19  C   UNL     1       3.592   3.616  16.799  0.00  0.00    +0.000 A 
ATOM     20  C   UNL     1       2.929   3.847  18.003  0.00  0.00    +0.000 A 
ATOM     21  C   UNL     1       3.623   4.292  19.132  0.00  0.00    +0.000 A 
ATOM     22  C   UNL     1       5.001   4.519  19.017  0.00  0.00    +0.000 A 
ATOM     23  C   UNL     1       5.668   4.279  17.806  0.00  0.00    +0.000 A 
BRANCH  18  26
ATOM     24  C   UNL     1       6.117   4.573  14.596  0.00  0.00    +0.000 C 
ATOM     25  O   UNL     1       6.026   5.782  14.780  0.00  0.00    +0.000 OA
ATOM     26  N   UNL     1       5.693   3.596  15.488  0.00  0.00    +0.000 N 
ATOM     27  H   UNL     1       6.001   2.657  15.318  0.00  0.00    +0.000 HD
BRANCH  24  28
ATOM     28  C   UNL     1       6.739   4.019  13.314  0.00  0.00    +0.000 C 
ATOM     29  C   UNL     1       7.609   5.079  12.637  0.00  0.00    +0.000 C 
BRANCH  28  31
ATOM     30  C   UNL     1       6.044   2.200  11.613  0.00  0.00    +0.000 C 
ATOM     31  C   UNL     1       5.656   3.477  12.350  0.00  0.00    +0.000 C 
ENDBRANCH  28  31
ENDBRANCH  24  28
ENDBRANCH  18  26
ENDBRANCH  17  21
ENDBRANCH   1  17
TORSDOF 6
ENDMDL
MODEL 2
REMARK VINA RESULT:      -8.2      0.488      1.048
REMARK  Name = 
REMARK  9 active torsions:
REMARK  status: ('A' for Active; 'I' for Inactive)
REMARK    1  A    between atoms: C_1  and  C_2
REMARK    2  A    between atoms: C_2  and  C_3
REMARK    3  A    between atoms: C_3  and  C_4
REMARK    4  A    between atoms: C_3  and  C_5
REMARK    5  A    between atoms: N_7  and  C_8
REMARK    6  A    between atoms: C_11  and  C_12
REMARK    7  A    between atoms: C_12  and  C_13
REMARK    8  A    between atoms: N_15  and  C_16
REMARK    9  A    between atoms: C_20  and  C_21
REMARK                            x       y       z     vdW  Elec       q    Type
REMARK                         _______ _______ _______ _____ _____    ______ ____
ROOT
ATOM      1  C   UNL     1       2.096   5.580  20.267  0.00  0.00    +0.000 C 
ATOM      2  O   UNL     1       0.928   5.459  20.624  0.00  0.00    +0.000 OA
ATOM      3  N   UNL     1       2.695   6.777  19.898  0.00  0.00    +0.000 N 
ATOM      4  H   UNL     1       3.495   6.699  19.277  0.00  0.00    +0.000 HD
ENDROOT
BRANCH   3   5
ATOM      5  C   UNL     1       1.997   7.998  19.875  0.00  0.00    +0.000 A 
ATOM      6  C   UNL     1       1.655   8.541  18.635  0.00  0.00    +0.000 A 
ATOM      7  C   UNL     1       0.836   9.675  18.562  0.00  0.00    +0.000 A 
ATOM      8  C   UNL     1       0.387  10.310  19.724  0.00  0.00    +0.000 A 
ATOM      9  C   UNL     1      -0.688  11.314  19.741  0.00  0.00    +0.000 A 
ATOM     10  C   UNL     1      -1.223  11.960  18.498  0.00  0.00    +0.000 C 
ATOM     11  C   UNL     1      -1.257  11.568  20.930  0.00  0.00    +0.000 A 
ATOM     12  C   UNL     1      -0.502  11.376  22.176  0.00  0.00    +0.000 A 
ATOM     13  O   UNL     1      -0.727  12.088  23.149  0.00  0.00    +0.000 OA
ATOM     14  O   UNL     1       0.499  10.426  22.164  0.00  0.00    +0.000 OA
ATOM     15  C   UNL     1       0.843   9.809  20.949  0.00  0.00    +0.000 A 
ATOM     16  C   UNL     1       1.624   8.657  21.043  0.00  0.00    +0.000 A 
ENDBRANCH   3   5
BRANCH   1  17
ATOM     17  C   UNL     1       3.024   4.376  20.231  0.00  0.00    +0.000 C 
BRANCH  17  21
ATOM     18  C   UNL     1       5.559   3.976  16.727  0.00  0.00    +0.000 A 
ATOM     19  C   UNL     1       6.084   4.339  17.969  0.00  0.00    +0.000 A 
ATOM     20  C   UNL     1       5.265   4.465  19.088  0.00  0.00    +0.000 A 
ATOM     21  C   UNL     1       3.887   4.241  19.000  0.00  0.00    +0.000 A 
ATOM     22  C   UNL     1       3.355   3.866  17.758  0.00  0.00    +0.000 A 
ATOM     23  C   UNL     1       4.181   3.747  16.631  0.00  0.00    +0.000 A 
BRANCH  18  26
ATOM     24  C   UNL     1       6.452   4.802  14.550  0.00  0.00    +0.000 C 
ATOM     25  O   UNL     1       5.983   5.934  14.598  0.00  0.00    +0.000 OA
ATOM     26  N   UNL     1       6.342   3.849  15.554  0.00  0.00    +0.000 N 
ATOM     27  H   UNL     1       6.932   3.041  15.485  0.00  0.00    +0.000 HD
BRANCH  24  28
ATOM     28  C   UNL     1       7.237   4.330  13.325  0.00  0.00    +0.000 C 
ATOM     29  C   UNL     1       7.815   5.523  12.565  0.00  0.00    +0.000 C 
BRANCH  28  31
ATOM     30  C   UNL     1       4.868   3.714  12.492  0.00  0.00    +0.000 C 
ATOM     31  C   UNL     1       6.366   3.441  12.406  0.00  0.00    +0.000 C 
ENDBRANCH  28  31
ENDBRANCH  24  28
ENDBRANCH  18  26
ENDBRANCH  17  21
ENDBRANCH   1  17
TORSDOF 6
ENDMDL
MODEL 3
REMARK VINA RESULT:      -8.0      6.672      8.599
REMARK  Name = 
REMARK  9 active torsions:
REMARK  status: ('A' for Active; 'I' for Inactive)
REMARK    1  A    between atoms: C_1  and  C_2
REMARK    2  A    between atoms: C_2  and  C_3
REMARK    3  A    between atoms: C_3  and  C_4
REMARK    4  A    between atoms: C_3  and  C_5
REMARK    5  A    between atoms: N_7  and  C_8
REMARK    6  A    between atoms: C_11  and  C_12
REMARK    7  A    between atoms: C_12  and  C_13
REMARK    8  A    between atoms: N_15  and  C_16
REMARK    9  A    between atoms: C_20  and  C_21
REMARK                            x       y       z     vdW  Elec       q    Type
REMARK                         _______ _______ _______ _____ _____    ______ ____
ROOT
ATOM      1  C   UNL     1       8.128   8.667  18.039  0.00  0.00    +0.000 C 
ATOM      2  O   UNL     1       7.294   9.386  17.498  0.00  0.00    +0.000 OA
ATOM      3  N   UNL     1       9.115   9.108  18.910  0.00  0.00    +0.000 N 
ATOM      4  H   UNL     1       9.942   8.524  18.974  0.00  0.00    +0.000 HD
ENDROOT
BRANCH   3   5
ATOM      5  C   UNL     1       9.273  10.464  19.250  0.00  0.00    +0.000 A 
ATOM      6  C   UNL     1       9.148  10.830  20.591  0.00  0.00    +0.000 A 
ATOM      7  C   UNL     1       9.440  12.138  20.997  0.00  0.00    +0.000 A 
ATOM      8  C   UNL     1       9.814  13.110  20.065  0.00  0.00    +0.000 A 
ATOM      9  C   UNL     1      10.403  14.407  20.431  0.00  0.00    +0.000 A 
ATOM     10  C   UNL     1      10.413  14.934  21.835  0.00  0.00    +0.000 C 
ATOM     11  C   UNL     1      11.037  15.078  19.456  0.00  0.00    +0.000 A 
ATOM     12  C   UNL     1      10.654  14.892  18.049  0.00  0.00    +0.000 A 
ATOM     13  O   UNL     1      10.761  15.819  17.254  0.00  0.00    +0.000 OA
ATOM     14  O   UNL     1      10.112  13.671  17.703  0.00  0.00    +0.000 OA
ATOM     15  C   UNL     1       9.817  12.741  18.714  0.00  0.00    +0.000 A 
ATOM     16  C   UNL     1       9.570  11.434  18.296  0.00  0.00    +0.000 A 
ENDBRANCH   3   5
BRANCH   1  17
ATOM     17  C   UNL     1       8.121   7.164  17.807  0.00  0.00    +0.000 C 
BRANCH  17  21
ATOM     18  C   UNL     1       4.386   5.122  18.672  0.00  0.00    +0.000 A 
ATOM     19  C   UNL     1       5.518   4.940  19.469  0.00  0.00    +0.000 A 
ATOM     20  C   UNL     1       6.713   5.599  19.186  0.00  0.00    +0.000 A 
ATOM     21  C   UNL     1       6.817   6.456  18.085  0.00  0.00    +0.000 A 
ATOM     22  C   UNL     1       5.681   6.652  17.287  0.00  0.00    +0.000 A 
ATOM     23  C   UNL     1       4.482   5.981  17.571  0.00  0.00    +0.000 A 
BRANCH  18  26
ATOM     24  C   UNL     1       2.196   4.853  19.833  0.00  0.00    +0.000 C 
ATOM     25  O   UNL     1       2.233   5.885  20.496  0.00  0.00    +0.000 OA
ATOM     26  N   UNL     1       3.153   4.466  18.904  0.00  0.00    +0.000 N 
ATOM     27  H   UNL     1       2.914   3.713  18.288  0.00  0.00    +0.000 HD
BRANCH  24  28
ATOM     28  C   UNL     1       1.036   3.867  19.981  0.00  0.00    +0.000 C 
ATOM     29  C   UNL     1       1.249   2.964  21.195  0.00  0.00    +0.000 C 
BRANCH  28  31
ATOM     30  C   UNL     1       1.607   1.728  18.645  0.00  0.00    +0.000 C 
ATOM     31  C   UNL     1       0.831   3.040  18.689  0.00  0.00    +0.000 C 
ENDBRANCH  28  31
ENDBRANCH  24  28
ENDBRANCH  18  26
ENDBRANCH  17  21
ENDBRANCH   1  17
TORSDOF 6
ENDMDL
MODEL 4
REMARK VINA RESULT:      -8.0      1.343      2.113
REMARK  Name = 
REMARK  9 active torsions:
REMARK  status: ('A' for Active; 'I' for Inactive)
REMARK    1  A    between atoms: C_1  and  C_2
REMARK    2  A    between atoms: C_2  and  C_3
REMARK    3  A    between atoms: C_3  and  C_4
REMARK    4  A    between atoms: C_3  and  C_5
REMARK    5  A    between atoms: N_7  and  C_8
REMARK    6  A    between atoms: C_11  and  C_12
REMARK    7  A    between atoms: C_12  and  C_13
REMARK    8  A    between atoms: N_15  and  C_16
REMARK    9  A    between atoms: C_20  and  C_21
REMARK                            x       y       z     vdW  Elec       q    Type
REMARK                         _______ _______ _______ _____ _____    ______ ____
ROOT
ATOM      1  C   UNL     1       1.799   5.784  20.598  0.00  0.00    +0.000 C 
ATOM      2  O   UNL     1       0.655   5.425  20.338  0.00  0.00    +0.000 OA
ATOM      3  N   UNL     1       2.179   7.089  20.886  0.00  0.00    +0.000 N 
ATOM      4  H   UNL     1       3.150   7.319  20.698  0.00  0.00    +0.000 HD
ENDROOT
BRANCH   3   5
ATOM      5  C   UNL     1       1.267   8.160  20.885  0.00  0.00    +0.000 A 
ATOM      6  C   UNL     1       0.507   8.382  22.035  0.00  0.00    +0.000 A 
ATOM      7  C   UNL     1      -0.307   9.518  22.136  0.00  0.00    +0.000 A 
ATOM      8  C   UNL     1      -0.409  10.422  21.074  0.00  0.00    +0.000 A 
ATOM      9  C   UNL     1      -1.002  11.762  21.198  0.00  0.00    +0.000 A 
ATOM     10  C   UNL     1      -1.800  12.196  22.391  0.00  0.00    +0.000 C 
ATOM     11  C   UNL     1      -0.716  12.641  20.224  0.00  0.00    +0.000 A 
ATOM     12  C   UNL     1      -0.394  12.175  18.868  0.00  0.00    +0.000 A 
ATOM     13  O   UNL     1      -0.689  12.861  17.895  0.00  0.00    +0.000 OA
ATOM     14  O   UNL     1       0.173  10.922  18.752  0.00  0.00    +0.000 OA
ATOM     15  C   UNL     1       0.274  10.109  19.893  0.00  0.00    +0.000 A 
ATOM     16  C   UNL     1       1.121   9.005  19.789  0.00  0.00    +0.000 A 
ENDBRANCH   3   5
BRANCH   1  17
ATOM     17  C   UNL     1       2.934   4.774  20.656  0.00  0.00    +0.000 C 
BRANCH  17  21
ATOM     18  C   UNL     1       5.025   3.973  16.934  0.00  0.00    +0.000 A 
ATOM     19  C   UNL     1       5.645   4.646  17.988  0.00  0.00    +0.000 A 
ATOM     20  C   UNL     1       4.968   4.899  19.179  0.00  0.00    +0.000 A 
ATOM     21  C   UNL     1       3.640   4.494  19.351  0.00  0.00    +0.000 A 
ATOM     22  C   UNL     1       3.015   3.808  18.301  0.00  0.00    +0.000 A 
ATOM     23  C   UNL     1       3.696   3.562  17.099  0.00  0.00    +0.000 A 
BRANCH  18  26
ATOM     24  C   UNL     1       6.064   4.658  14.772  0.00  0.00    +0.000 C 
ATOM     25  O   UNL     1       6.038   5.871  14.954  0.00  0.00    +0.000 OA
ATOM     26  N   UNL     1       5.659   3.704  15.697  0.00  0.00    +0.000 N 
ATOM     27  H   UNL     1       5.913   2.752  15.513  0.00  0.00    +0.000 HD
BRANCH  24  28
ATOM     28  C   UNL     1       6.573   4.073  13.454  0.00  0.00    +0.000 C 
ATOM     29  C   UNL     1       7.468   5.079  12.731  0.00  0.00    +0.000 C 
BRANCH  28  31
ATOM     30  C   UNL     1       5.710   2.386  11.695  0.00  0.00    +0.000 C 
ATOM     31  C   UNL     1       5.403   3.607  12.555  0.00  0.00    +0.000 C 
ENDBRANCH  28  31
ENDBRANCH  24  28
ENDBRANCH  18  26
ENDBRANCH  17  21
ENDBRANCH   1  17
TORSDOF 6
ENDMDL
MODEL 5
REMARK VINA RESULT:      -7.9      6.402      8.098
REMARK  Name = 
REMARK  9 active torsions:
REMARK  status: ('A' for Active; 'I' for Inactive)
REMARK    1  A    between atoms: C_1  and  C_2
REMARK    2  A    between atoms: C_2  and  C_3
REMARK    3  A    between atoms: C_3  and  C_4
REMARK    4  A    between atoms: C_3  and  C_5
REMARK    5  A    between atoms: N_7  and  C_8
REMARK    6  A    between atoms: C_11  and  C_12
REMARK    7  A    between atoms: C_12  and  C_13
REMARK    8  A    between atoms: N_15  and  C_16
REMARK    9  A    between atoms: C_20  and  C_21
REMARK                            x       y       z     vdW  Elec       q    Type
REMARK                         _______ _______ _______ _____ _____    ______ ____
ROOT
ATOM      1  C   UNL     1       8.261   9.216  17.972  0.00  0.00    +0.000 C 
ATOM      2  O   UNL     1       7.575  10.177  17.639  0.00  0.00    +0.000 OA
ATOM      3  N   UNL     1       9.226   9.235  18.971  0.00  0.00    +0.000 N 
ATOM      4  H   UNL     1       9.962   8.540  18.889  0.00  0.00    +0.000 HD
ENDROOT
BRANCH   3   5
ATOM      5  C   UNL     1       9.535  10.396  19.702  0.00  0.00    +0.000 A 
ATOM      6  C   UNL     1      10.449  11.299  19.156  0.00  0.00    +0.000 A 
ATOM      7  C   UNL     1      10.680  12.534  19.774  0.00  0.00    +0.000 A 
ATOM      8  C   UNL     1      10.037  12.866  20.971  0.00  0.00    +0.000 A 
ATOM      9  C   UNL     1      10.001  14.227  21.527  0.00  0.00    +0.000 A 
ATOM     10  C   UNL     1      10.871  15.340  21.021  0.00  0.00    +0.000 C 
ATOM     11  C   UNL     1       9.069  14.473  22.461  0.00  0.00    +0.000 A 
ATOM     12  C   UNL     1       8.563  13.388  23.315  0.00  0.00    +0.000 A 
ATOM     13  O   UNL     1       8.205  13.626  24.464  0.00  0.00    +0.000 OA
ATOM     14  O   UNL     1       8.586  12.113  22.789  0.00  0.00    +0.000 OA
ATOM     15  C   UNL     1       9.217  11.893  21.553  0.00  0.00    +0.000 A 
ATOM     16  C   UNL     1       8.943  10.675  20.931  0.00  0.00    +0.000 A 
ENDBRANCH   3   5
BRANCH   1  17
ATOM     17  C   UNL     1       8.074   7.862  17.306  0.00  0.00    +0.000 C 
BRANCH  17  21
ATOM     18  C   UNL     1       4.947   5.326  18.935  0.00  0.00    +0.000 A 
ATOM     19  C   UNL     1       4.689   6.228  17.902  0.00  0.00    +0.000 A 
ATOM     20  C   UNL     1       5.697   7.038  17.384  0.00  0.00    +0.000 A 
ATOM     21  C   UNL     1       6.999   6.978  17.892  0.00  0.00    +0.000 A 
ATOM     22  C   UNL     1       7.268   6.066  18.923  0.00  0.00    +0.000 A 
ATOM     23  C   UNL     1       6.248   5.257  19.447  0.00  0.00    +0.000 A 
BRANCH  18  26
ATOM     24  C   UNL     1       2.782   4.925  20.107  0.00  0.00    +0.000 C 
ATOM     25  O   UNL     1       2.381   6.084  20.112  0.00  0.00    +0.000 OA
ATOM     26  N   UNL     1       3.958   4.490  19.509  0.00  0.00    +0.000 N 
ATOM     27  H   UNL     1       4.076   3.501  19.398  0.00  0.00    +0.000 HD
BRANCH  24  28
ATOM     28  C   UNL     1       1.979   3.814  20.785  0.00  0.00    +0.000 C 
ATOM     29  C   UNL     1       2.877   2.617  21.099  0.00  0.00    +0.000 C 
BRANCH  28  31
ATOM     30  C   UNL     1       1.111   2.709  18.614  0.00  0.00    +0.000 C 
ATOM     31  C   UNL     1       0.759   3.397  19.928  0.00  0.00    +0.000 C 
ENDBRANCH  28  31
ENDBRANCH  24  28
ENDBRANCH  18  26
ENDBRANCH  17  21
ENDBRANCH   1  17
TORSDOF 6
ENDMDL
MODEL 6
REMARK VINA RESULT:      -7.9      6.445      8.010
REMARK  Name = 
REMARK  9 active torsions:
REMARK  status: ('A' for Active; 'I' for Inactive)
REMARK    1  A    between atoms: C_1  and  C_2
REMARK    2  A    between atoms: C_2  and  C_3
REMARK    3  A    between atoms: C_3  and  C_4
REMARK    4  A    between atoms: C_3  and  C_5
REMARK    5  A    between atoms: N_7  and  C_8
REMARK    6  A    between atoms: C_11  and  C_12
REMARK    7  A    between atoms: C_12  and  C_13
REMARK    8  A    between atoms: N_15  and  C_16
REMARK    9  A    between atoms: C_20  and  C_21
REMARK                            x       y       z     vdW  Elec       q    Type
REMARK                         _______ _______ _______ _____ _____    ______ ____
ROOT
ATOM      1  C   UNL     1       8.350   9.355  18.068  0.00  0.00    +0.000 C 
ATOM      2  O   UNL     1       7.587  10.278  17.799  0.00  0.00    +0.000 OA
ATOM      3  N   UNL     1       9.330   9.394  19.051  0.00  0.00    +0.000 N 
ATOM      4  H   UNL     1      10.114   8.762  18.919  0.00  0.00    +0.000 HD
ENDROOT
BRANCH   3   5
ATOM      5  C   UNL     1       9.565  10.533  19.841  0.00  0.00    +0.000 A 
ATOM      6  C   UNL     1      10.464  11.491  19.370  0.00  0.00    +0.000 A 
ATOM      7  C   UNL     1      10.622  12.706  20.047  0.00  0.00    +0.000 A 
ATOM      8  C   UNL     1       9.921  12.963  21.230  0.00  0.00    +0.000 A 
ATOM      9  C   UNL     1       9.810  14.297  21.839  0.00  0.00    +0.000 A 
ATOM     10  C   UNL     1      10.655  15.462  21.416  0.00  0.00    +0.000 C 
ATOM     11  C   UNL     1       8.834  14.468  22.744  0.00  0.00    +0.000 A 
ATOM     12  C   UNL     1       8.337  13.330  23.532  0.00  0.00    +0.000 A 
ATOM     13  O   UNL     1       7.926  13.504  24.674  0.00  0.00    +0.000 OA
ATOM     14  O   UNL     1       8.430  12.080  22.955  0.00  0.00    +0.000 OA
ATOM     15  C   UNL     1       9.117  11.936  21.738  0.00  0.00    +0.000 A 
ATOM     16  C   UNL     1       8.915  10.736  21.055  0.00  0.00    +0.000 A 
ENDBRANCH   3   5
BRANCH   1  17
ATOM     17  C   UNL     1       8.252   8.029  17.330  0.00  0.00    +0.000 C 
BRANCH  17  21
ATOM     18  C   UNL     1       5.188   5.302  18.760  0.00  0.00    +0.000 A 
ATOM     19  C   UNL     1       6.479   5.292  19.291  0.00  0.00    +0.000 A 
ATOM     20  C   UNL     1       7.456   6.170  18.828  0.00  0.00    +0.000 A 
ATOM     21  C   UNL     1       7.176   7.084  17.806  0.00  0.00    +0.000 A 
ATOM     22  C   UNL     1       5.879   7.107  17.275  0.00  0.00    +0.000 A 
ATOM     23  C   UNL     1       4.899   6.216  17.739  0.00  0.00    +0.000 A 
BRANCH  18  26
ATOM     24  C   UNL     1       3.709   3.314  18.478  0.00  0.00    +0.000 C 
ATOM     25  O   UNL     1       4.219   2.873  17.453  0.00  0.00    +0.000 OA
ATOM     26  N   UNL     1       4.162   4.423  19.181  0.00  0.00    +0.000 N 
ATOM     27  H   UNL     1       3.790   4.564  20.102  0.00  0.00    +0.000 HD
BRANCH  24  28
ATOM     28  C   UNL     1       2.482   2.642  19.095  0.00  0.00    +0.000 C 
ATOM     29  C   UNL     1       1.201   3.339  18.636  0.00  0.00    +0.000 C 
BRANCH  28  31
ATOM     30  C   UNL     1       1.366   3.162  21.369  0.00  0.00    +0.000 C 
ATOM     31  C   UNL     1       2.580   2.598  20.639  0.00  0.00    +0.000 C 
ENDBRANCH  28  31
ENDBRANCH  24  28
ENDBRANCH  18  26
ENDBRANCH  17  21
ENDBRANCH   1  17
TORSDOF 6
ENDMDL
MODEL 7
REMARK VINA RESULT:      -7.8      3.562      5.951
REMARK  Name = 
REMARK  9 active torsions:
REMARK  status: ('A' for Active; 'I' for Inactive)
REMARK    1  A    between atoms: C_1  and  C_2
REMARK    2  A    between atoms: C_2  and  C_3
REMARK    3  A    between atoms: C_3  and  C_4
REMARK    4  A    between atoms: C_3  and  C_5
REMARK    5  A    between atoms: N_7  and  C_8
REMARK    6  A    between atoms: C_11  and  C_12
REMARK    7  A    between atoms: C_12  and  C_13
REMARK    8  A    between atoms: N_15  and  C_16
REMARK    9  A    between atoms: C_20  and  C_21
REMARK                            x       y       z     vdW  Elec       q    Type
REMARK                         _______ _______ _______ _____ _____    ______ ____
ROOT
ATOM      1  C   UNL     1       0.237  11.390  19.505  0.00  0.00    +0.000 C 
ATOM      2  O   UNL     1      -0.958  11.247  19.267  0.00  0.00    +0.000 OA
ATOM      3  N   UNL     1       0.756  12.013  20.633  0.00  0.00    +0.000 N 
ATOM      4  H   UNL     1       1.687  12.405  20.532  0.00  0.00    +0.000 HD
ENDROOT
BRANCH   3   5
ATOM      5  C   UNL     1      -0.061  12.577  21.628  0.00  0.00    +0.000 A 
ATOM      6  C   UNL     1       0.203  13.885  22.039  0.00  0.00    +0.000 A 
ATOM      7  C   UNL     1      -0.668  14.539  22.919  0.00  0.00    +0.000 A 
ATOM      8  C   UNL     1      -1.787  13.882  23.439  0.00  0.00    +0.000 A 
ATOM      9  C   UNL     1      -2.889  14.569  24.129  0.00  0.00    +0.000 A 
ATOM     10  C   UNL     1      -2.804  15.994  24.588  0.00  0.00    +0.000 C 
ATOM     11  C   UNL     1      -4.042  13.891  24.250  0.00  0.00    +0.000 A 
ATOM     12  C   UNL     1      -4.044  12.422  24.286  0.00  0.00    +0.000 A 
ATOM     13  O   UNL     1      -4.895  11.823  24.935  0.00  0.00    +0.000 OA
ATOM     14  O   UNL     1      -3.016  11.776  23.629  0.00  0.00    +0.000 OA
ATOM     15  C   UNL     1      -1.959  12.535  23.099  0.00  0.00    +0.000 A 
ATOM     16  C   UNL     1      -1.126  11.880  22.192  0.00  0.00    +0.000 A 
ENDBRANCH   3   5
BRANCH   1  17
ATOM     17  C   UNL     1       1.288  10.841  18.552  0.00  0.00    +0.000 C 
BRANCH  17  21
ATOM     18  C   UNL     1       2.487   6.705  19.119  0.00  0.00    +0.000 A 
ATOM     19  C   UNL     1       2.753   7.384  17.929  0.00  0.00    +0.000 A 
ATOM     20  C   UNL     1       2.365   8.711  17.754  0.00  0.00    +0.000 A 
ATOM     21  C   UNL     1       1.688   9.401  18.765  0.00  0.00    +0.000 A 
ATOM     22  C   UNL     1       1.427   8.728  19.967  0.00  0.00    +0.000 A 
ATOM     23  C   UNL     1       1.812   7.390  20.137  0.00  0.00    +0.000 A 
BRANCH  18  26
ATOM     24  C   UNL     1       2.229   4.249  18.769  0.00  0.00    +0.000 C 
ATOM     25  O   UNL     1       1.371   4.297  17.892  0.00  0.00    +0.000 OA
ATOM     26  N   UNL     1       2.844   5.353  19.345  0.00  0.00    +0.000 N 
ATOM     27  H   UNL     1       3.662   5.184  19.899  0.00  0.00    +0.000 HD
BRANCH  24  28
ATOM     28  C   UNL     1       2.714   2.907  19.318  0.00  0.00    +0.000 C 
ATOM     29  C   UNL     1       3.100   1.968  18.176  0.00  0.00    +0.000 C 
BRANCH  28  31
ATOM     30  C   UNL     1       1.630   2.829  21.664  0.00  0.00    +0.000 C 
ATOM     31  C   UNL     1       1.658   2.264  20.248  0.00  0.00    +0.000 C 
ENDBRANCH  28  31
ENDBRANCH  24  28
ENDBRANCH  18  26
ENDBRANCH  17  21
ENDBRANCH   1  17
TORSDOF 6
ENDMDL
MODEL 8
REMARK VINA RESULT:      -7.7      6.781      8.514
REMARK  Name = 
REMARK  9 active torsions:
REMARK  status: ('A' for Active; 'I' for Inactive)
REMARK    1  A    between atoms: C_1  and  C_2
REMARK    2  A    between atoms: C_2  and  C_3
REMARK    3  A    between atoms: C_3  and  C_4
REMARK    4  A    between atoms: C_3  and  C_5
REMARK    5  A    between atoms: N_7  and  C_8
REMARK    6  A    between atoms: C_11  and  C_12
REMARK    7  A    between atoms: C_12  and  C_13
REMARK    8  A    between atoms: N_15  and  C_16
REMARK    9  A    between atoms: C_20  and  C_21
REMARK                            x       y       z     vdW  Elec       q    Type
REMARK                         _______ _______ _______ _____ _____    ______ ____
ROOT
ATOM      1  C   UNL     1       8.088   8.956  17.917  0.00  0.00    +0.000 C 
ATOM      2  O   UNL     1       7.156   9.651  17.523  0.00  0.00    +0.000 OA
ATOM      3  N   UNL     1       9.118   9.397  18.738  0.00  0.00    +0.000 N 
ATOM      4  H   UNL     1       9.988   8.879  18.672  0.00  0.00    +0.000 HD
ENDROOT
BRANCH   3   5
ATOM      5  C   UNL     1       9.208  10.726  19.191  0.00  0.00    +0.000 A 
ATOM      6  C   UNL     1       9.214  10.956  20.567  0.00  0.00    +0.000 A 
ATOM      7  C   UNL     1       9.447  12.243  21.068  0.00  0.00    +0.000 A 
ATOM      8  C   UNL     1       9.630  13.326  20.201  0.00  0.00    +0.000 A 
ATOM      9  C   UNL     1      10.155  14.632  20.628  0.00  0.00    +0.000 A 
ATOM     10  C   UNL     1      10.289  15.029  22.068  0.00  0.00    +0.000 C 
ATOM     11  C   UNL     1      10.614  15.442  19.661  0.00  0.00    +0.000 A 
ATOM     12  C   UNL     1      10.083  15.349  18.293  0.00  0.00    +0.000 A 
ATOM     13  O   UNL     1      10.022  16.350  17.587  0.00  0.00    +0.000 OA
ATOM     14  O   UNL     1       9.602  14.121  17.889  0.00  0.00    +0.000 OA
ATOM     15  C   UNL     1       9.502  13.082  18.829  0.00  0.00    +0.000 A 
ATOM     16  C   UNL     1       9.312  11.800  18.312  0.00  0.00    +0.000 A 
ENDBRANCH   3   5
BRANCH   1  17
ATOM     17  C   UNL     1       8.170   7.484  17.543  0.00  0.00    +0.000 C 
BRANCH  17  21
ATOM     18  C   UNL     1       4.743   5.058  18.656  0.00  0.00    +0.000 A 
ATOM     19  C   UNL     1       5.900   5.086  19.435  0.00  0.00    +0.000 A 
ATOM     20  C   UNL     1       6.996   5.866  19.072  0.00  0.00    +0.000 A 
ATOM     21  C   UNL     1       6.971   6.641  17.908  0.00  0.00    +0.000 A 
ATOM     22  C   UNL     1       5.808   6.626  17.125  0.00  0.00    +0.000 A 
ATOM     23  C   UNL     1       4.710   5.833  17.490  0.00  0.00    +0.000 A 
BRANCH  18  26
ATOM     24  C   UNL     1       3.636   2.970  19.451  0.00  0.00    +0.000 C 
ATOM     25  O   UNL     1       4.648   2.364  19.787  0.00  0.00    +0.000 OA
ATOM     26  N   UNL     1       3.608   4.272  18.969  0.00  0.00    +0.000 N 
ATOM     27  H   UNL     1       2.713   4.722  18.918  0.00  0.00    +0.000 HD
BRANCH  24  28
ATOM     28  C   UNL     1       2.259   2.310  19.545  0.00  0.00    +0.000 C 
ATOM     29  C   UNL     1       1.581   2.282  18.176  0.00  0.00    +0.000 C 
BRANCH  28  31
ATOM     30  C   UNL     1       1.956   3.026  22.011  0.00  0.00    +0.000 C 
ATOM     31  C   UNL     1       1.371   3.008  20.603  0.00  0.00    +0.000 C 
ENDBRANCH  28  31
ENDBRANCH  24  28
ENDBRANCH  18  26
ENDBRANCH  17  21
ENDBRANCH   1  17
TORSDOF 6
ENDMDL
MODEL 9
REMARK VINA RESULT:      -7.7      6.480      8.073
REMARK  Name = 
REMARK  9 active torsions:
REMARK  status: ('A' for Active; 'I' for Inactive)
REMARK    1  A    between atoms: C_1  and  C_2
REMARK    2  A    between atoms: C_2  and  C_3
REMARK    3  A    between atoms: C_3  and  C_4
REMARK    4  A    between atoms: C_3  and  C_5
REMARK    5  A    between atoms: N_7  and  C_8
REMARK    6  A    between atoms: C_11  and  C_12
REMARK    7  A    between atoms: C_12  and  C_13
REMARK    8  A    between atoms: N_15  and  C_16
REMARK    9  A    between atoms: C_20  and  C_21
REMARK                            x       y       z     vdW  Elec       q    Type
REMARK                         _______ _______ _______ _____ _____    ______ ____
ROOT
ATOM      1  C   UNL     1       8.308   9.234  18.034  0.00  0.00    +0.000 C 
ATOM      2  O   UNL     1       7.589  10.178  17.721  0.00  0.00    +0.000 OA
ATOM      3  N   UNL     1       9.284   9.271  19.022  0.00  0.00    +0.000 N 
ATOM      4  H   UNL     1      10.039   8.599  18.922  0.00  0.00    +0.000 HD
ENDROOT
BRANCH   3   5
ATOM      5  C   UNL     1       9.567  10.432  19.763  0.00  0.00    +0.000 A 
ATOM      6  C   UNL     1      10.485  11.344  19.240  0.00  0.00    +0.000 A 
ATOM      7  C   UNL     1      10.692  12.579  19.867  0.00  0.00    +0.000 A 
ATOM      8  C   UNL     1      10.019  12.902  21.050  0.00  0.00    +0.000 A 
ATOM      9  C   UNL     1       9.959  14.261  21.609  0.00  0.00    +0.000 A 
ATOM     10  C   UNL     1      10.831  15.382  21.126  0.00  0.00    +0.000 C 
ATOM     11  C   UNL     1       9.004  14.496  22.522  0.00  0.00    +0.000 A 
ATOM     12  C   UNL     1       8.488  13.405  23.361  0.00  0.00    +0.000 A 
ATOM     13  O   UNL     1       8.102  13.636  24.502  0.00  0.00    +0.000 OA
ATOM     14  O   UNL     1       8.534  12.131  22.833  0.00  0.00    +0.000 OA
ATOM     15  C   UNL     1       9.194  11.920  21.611  0.00  0.00    +0.000 A 
ATOM     16  C   UNL     1       8.945  10.702  20.979  0.00  0.00    +0.000 A 
ENDBRANCH   3   5
BRANCH   1  17
ATOM     17  C   UNL     1       8.154   7.883  17.354  0.00  0.00    +0.000 C 
BRANCH  17  21
ATOM     18  C   UNL     1       4.940   5.347  18.807  0.00  0.00    +0.000 A 
ATOM     19  C   UNL     1       4.736   6.260  17.772  0.00  0.00    +0.000 A 
ATOM     20  C   UNL     1       5.772   7.070  17.311  0.00  0.00    +0.000 A 
ATOM     21  C   UNL     1       7.048   6.999  17.880  0.00  0.00    +0.000 A 
ATOM     22  C   UNL     1       7.262   6.076  18.913  0.00  0.00    +0.000 A 
ATOM     23  C   UNL     1       6.215   5.267  19.380  0.00  0.00    +0.000 A 
BRANCH  18  26
ATOM     24  C   UNL     1       4.074   3.179  19.685  0.00  0.00    +0.000 C 
ATOM     25  O   UNL     1       5.143   2.576  19.718  0.00  0.00    +0.000 OA
ATOM     26  N   UNL     1       3.921   4.511  19.325  0.00  0.00    +0.000 N 
ATOM     27  H   UNL     1       3.038   4.942  19.529  0.00  0.00    +0.000 HD
BRANCH  24  28
ATOM     28  C   UNL     1       2.767   2.480  20.061  0.00  0.00    +0.000 C 
ATOM     29  C   UNL     1       1.962   2.137  18.808  0.00  0.00    +0.000 C 
BRANCH  28  31
ATOM     30  C   UNL     1       0.808   4.130  20.411  0.00  0.00    +0.000 C 
ATOM     31  C   UNL     1       1.937   3.331  21.052  0.00  0.00    +0.000 C 
ENDBRANCH  28  31
ENDBRANCH  24  28
ENDBRANCH  18  26
ENDBRANCH  17  21
ENDBRANCH   1  17
TORSDOF 6
ENDMDL
