MODEL 1
REMARK VINA RESULT:      -8.0      0.000      0.000
REMARK  Name = 
REMARK  4 active torsions:
REMARK  status: ('A' for Active; 'I' for Inactive)
REMARK    1  A    between atoms: C_1  and  C_2
REMARK    2  A    between atoms: C_2  and  C_3
REMARK    3  A    between atoms: C_6  and  C_7
REMARK    4  A    between atoms: C_7  and  N_8
REMARK                            x       y       z     vdW  Elec       q    Type
REMARK                         _______ _______ _______ _____ _____    ______ ____
ROOT
ATOM      1  N   UNL     1       4.546   3.954  17.851  0.00  0.00    +0.000 NA
ATOM      2  C   UNL     1       3.129   4.317  17.643  0.00  0.00    +0.000 C 
ATOM      3  C   UNL     1       2.193   3.119  17.439  0.00  0.00    +0.000 C 
ATOM      4  C   UNL     1       2.164   2.044  18.521  0.00  0.00    +0.000 C 
ATOM      5  N   UNL     1       2.693   2.476  19.805  0.00  0.00    +0.000 N 
ATOM      6  C   UNL     1       1.973   3.037  20.830  0.00  0.00    +0.000 C 
ATOM      7  N   UNL     1       0.628   3.073  20.679  0.00  0.00    +0.000 N 
ATOM      8  O   UNL     1       2.469   3.476  21.862  0.00  0.00    +0.000 OA
ATOM      9  C   UNL     1       4.149   2.468  19.904  0.00  0.00    +0.000 C 
ATOM     10  C   UNL     1       4.812   3.715  19.298  0.00  0.00    +0.000 C 
ATOM     11  H   UNL     1       0.245   3.243  19.765  0.00  0.00    +0.000 HD
ATOM     12  H   UNL     1       0.157   3.553  21.435  0.00  0.00    +0.000 HD
ENDROOT
BRANCH   1  13
ATOM     13  C   UNL     1       5.447   5.061  17.417  0.00  0.00    +0.000 C 
BRANCH  13  17
ATOM     14  C   UNL     1       6.579   4.399  14.103  0.00  0.00    +0.000 A 
ATOM     15  N   UNL     1       7.543   5.253  14.469  0.00  0.00    +0.000 NA
ATOM     16  O   UNL     1       7.184   5.597  15.778  0.00  0.00    +0.000 OA
ATOM     17  C   UNL     1       6.040   4.906  16.055  0.00  0.00    +0.000 A 
ATOM     18  N   UNL     1       5.622   4.161  15.054  0.00  0.00    +0.000 NA
BRANCH  14  20
ATOM     19  C   UNL     1       5.126   3.503  12.292  0.00  0.00    +0.000 C 
ATOM     20  C   UNL     1       6.547   3.732  12.781  0.00  0.00    +0.000 C 
ENDBRANCH  14  20
ENDBRANCH  13  17
ENDBRANCH   1  13
TORSDOF 3
ENDMDL
MODEL 2
REMARK VINA RESULT:      -7.5      1.312      1.651
REMARK  Name = 
REMARK  4 active torsions:
REMARK  status: ('A' for Active; 'I' for Inactive)
REMARK    1  A    between atoms: C_1  and  C_2
REMARK    2  A    between atoms: C_2  and  C_3
REMARK    3  A    between atoms: C_6  and  C_7
REMARK    4  A    between atoms: C_7  and  N_8
REMARK                            x       y       z     vdW  Elec       q    Type
REMARK                         _______ _______ _______ _____ _____    ______ ____
ROOT
ATOM      1  N   UNL     1       4.397   4.473  17.217  0.00  0.00    +0.000 NA
ATOM      2  C   UNL     1       3.927   5.370  18.293  0.00  0.00    +0.000 C 
ATOM      3  C   UNL     1       2.503   5.905  18.093  0.00  0.00    +0.000 C 
ATOM      4  C   UNL     1       1.378   4.890  17.914  0.00  0.00    +0.000 C 
ATOM      5  N   UNL     1       1.706   3.550  18.376  0.00  0.00    +0.000 N 
ATOM      6  C   UNL     1       1.487   3.051  19.635  0.00  0.00    +0.000 C 
ATOM      7  N   UNL     1       0.788   3.838  20.487  0.00  0.00    +0.000 N 
ATOM      8  O   UNL     1       1.863   1.947  20.015  0.00  0.00    +0.000 OA
ATOM      9  C   UNL     1       2.504   2.758  17.445  0.00  0.00    +0.000 C 
ATOM     10  C   UNL     1       4.008   3.065  17.511  0.00  0.00    +0.000 C 
ATOM     11  H   UNL     1       0.926   4.833  20.455  0.00  0.00    +0.000 HD
ATOM     12  H   UNL     1       0.713   3.446  21.417  0.00  0.00    +0.000 HD
ENDROOT
BRANCH   1  13
ATOM     13  C   UNL     1       5.885   4.504  17.112  0.00  0.00    +0.000 C 
BRANCH  13  17
ATOM     14  C   UNL     1       6.921   4.530  13.702  0.00  0.00    +0.000 A 
ATOM     15  N   UNL     1       7.800   5.422  14.177  0.00  0.00    +0.000 NA
ATOM     16  O   UNL     1       7.469   5.503  15.536  0.00  0.00    +0.000 OA
ATOM     17  C   UNL     1       6.425   4.644  15.726  0.00  0.00    +0.000 A 
ATOM     18  N   UNL     1       6.045   4.028  14.628  0.00  0.00    +0.000 NA
BRANCH  14  20
ATOM     19  C   UNL     1       5.820   3.050  12.032  0.00  0.00    +0.000 C 
ATOM     20  C   UNL     1       6.902   4.087  12.288  0.00  0.00    +0.000 C 
ENDBRANCH  14  20
ENDBRANCH  13  17
ENDBRANCH   1  13
TORSDOF 3
ENDMDL
MODEL 3
REMARK VINA RESULT:      -7.4      1.197      1.395
REMARK  Name = 
REMARK  4 active torsions:
REMARK  status: ('A' for Active; 'I' for Inactive)
REMARK    1  A    between atoms: C_1  and  C_2
REMARK    2  A    between atoms: C_2  and  C_3
REMARK    3  A    between atoms: C_6  and  C_7
REMARK    4  A    between atoms: C_7  and  N_8
REMARK                            x       y       z     vdW  Elec       q    Type
REMARK                         _______ _______ _______ _____ _____    ______ ____
ROOT
ATOM      1  N   UNL     1       4.431   4.764  18.127  0.00  0.00    +0.000 NA
ATOM      2  C   UNL     1       3.780   5.567  19.182  0.00  0.00    +0.000 C 
ATOM      3  C   UNL     1       2.254   5.427  19.231  0.00  0.00    +0.000 C 
ATOM      4  C   UNL     1       1.670   4.027  19.394  0.00  0.00    +0.000 C 
ATOM      5  N   UNL     1       2.611   3.046  19.908  0.00  0.00    +0.000 N 
ATOM      6  C   UNL     1       2.818   2.737  21.229  0.00  0.00    +0.000 C 
ATOM      7  N   UNL     1       1.978   3.308  22.125  0.00  0.00    +0.000 N 
ATOM      8  O   UNL     1       3.687   1.971  21.631  0.00  0.00    +0.000 OA
ATOM      9  C   UNL     1       3.530   2.496  18.916  0.00  0.00    +0.000 C 
ATOM     10  C   UNL     1       4.741   3.398  18.635  0.00  0.00    +0.000 C 
ATOM     11  H   UNL     1       1.663   4.249  21.966  0.00  0.00    +0.000 HD
ATOM     12  H   UNL     1       2.218   3.093  23.084  0.00  0.00    +0.000 HD
ENDROOT
BRANCH   1  13
ATOM     13  C   UNL     1       5.725   5.381  17.712  0.00  0.00    +0.000 C 
BRANCH  13  17
ATOM     14  C   UNL     1       6.412   4.448  14.341  0.00  0.00    +0.000 A 
ATOM     15  N   UNL     1       7.462   5.256  14.535  0.00  0.00    +0.000 NA
ATOM     16  O   UNL     1       7.283   5.701  15.851  0.00  0.00    +0.000 OA
ATOM     17  C   UNL     1       6.141   5.105  16.304  0.00  0.00    +0.000 A 
ATOM     18  N   UNL     1       5.563   4.332  15.410  0.00  0.00    +0.000 NA
BRANCH  14  20
ATOM     19  C   UNL     1       7.158   4.124  11.989  0.00  0.00    +0.000 C 
ATOM     20  C   UNL     1       6.184   3.706  13.079  0.00  0.00    +0.000 C 
ENDBRANCH  14  20
ENDBRANCH  13  17
ENDBRANCH   1  13
TORSDOF 3
ENDMDL
MODEL 4
REMARK VINA RESULT:      -7.3      1.455      1.932
REMARK  Name = 
REMARK  4 active torsions:
REMARK  status: ('A' for Active; 'I' for Inactive)
REMARK    1  A    between atoms: C_1  and  C_2
REMARK    2  A    between atoms: C_2  and  C_3
REMARK    3  A    between atoms: C_6  and  C_7
REMARK    4  A    between atoms: C_7  and  N_8
REMARK                            x       y       z     vdW  Elec       q    Type
REMARK                         _______ _______ _______ _____ _____    ______ ____
ROOT
ATOM      1  N   UNL     1       5.025   4.811  17.256  0.00  0.00    +0.000 NA
ATOM      2  C   UNL     1       4.880   5.983  18.145  0.00  0.00    +0.000 C 
ATOM      3  C   UNL     1       3.518   6.680  18.055  0.00  0.00    +0.000 C 
ATOM      4  C   UNL     1       2.269   5.842  18.313  0.00  0.00    +0.000 C 
ATOM      5  N   UNL     1       2.522   4.600  19.025  0.00  0.00    +0.000 N 
ATOM      6  C   UNL     1       2.496   4.427  20.386  0.00  0.00    +0.000 C 
ATOM      7  N   UNL     1       2.072   5.480  21.124  0.00  0.00    +0.000 N 
ATOM      8  O   UNL     1       2.807   3.386  20.955  0.00  0.00    +0.000 OA
ATOM      9  C   UNL     1       3.026   3.508  18.197  0.00  0.00    +0.000 C 
ATOM     10  C   UNL     1       4.539   3.580  17.942  0.00  0.00    +0.000 C 
ATOM     11  H   UNL     1       2.316   6.410  20.830  0.00  0.00    +0.000 HD
ATOM     12  H   UNL     1       2.134   5.316  22.120  0.00  0.00    +0.000 HD
ENDROOT
BRANCH   1  13
ATOM     13  C   UNL     1       6.457   4.582  16.908  0.00  0.00    +0.000 C 
BRANCH  13  17
ATOM     14  C   UNL     1       6.989   4.355  13.391  0.00  0.00    +0.000 A 
ATOM     15  N   UNL     1       7.815   5.378  13.644  0.00  0.00    +0.000 NA
ATOM     16  O   UNL     1       7.673   5.567  15.025  0.00  0.00    +0.000 OA
ATOM     17  C   UNL     1       6.775   4.630  15.449  0.00  0.00    +0.000 A 
ATOM     18  N   UNL     1       6.318   3.866  14.480  0.00  0.00    +0.000 NA
BRANCH  14  20
ATOM     19  C   UNL     1       5.461   3.106  11.874  0.00  0.00    +0.000 C 
ATOM     20  C   UNL     1       6.821   3.766  12.042  0.00  0.00    +0.000 C 
ENDBRANCH  14  20
ENDBRANCH  13  17
ENDBRANCH   1  13
TORSDOF 3
ENDMDL
MODEL 5
REMARK VINA RESULT:      -7.1      0.975      1.010
REMARK  Name = 
REMARK  4 active torsions:
REMARK  status: ('A' for Active; 'I' for Inactive)
REMARK    1  A    between atoms: C_1  and  C_2
REMARK    2  A    between atoms: C_2  and  C_3
REMARK    3  A    between atoms: C_6  and  C_7
REMARK    4  A    between atoms: C_7  and  N_8
REMARK                            x       y       z     vdW  Elec       q    Type
REMARK                         _______ _______ _______ _____ _____    ______ ____
ROOT
ATOM      1  N   UNL     1       4.505   4.608  17.709  0.00  0.00    +0.000 NA
ATOM      2  C   UNL     1       3.326   3.958  17.101  0.00  0.00    +0.000 C 
ATOM      3  C   UNL     1       3.126   2.495  17.516  0.00  0.00    +0.000 C 
ATOM      4  C   UNL     1       3.015   2.184  19.005  0.00  0.00    +0.000 C 
ATOM      5  N   UNL     1       2.684   3.335  19.830  0.00  0.00    +0.000 N 
ATOM      6  C   UNL     1       1.422   3.747  20.177  0.00  0.00    +0.000 C 
ATOM      7  N   UNL     1       0.399   2.934  19.821  0.00  0.00    +0.000 N 
ATOM      8  O   UNL     1       1.178   4.777  20.797  0.00  0.00    +0.000 OA
ATOM      9  C   UNL     1       3.810   4.209  20.145  0.00  0.00    +0.000 C 
ATOM     10  C   UNL     1       4.144   5.206  19.025  0.00  0.00    +0.000 C 
ATOM     11  H   UNL     1       0.448   2.445  18.945  0.00  0.00    +0.000 HD
ATOM     12  H   UNL     1      -0.509   3.320  20.047  0.00  0.00    +0.000 HD
ENDROOT
BRANCH   1  13
ATOM     13  C   UNL     1       5.004   5.717  16.845  0.00  0.00    +0.000 C 
BRANCH  13  17
ATOM     14  C   UNL     1       6.523   4.459  13.877  0.00  0.00    +0.000 A 
ATOM     15  N   UNL     1       7.564   5.161  14.342  0.00  0.00    +0.000 NA
ATOM     16  O   UNL     1       7.065   5.723  15.524  0.00  0.00    +0.000 OA
ATOM     17  C   UNL     1       5.776   5.290  15.639  0.00  0.00    +0.000 A 
ATOM     18  N   UNL     1       5.392   4.517  14.646  0.00  0.00    +0.000 NA
BRANCH  14  20
ATOM     19  C   UNL     1       5.200   3.394  12.058  0.00  0.00    +0.000 C 
ATOM     20  C   UNL     1       6.583   3.650  12.636  0.00  0.00    +0.000 C 
ENDBRANCH  14  20
ENDBRANCH  13  17
ENDBRANCH   1  13
TORSDOF 3
ENDMDL
MODEL 6
REMARK VINA RESULT:      -7.1      1.219      1.346
REMARK  Name = 
REMARK  4 active torsions:
REMARK  status: ('A' for Active; 'I' for Inactive)
REMARK    1  A    between atoms: C_1  and  C_2
REMARK    2  A    between atoms: C_2  and  C_3
REMARK    3  A    between atoms: C_6  and  C_7
REMARK    4  A    between atoms: C_7  and  N_8
REMARK                            x       y       z     vdW  Elec       q    Type
REMARK                         _______ _______ _______ _____ _____    ______ ____
ROOT
ATOM      1  N   UNL     1       3.994   4.128  17.732  0.00  0.00    +0.000 NA
ATOM      2  C   UNL     1       2.730   4.782  18.131  0.00  0.00    +0.000 C 
ATOM      3  C   UNL     1       1.478   3.925  17.908  0.00  0.00    +0.000 C 
ATOM      4  C   UNL     1       1.428   2.549  18.566  0.00  0.00    +0.000 C 
ATOM      5  N   UNL     1       2.366   2.380  19.664  0.00  0.00    +0.000 N 
ATOM      6  C   UNL     1       2.118   2.640  20.988  0.00  0.00    +0.000 C 
ATOM      7  N   UNL     1       0.845   2.962  21.316  0.00  0.00    +0.000 N 
ATOM      8  O   UNL     1       2.964   2.575  21.875  0.00  0.00    +0.000 OA
ATOM      9  C   UNL     1       3.737   2.084  19.261  0.00  0.00    +0.000 C 
ATOM     10  C   UNL     1       4.543   3.331  18.866  0.00  0.00    +0.000 C 
ATOM     11  H   UNL     1       0.304   3.519  20.678  0.00  0.00    +0.000 HD
ATOM     12  H   UNL     1       0.736   3.203  22.293  0.00  0.00    +0.000 HD
ENDROOT
BRANCH   1  13
ATOM     13  C   UNL     1       5.025   5.143  17.370  0.00  0.00    +0.000 C 
BRANCH  13  17
ATOM     14  C   UNL     1       6.918   4.899  14.360  0.00  0.00    +0.000 A 
ATOM     15  N   UNL     1       6.327   3.699  14.313  0.00  0.00    +0.000 NA
ATOM     16  O   UNL     1       5.553   3.680  15.480  0.00  0.00    +0.000 OA
ATOM     17  C   UNL     1       5.764   4.878  16.099  0.00  0.00    +0.000 A 
ATOM     18  N   UNL     1       6.603   5.660  15.455  0.00  0.00    +0.000 NA
BRANCH  14  20
ATOM     19  C   UNL     1       7.451   4.858  11.929  0.00  0.00    +0.000 C 
ATOM     20  C   UNL     1       7.828   5.395  13.301  0.00  0.00    +0.000 C 
ENDBRANCH  14  20
ENDBRANCH  13  17
ENDBRANCH   1  13
TORSDOF 3
ENDMDL
MODEL 7
REMARK VINA RESULT:      -7.1      1.568      2.183
REMARK  Name = 
REMARK  4 active torsions:
REMARK  status: ('A' for Active; 'I' for Inactive)
REMARK    1  A    between atoms: C_1  and  C_2
REMARK    2  A    between atoms: C_2  and  C_3
REMARK    3  A    between atoms: C_6  and  C_7
REMARK    4  A    between atoms: C_7  and  N_8
REMARK                            x       y       z     vdW  Elec       q    Type
REMARK                         _______ _______ _______ _____ _____    ______ ____
ROOT
ATOM      1  N   UNL     1       4.465   5.751  18.061  0.00  0.00    +0.000 NA
ATOM      2  C   UNL     1       4.918   4.354  17.905  0.00  0.00    +0.000 C 
ATOM      3  C   UNL     1       4.950   3.551  19.211  0.00  0.00    +0.000 C 
ATOM      4  C   UNL     1       3.661   3.453  20.021  0.00  0.00    +0.000 C 
ATOM      5  N   UNL     1       2.458   3.762  19.265  0.00  0.00    +0.000 N 
ATOM      6  C   UNL     1       1.683   2.865  18.574  0.00  0.00    +0.000 C 
ATOM      7  N   UNL     1       1.998   1.555  18.715  0.00  0.00    +0.000 N 
ATOM      8  O   UNL     1       0.728   3.177  17.870  0.00  0.00    +0.000 OA
ATOM      9  C   UNL     1       2.187   5.186  19.096  0.00  0.00    +0.000 C 
ATOM     10  C   UNL     1       2.981   5.829  17.949  0.00  0.00    +0.000 C 
ATOM     11  H   UNL     1       2.965   1.292  18.791  0.00  0.00    +0.000 HD
ATOM     12  H   UNL     1       1.433   0.948  18.135  0.00  0.00    +0.000 HD
ENDROOT
BRANCH   1  13
ATOM     13  C   UNL     1       5.032   6.616  16.985  0.00  0.00    +0.000 C 
BRANCH  13  17
ATOM     14  C   UNL     1       6.553   4.769  14.345  0.00  0.00    +0.000 A 
ATOM     15  N   UNL     1       7.669   5.155  14.976  0.00  0.00    +0.000 NA
ATOM     16  O   UNL     1       7.181   5.916  16.046  0.00  0.00    +0.000 OA
ATOM     17  C   UNL     1       5.821   5.899  15.938  0.00  0.00    +0.000 A 
ATOM     18  N   UNL     1       5.385   5.214  14.903  0.00  0.00    +0.000 NA
BRANCH  14  20
ATOM     19  C   UNL     1       5.156   3.581  12.662  0.00  0.00    +0.000 C 
ATOM     20  C   UNL     1       6.563   3.900  13.144  0.00  0.00    +0.000 C 
ENDBRANCH  14  20
ENDBRANCH  13  17
ENDBRANCH   1  13
TORSDOF 3
ENDMDL
MODEL 8
REMARK VINA RESULT:      -7.0      2.288      3.322
REMARK  Name = 
REMARK  4 active torsions:
REMARK  status: ('A' for Active; 'I' for Inactive)
REMARK    1  A    between atoms: C_1  and  C_2
REMARK    2  A    between atoms: C_2  and  C_3
REMARK    3  A    between atoms: C_6  and  C_7
REMARK    4  A    between atoms: C_7  and  N_8
REMARK                            x       y       z     vdW  Elec       q    Type
REMARK                         _______ _______ _______ _____ _____    ______ ____
ROOT
ATOM      1  N   UNL     1       3.836   3.832  17.341  0.00  0.00    +0.000 NA
ATOM      2  C   UNL     1       3.385   4.906  18.250  0.00  0.00    +0.000 C 
ATOM      3  C   UNL     1       1.888   4.868  18.579  0.00  0.00    +0.000 C 
ATOM      4  C   UNL     1       1.323   3.586  19.183  0.00  0.00    +0.000 C 
ATOM      5  N   UNL     1       2.326   2.712  19.770  0.00  0.00    +0.000 N 
ATOM      6  C   UNL     1       2.751   2.727  21.074  0.00  0.00    +0.000 C 
ATOM      7  N   UNL     1       2.084   3.548  21.921  0.00  0.00    +0.000 N 
ATOM      8  O   UNL     1       3.666   2.037  21.510  0.00  0.00    +0.000 OA
ATOM      9  C   UNL     1       3.054   1.883  18.813  0.00  0.00    +0.000 C 
ATOM     10  C   UNL     1       4.211   2.619  18.121  0.00  0.00    +0.000 C 
ATOM     11  H   UNL     1       1.758   4.436  21.582  0.00  0.00    +0.000 HD
ATOM     12  H   UNL     1       2.481   3.564  22.851  0.00  0.00    +0.000 HD
ENDROOT
BRANCH   1  13
ATOM     13  C   UNL     1       5.048   4.255  16.579  0.00  0.00    +0.000 C 
BRANCH  13  17
ATOM     14  C   UNL     1       7.474   6.256  18.256  0.00  0.00    +0.000 A 
ATOM     15  N   UNL     1       7.723   5.095  18.873  0.00  0.00    +0.000 NA
ATOM     16  O   UNL     1       6.798   4.220  18.291  0.00  0.00    +0.000 OA
ATOM     17  C   UNL     1       6.094   4.956  17.382  0.00  0.00    +0.000 A 
ATOM     18  N   UNL     1       6.466   6.217  17.329  0.00  0.00    +0.000 NA
BRANCH  14  20
ATOM     19  C   UNL     1       7.776   8.651  17.651  0.00  0.00    +0.000 C 
ATOM     20  C   UNL     1       8.239   7.496  18.524  0.00  0.00    +0.000 C 
ENDBRANCH  14  20
ENDBRANCH  13  17
ENDBRANCH   1  13
TORSDOF 3
ENDMDL
MODEL 9
REMARK VINA RESULT:      -6.9      1.966      2.568
REMARK  Name = 
REMARK  4 active torsions:
REMARK  status: ('A' for Active; 'I' for Inactive)
REMARK    1  A    between atoms: C_1  and  C_2
REMARK    2  A    between atoms: C_2  and  C_3
REMARK    3  A    between atoms: C_6  and  C_7
REMARK    4  A    between atoms: C_7  and  N_8
REMARK                            x       y       z     vdW  Elec       q    Type
REMARK                         _______ _______ _______ _____ _____    ______ ____
ROOT
ATOM      1  N   UNL     1       4.801   4.995  19.785  0.00  0.00    +0.000 NA
ATOM      2  C   UNL     1       4.917   3.575  19.392  0.00  0.00    +0.000 C 
ATOM      3  C   UNL     1       4.226   2.597  20.350  0.00  0.00    +0.000 C 
ATOM      4  C   UNL     1       2.741   2.801  20.630  0.00  0.00    +0.000 C 
ATOM      5  N   UNL     1       2.057   3.623  19.644  0.00  0.00    +0.000 N 
ATOM      6  C   UNL     1       1.426   3.172  18.512  0.00  0.00    +0.000 C 
ATOM      7  N   UNL     1       1.324   1.830  18.367  0.00  0.00    +0.000 N 
ATOM      8  O   UNL     1       0.941   3.903  17.655  0.00  0.00    +0.000 OA
ATOM      9  C   UNL     1       2.237   5.062  19.811  0.00  0.00    +0.000 C 
ATOM     10  C   UNL     1       3.555   5.587  19.221  0.00  0.00    +0.000 C 
ATOM     11  H   UNL     1       2.082   1.247  18.677  0.00  0.00    +0.000 HD
ATOM     12  H   UNL     1       0.907   1.557  17.486  0.00  0.00    +0.000 HD
ENDROOT
BRANCH   1  13
ATOM     13  C   UNL     1       5.944   5.790  19.249  0.00  0.00    +0.000 C 
BRANCH  13  17
ATOM     14  C   UNL     1       7.034   4.673  16.044  0.00  0.00    +0.000 A 
ATOM     15  N   UNL     1       8.047   4.186  16.772  0.00  0.00    +0.000 NA
ATOM     16  O   UNL     1       7.724   4.586  18.075  0.00  0.00    +0.000 OA
ATOM     17  C   UNL     1       6.546   5.270  17.984  0.00  0.00    +0.000 A 
ATOM     18  N   UNL     1       6.085   5.359  16.755  0.00  0.00    +0.000 NA
BRANCH  14  20
ATOM     19  C   UNL     1       5.471   4.332  14.138  0.00  0.00    +0.000 C 
ATOM     20  C   UNL     1       6.919   4.471  14.581  0.00  0.00    +0.000 C 
ENDBRANCH  14  20
ENDBRANCH  13  17
ENDBRANCH   1  13
TORSDOF 3
ENDMDL
