MODEL 1
REMARK VINA RESULT:      -8.1      0.000      0.000
REMARK  Name = 
REMARK  9 active torsions:
REMARK  status: ('A' for Active; 'I' for Inactive)
REMARK    1  A    between atoms: C_1  and  C_2
REMARK    2  A    between atoms: N_4  and  C_5
REMARK    3  A    between atoms: C_9  and  C_10
REMARK    4  A    between atoms: N_12  and  C_13
REMARK    5  A    between atoms: C_17  and  C_18
REMARK    6  A    between atoms: C_18  and  C_19
REMARK    7  A    between atoms: C_18  and  S_20
REMARK    8  A    between atoms: S_20  and  C_21
REMARK    9  A    between atoms: N_25  and  C_26
REMARK                            x       y       z     vdW  Elec       q    Type
REMARK                         _______ _______ _______ _____ _____    ______ ____
ROOT
ATOM      1  C   UNL     1       1.798   8.037  19.670  0.00  0.00    +0.000 C 
ATOM      2  O   UNL     1       1.914   8.349  18.487  0.00  0.00    +0.000 OA
ATOM      3  N   UNL     1       2.260   6.872  20.269  0.00  0.00    +0.000 N 
ATOM      4  H   UNL     1       1.953   6.732  21.229  0.00  0.00    +0.000 HD
ENDROOT
BRANCH   1   9
ATOM      5  C   UNL     1       0.208  11.147  21.080  0.00  0.00    +0.000 A 
ATOM      6  C   UNL     1      -0.158  10.657  22.332  0.00  0.00    +0.000 A 
ATOM      7  C   UNL     1       0.111   9.331  22.642  0.00  0.00    +0.000 A 
ATOM      8  N   UNL     1       0.717   8.463  21.802  0.00  0.00    +0.000 NA
ATOM      9  C   UNL     1       1.060   8.963  20.586  0.00  0.00    +0.000 A 
ATOM     10  C   UNL     1       0.802  10.272  20.175  0.00  0.00    +0.000 A 
BRANCH   5  14
ATOM     11  C   UNL     1       0.390  14.867  20.425  0.00  0.00    +0.000 C 
ATOM     12  C   UNL     1       0.879  13.544  20.958  0.00  0.00    +0.000 C 
ATOM     13  O   UNL     1       1.948  13.471  21.553  0.00  0.00    +0.000 OA
ATOM     14  N   UNL     1       0.016  12.494  20.690  0.00  0.00    +0.000 N 
ATOM     15  H   UNL     1      -0.752  12.681  20.053  0.00  0.00    +0.000 HD
ENDBRANCH   5  14
ENDBRANCH   1   9
BRANCH   3  16
ATOM     16  C   UNL     1       2.968   5.831  19.630  0.00  0.00    +0.000 A 
ATOM     17  C   UNL     1       2.945   4.517  20.100  0.00  0.00    +0.000 A 
ATOM     18  C   UNL     1       3.706   3.525  19.486  0.00  0.00    +0.000 A 
ATOM     19  C   UNL     1       4.511   3.840  18.396  0.00  0.00    +0.000 A 
ATOM     20  C   UNL     1       4.550   5.149  17.885  0.00  0.00    +0.000 A 
ATOM     21  C   UNL     1       3.739   6.132  18.496  0.00  0.00    +0.000 A 
BRANCH  20  22
ATOM     22  C   UNL     1       5.491   5.513  16.738  0.00  0.00    +0.000 C 
ATOM     23  C   UNL     1       4.991   6.747  15.978  0.00  0.00    +0.000 C 
BRANCH  22  24
ATOM     24  S   UNL     1       5.659   4.063  15.607  0.00  0.00    +0.000 S 
BRANCH  24  25
ATOM     25  C   UNL     1       6.758   4.656  14.419  0.00  0.00    +0.000 A 
ATOM     26  N   UNL     1       7.724   5.527  14.599  0.00  0.00    +0.000 NA
ATOM     27  N   UNL     1       8.336   5.728  13.379  0.00  0.00    +0.000 NA
ATOM     28  C   UNL     1       7.726   4.968  12.498  0.00  0.00    +0.000 A 
ATOM     29  N   UNL     1       6.725   4.273  13.109  0.00  0.00    +0.000 N 
ATOM     30  C   UNL     1       5.822   3.356  12.468  0.00  0.00    +0.000 C 
ENDBRANCH  24  25
ENDBRANCH  22  24
ENDBRANCH  20  22
ENDBRANCH   3  16
TORSDOF 6
ENDMDL
MODEL 2
REMARK VINA RESULT:      -8.1      3.882      9.693
REMARK  Name = 
REMARK  9 active torsions:
REMARK  status: ('A' for Active; 'I' for Inactive)
REMARK    1  A    between atoms: C_1  and  C_2
REMARK    2  A    between atoms: N_4  and  C_5
REMARK    3  A    between atoms: C_9  and  C_10
REMARK    4  A    between atoms: N_12  and  C_13
REMARK    5  A    between atoms: C_17  and  C_18
REMARK    6  A    between atoms: C_18  and  C_19
REMARK    7  A    between atoms: C_18  and  S_20
REMARK    8  A    between atoms: S_20  and  C_21
REMARK    9  A    between atoms: N_25  and  C_26
REMARK                            x       y       z     vdW  Elec       q    Type
REMARK                         _______ _______ _______ _____ _____    ______ ____
ROOT
ATOM      1  C   UNL     1       2.795   6.132  19.083  0.00  0.00    +0.000 C 
ATOM      2  O   UNL     1       1.796   5.420  19.004  0.00  0.00    +0.000 OA
ATOM      3  N   UNL     1       2.843   7.445  19.534  0.00  0.00    +0.000 N 
ATOM      4  H   UNL     1       3.738   7.912  19.400  0.00  0.00    +0.000 HD
ENDROOT
BRANCH   1   9
ATOM      5  C   UNL     1       5.453   4.590  16.905  0.00  0.00    +0.000 A 
ATOM      6  C   UNL     1       6.458   4.443  17.858  0.00  0.00    +0.000 A 
ATOM      7  C   UNL     1       6.226   4.876  19.155  0.00  0.00    +0.000 A 
ATOM      8  N   UNL     1       5.071   5.440  19.571  0.00  0.00    +0.000 NA
ATOM      9  C   UNL     1       4.107   5.578  18.622  0.00  0.00    +0.000 A 
ATOM     10  C   UNL     1       4.262   5.200  17.288  0.00  0.00    +0.000 A 
BRANCH   5  14
ATOM     11  C   UNL     1       6.387   3.924  13.301  0.00  0.00    +0.000 C 
ATOM     12  C   UNL     1       6.516   4.585  14.650  0.00  0.00    +0.000 C 
ATOM     13  O   UNL     1       7.390   5.420  14.852  0.00  0.00    +0.000 OA
ATOM     14  N   UNL     1       5.580   4.138  15.568  0.00  0.00    +0.000 N 
ATOM     15  H   UNL     1       5.022   3.333  15.303  0.00  0.00    +0.000 HD
ENDBRANCH   5  14
ENDBRANCH   1   9
BRANCH   3  16
ATOM     16  C   UNL     1       1.751   8.204  20.006  0.00  0.00    +0.000 A 
ATOM     17  C   UNL     1       1.055   7.863  21.168  0.00  0.00    +0.000 A 
ATOM     18  C   UNL     1      -0.059   8.594  21.572  0.00  0.00    +0.000 A 
ATOM     19  C   UNL     1      -0.499   9.673  20.812  0.00  0.00    +0.000 A 
ATOM     20  C   UNL     1       0.184  10.054  19.644  0.00  0.00    +0.000 A 
ATOM     21  C   UNL     1       1.336   9.327  19.272  0.00  0.00    +0.000 A 
BRANCH  20  22
ATOM     22  C   UNL     1      -0.342  11.190  18.767  0.00  0.00    +0.000 C 
ATOM     23  C   UNL     1       0.696  12.309  18.623  0.00  0.00    +0.000 C 
BRANCH  22  24
ATOM     24  S   UNL     1      -1.915  11.834  19.487  0.00  0.00    +0.000 S 
BRANCH  24  25
ATOM     25  C   UNL     1      -3.025  11.617  18.185  0.00  0.00    +0.000 A 
ATOM     26  N   UNL     1      -2.741  11.255  16.955  0.00  0.00    +0.000 NA
ATOM     27  N   UNL     1      -3.923  11.227  16.246  0.00  0.00    +0.000 NA
ATOM     28  C   UNL     1      -4.889  11.568  17.070  0.00  0.00    +0.000 A 
ATOM     29  N   UNL     1      -4.369  11.821  18.304  0.00  0.00    +0.000 N 
ATOM     30  C   UNL     1      -5.111  12.243  19.462  0.00  0.00    +0.000 C 
ENDBRANCH  24  25
ENDBRANCH  22  24
ENDBRANCH  20  22
ENDBRANCH   3  16
TORSDOF 6
ENDMDL
MODEL 3
REMARK VINA RESULT:      -8.0      3.870      9.215
REMARK  Name = 
REMARK  9 active torsions:
REMARK  status: ('A' for Active; 'I' for Inactive)
REMARK    1  A    between atoms: C_1  and  C_2
REMARK    2  A    between atoms: N_4  and  C_5
REMARK    3  A    between atoms: C_9  and  C_10
REMARK    4  A    between atoms: N_12  and  C_13
REMARK    5  A    between atoms: C_17  and  C_18
REMARK    6  A    between atoms: C_18  and  C_19
REMARK    7  A    between atoms: C_18  and  S_20
REMARK    8  A    between atoms: S_20  and  C_21
REMARK    9  A    between atoms: N_25  and  C_26
REMARK                            x       y       z     vdW  Elec       q    Type
REMARK                         _______ _______ _______ _____ _____    ______ ____
ROOT
ATOM      1  C   UNL     1       2.879   7.504  18.644  0.00  0.00    +0.000 C 
ATOM      2  O   UNL     1       3.082   8.439  17.871  0.00  0.00    +0.000 OA
ATOM      3  N   UNL     1       2.103   7.533  19.795  0.00  0.00    +0.000 N 
ATOM      4  H   UNL     1       2.163   6.699  20.375  0.00  0.00    +0.000 HD
ENDROOT
BRANCH   1   9
ATOM      5  C   UNL     1       4.709   4.729  16.871  0.00  0.00    +0.000 A 
ATOM      6  C   UNL     1       4.627   3.749  17.857  0.00  0.00    +0.000 A 
ATOM      7  C   UNL     1       4.001   4.051  19.058  0.00  0.00    +0.000 A 
ATOM      8  N   UNL     1       3.451   5.251  19.346  0.00  0.00    +0.000 NA
ATOM      9  C   UNL     1       3.548   6.192  18.370  0.00  0.00    +0.000 A 
ATOM     10  C   UNL     1       4.185   5.989  17.146  0.00  0.00    +0.000 A 
BRANCH   5  14
ATOM     11  C   UNL     1       6.840   4.603  13.749  0.00  0.00    +0.000 C 
ATOM     12  C   UNL     1       6.501   5.008  15.161  0.00  0.00    +0.000 C 
ATOM     13  O   UNL     1       7.271   5.709  15.808  0.00  0.00    +0.000 OA
ATOM     14  N   UNL     1       5.288   4.502  15.599  0.00  0.00    +0.000 N 
ATOM     15  H   UNL     1       4.837   3.811  15.008  0.00  0.00    +0.000 HD
ENDBRANCH   5  14
ENDBRANCH   1   9
BRANCH   3  16
ATOM     16  C   UNL     1       1.383   8.644  20.286  0.00  0.00    +0.000 A 
ATOM     17  C   UNL     1       1.080   8.795  21.640  0.00  0.00    +0.000 A 
ATOM     18  C   UNL     1       0.312   9.868  22.085  0.00  0.00    +0.000 A 
ATOM     19  C   UNL     1      -0.172  10.803  21.174  0.00  0.00    +0.000 A 
ATOM     20  C   UNL     1       0.124  10.692  19.805  0.00  0.00    +0.000 A 
ATOM     21  C   UNL     1       0.939   9.619  19.379  0.00  0.00    +0.000 A 
BRANCH  20  22
ATOM     22  C   UNL     1      -0.470  11.673  18.795  0.00  0.00    +0.000 C 
ATOM     23  C   UNL     1       0.030  13.100  19.045  0.00  0.00    +0.000 C 
BRANCH  22  24
ATOM     24  S   UNL     1      -2.312  11.593  18.883  0.00  0.00    +0.000 S 
BRANCH  24  25
ATOM     25  C   UNL     1      -2.723  10.988  17.321  0.00  0.00    +0.000 A 
ATOM     26  N   UNL     1      -1.967  10.264  16.529  0.00  0.00    +0.000 NA
ATOM     27  N   UNL     1      -2.684  10.023  15.376  0.00  0.00    +0.000 NA
ATOM     28  C   UNL     1      -3.855  10.604  15.506  0.00  0.00    +0.000 A 
ATOM     29  N   UNL     1      -3.925  11.224  16.718  0.00  0.00    +0.000 N 
ATOM     30  C   UNL     1      -5.041  11.984  17.214  0.00  0.00    +0.000 C 
ENDBRANCH  24  25
ENDBRANCH  22  24
ENDBRANCH  20  22
ENDBRANCH   3  16
TORSDOF 6
ENDMDL
MODEL 4
REMARK VINA RESULT:      -8.0      3.839      9.288
REMARK  Name = 
REMARK  9 active torsions:
REMARK  status: ('A' for Active; 'I' for Inactive)
REMARK    1  A    between atoms: C_1  and  C_2
REMARK    2  A    between atoms: N_4  and  C_5
REMARK    3  A    between atoms: C_9  and  C_10
REMARK    4  A    between atoms: N_12  and  C_13
REMARK    5  A    between atoms: C_17  and  C_18
REMARK    6  A    between atoms: C_18  and  C_19
REMARK    7  A    between atoms: C_18  and  S_20
REMARK    8  A    between atoms: S_20  and  C_21
REMARK    9  A    between atoms: N_25  and  C_26
REMARK                            x       y       z     vdW  Elec       q    Type
REMARK                         _______ _______ _______ _____ _____    ______ ____
ROOT
ATOM      1  C   UNL     1       1.782   5.877  20.490  0.00  0.00    +0.000 C 
ATOM      2  O   UNL     1       0.638   5.476  20.697  0.00  0.00    +0.000 OA
ATOM      3  N   UNL     1       2.216   7.196  20.523  0.00  0.00    +0.000 N 
ATOM      4  H   UNL     1       3.169   7.342  20.195  0.00  0.00    +0.000 HD
ENDROOT
BRANCH   1   9
ATOM      5  C   UNL     1       4.806   4.293  18.898  0.00  0.00    +0.000 A 
ATOM      6  C   UNL     1       4.653   2.996  19.381  0.00  0.00    +0.000 A 
ATOM      7  C   UNL     1       3.585   2.710  20.220  0.00  0.00    +0.000 A 
ATOM      8  N   UNL     1       2.663   3.617  20.609  0.00  0.00    +0.000 NA
ATOM      9  C   UNL     1       2.836   4.877  20.129  0.00  0.00    +0.000 A 
ATOM     10  C   UNL     1       3.895   5.263  19.306  0.00  0.00    +0.000 A 
BRANCH   5  14
ATOM     11  C   UNL     1       7.061   5.003  15.946  0.00  0.00    +0.000 C 
ATOM     12  C   UNL     1       5.804   4.522  16.625  0.00  0.00    +0.000 C 
ATOM     13  O   UNL     1       4.877   4.065  15.966  0.00  0.00    +0.000 OA
ATOM     14  N   UNL     1       5.836   4.670  18.002  0.00  0.00    +0.000 N 
ATOM     15  H   UNL     1       6.605   5.207  18.390  0.00  0.00    +0.000 HD
ENDBRANCH   5  14
ENDBRANCH   1   9
BRANCH   3  16
ATOM     16  C   UNL     1       1.424   8.326  20.820  0.00  0.00    +0.000 A 
ATOM     17  C   UNL     1       0.907   8.558  22.096  0.00  0.00    +0.000 A 
ATOM     18  C   UNL     1       0.075   9.647  22.342  0.00  0.00    +0.000 A 
ATOM     19  C   UNL     1      -0.259  10.516  21.308  0.00  0.00    +0.000 A 
ATOM     20  C   UNL     1       0.255  10.323  20.014  0.00  0.00    +0.000 A 
ATOM     21  C   UNL     1       1.129   9.237  19.793  0.00  0.00    +0.000 A 
BRANCH  20  22
ATOM     22  C   UNL     1      -0.172  11.232  18.860  0.00  0.00    +0.000 C 
ATOM     23  C   UNL     1       0.854  12.345  18.620  0.00  0.00    +0.000 C 
BRANCH  22  24
ATOM     24  S   UNL     1      -1.838  11.936  19.227  0.00  0.00    +0.000 S 
BRANCH  24  25
ATOM     25  C   UNL     1      -2.723  11.535  17.802  0.00  0.00    +0.000 A 
ATOM     26  N   UNL     1      -2.230  11.173  16.641  0.00  0.00    +0.000 NA
ATOM     27  N   UNL     1      -3.290  10.970  15.783  0.00  0.00    +0.000 NA
ATOM     28  C   UNL     1      -4.395  11.210  16.453  0.00  0.00    +0.000 A 
ATOM     29  N   UNL     1      -4.085  11.568  17.731  0.00  0.00    +0.000 N 
ATOM     30  C   UNL     1      -5.026  11.929  18.758  0.00  0.00    +0.000 C 
ENDBRANCH  24  25
ENDBRANCH  22  24
ENDBRANCH  20  22
ENDBRANCH   3  16
TORSDOF 6
ENDMDL
MODEL 5
REMARK VINA RESULT:      -8.0      4.917     10.645
REMARK  Name = 
REMARK  9 active torsions:
REMARK  status: ('A' for Active; 'I' for Inactive)
REMARK    1  A    between atoms: C_1  and  C_2
REMARK    2  A    between atoms: N_4  and  C_5
REMARK    3  A    between atoms: C_9  and  C_10
REMARK    4  A    between atoms: N_12  and  C_13
REMARK    5  A    between atoms: C_17  and  C_18
REMARK    6  A    between atoms: C_18  and  C_19
REMARK    7  A    between atoms: C_18  and  S_20
REMARK    8  A    between atoms: S_20  and  C_21
REMARK    9  A    between atoms: N_25  and  C_26
REMARK                            x       y       z     vdW  Elec       q    Type
REMARK                         _______ _______ _______ _____ _____    ______ ____
ROOT
ATOM      1  C   UNL     1       1.787   9.083  18.169  0.00  0.00    +0.000 C 
ATOM      2  O   UNL     1       2.165   9.961  17.396  0.00  0.00    +0.000 OA
ATOM      3  N   UNL     1       0.668   9.128  18.991  0.00  0.00    +0.000 N 
ATOM      4  H   UNL     1       0.594   8.361  19.657  0.00  0.00    +0.000 HD
ENDROOT
BRANCH   1   9
ATOM      5  C   UNL     1       3.153   5.820  19.465  0.00  0.00    +0.000 A 
ATOM      6  C   UNL     1       4.207   5.655  18.571  0.00  0.00    +0.000 A 
ATOM      7  C   UNL     1       4.404   6.602  17.576  0.00  0.00    +0.000 A 
ATOM      8  N   UNL     1       3.632   7.699  17.411  0.00  0.00    +0.000 NA
ATOM      9  C   UNL     1       2.607   7.836  18.292  0.00  0.00    +0.000 A 
ATOM     10  C   UNL     1       2.314   6.919  19.303  0.00  0.00    +0.000 A 
BRANCH   5  14
ATOM     11  C   UNL     1       1.924   3.140  21.834  0.00  0.00    +0.000 C 
ATOM     12  C   UNL     1       1.974   3.901  20.533  0.00  0.00    +0.000 C 
ATOM     13  O   UNL     1       1.247   3.583  19.599  0.00  0.00    +0.000 OA
ATOM     14  N   UNL     1       2.900   4.931  20.538  0.00  0.00    +0.000 N 
ATOM     15  H   UNL     1       3.537   4.974  21.327  0.00  0.00    +0.000 HD
ENDBRANCH   5  14
ENDBRANCH   1   9
BRANCH   3  16
ATOM     16  C   UNL     1      -0.258  10.190  19.079  0.00  0.00    +0.000 A 
ATOM     17  C   UNL     1      -0.023  11.319  19.866  0.00  0.00    +0.000 A 
ATOM     18  C   UNL     1      -0.984  12.320  19.984  0.00  0.00    +0.000 A 
ATOM     19  C   UNL     1      -2.201  12.199  19.321  0.00  0.00    +0.000 A 
ATOM     20  C   UNL     1      -2.468  11.084  18.508  0.00  0.00    +0.000 A 
ATOM     21  C   UNL     1      -1.465  10.099  18.368  0.00  0.00    +0.000 A 
BRANCH  20  22
ATOM     22  C   UNL     1      -3.833  10.912  17.841  0.00  0.00    +0.000 C 
ATOM     23  C   UNL     1      -3.735  11.085  16.321  0.00  0.00    +0.000 C 
BRANCH  22  24
ATOM     24  S   UNL     1      -5.021  12.121  18.570  0.00  0.00    +0.000 S 
BRANCH  24  25
ATOM     25  C   UNL     1      -6.162  11.086  19.344  0.00  0.00    +0.000 A 
ATOM     26  N   UNL     1      -6.541   9.892  18.952  0.00  0.00    +0.000 NA
ATOM     27  N   UNL     1      -7.481   9.437  19.852  0.00  0.00    +0.000 NA
ATOM     28  C   UNL     1      -7.639  10.367  20.766  0.00  0.00    +0.000 A 
ATOM     29  N   UNL     1      -6.826  11.425  20.488  0.00  0.00    +0.000 N 
ATOM     30  C   UNL     1      -6.736  12.642  21.248  0.00  0.00    +0.000 C 
ENDBRANCH  24  25
ENDBRANCH  22  24
ENDBRANCH  20  22
ENDBRANCH   3  16
TORSDOF 6
ENDMDL
MODEL 6
REMARK VINA RESULT:      -8.0      5.935      9.751
REMARK  Name = 
REMARK  9 active torsions:
REMARK  status: ('A' for Active; 'I' for Inactive)
REMARK    1  A    between atoms: C_1  and  C_2
REMARK    2  A    between atoms: N_4  and  C_5
REMARK    3  A    between atoms: C_9  and  C_10
REMARK    4  A    between atoms: N_12  and  C_13
REMARK    5  A    between atoms: C_17  and  C_18
REMARK    6  A    between atoms: C_18  and  C_19
REMARK    7  A    between atoms: C_18  and  S_20
REMARK    8  A    between atoms: S_20  and  C_21
REMARK    9  A    between atoms: N_25  and  C_26
REMARK                            x       y       z     vdW  Elec       q    Type
REMARK                         _______ _______ _______ _____ _____    ______ ____
ROOT
ATOM      1  C   UNL     1       7.829   7.408  17.978  0.00  0.00    +0.000 C 
ATOM      2  O   UNL     1       8.475   6.884  18.883  0.00  0.00    +0.000 OA
ATOM      3  N   UNL     1       7.808   8.757  17.649  0.00  0.00    +0.000 N 
ATOM      4  H   UNL     1       7.111   9.019  16.955  0.00  0.00    +0.000 HD
ENDROOT
BRANCH   1   9
ATOM      5  C   UNL     1       4.837   5.431  16.824  0.00  0.00    +0.000 A 
ATOM      6  C   UNL     1       5.384   4.857  15.680  0.00  0.00    +0.000 A 
ATOM      7  C   UNL     1       6.691   5.162  15.330  0.00  0.00    +0.000 A 
ATOM      8  N   UNL     1       7.491   5.992  16.035  0.00  0.00    +0.000 NA
ATOM      9  C   UNL     1       6.934   6.545  17.145  0.00  0.00    +0.000 A 
ATOM     10  C   UNL     1       5.619   6.320  17.557  0.00  0.00    +0.000 A 
BRANCH   5  14
ATOM     11  C   UNL     1       1.651   3.942  18.214  0.00  0.00    +0.000 C 
ATOM     12  C   UNL     1       3.109   3.945  17.833  0.00  0.00    +0.000 C 
ATOM     13  O   UNL     1       3.803   2.952  18.023  0.00  0.00    +0.000 OA
ATOM     14  N   UNL     1       3.529   5.146  17.286  0.00  0.00    +0.000 N 
ATOM     15  H   UNL     1       2.882   5.926  17.336  0.00  0.00    +0.000 HD
ENDBRANCH   5  14
ENDBRANCH   1   9
BRANCH   3  16
ATOM     16  C   UNL     1       8.544   9.781  18.285  0.00  0.00    +0.000 A 
ATOM     17  C   UNL     1       9.065   9.632  19.571  0.00  0.00    +0.000 A 
ATOM     18  C   UNL     1       9.730  10.684  20.198  0.00  0.00    +0.000 A 
ATOM     19  C   UNL     1       9.874  11.904  19.546  0.00  0.00    +0.000 A 
ATOM     20  C   UNL     1       9.375  12.086  18.244  0.00  0.00    +0.000 A 
ATOM     21  C   UNL     1       8.740  10.996  17.610  0.00  0.00    +0.000 A 
BRANCH  20  22
ATOM     22  C   UNL     1       9.464  13.449  17.557  0.00  0.00    +0.000 C 
ATOM     23  C   UNL     1      10.853  13.676  16.949  0.00  0.00    +0.000 C 
BRANCH  22  24
ATOM     24  S   UNL     1       9.051  14.772  18.776  0.00  0.00    +0.000 S 
BRANCH  24  25
ATOM     25  C   UNL     1       7.372  15.028  18.479  0.00  0.00    +0.000 A 
ATOM     26  N   UNL     1       6.597  14.336  17.676  0.00  0.00    +0.000 NA
ATOM     27  N   UNL     1       5.339  14.898  17.727  0.00  0.00    +0.000 NA
ATOM     28  C   UNL     1       5.388  15.909  18.564  0.00  0.00    +0.000 A 
ATOM     29  N   UNL     1       6.651  16.027  19.064  0.00  0.00    +0.000 N 
ATOM     30  C   UNL     1       7.101  17.030  19.992  0.00  0.00    +0.000 C 
ENDBRANCH  24  25
ENDBRANCH  22  24
ENDBRANCH  20  22
ENDBRANCH   3  16
TORSDOF 6
ENDMDL
MODEL 7
REMARK VINA RESULT:      -7.8      7.215     10.043
REMARK  Name = 
REMARK  9 active torsions:
REMARK  status: ('A' for Active; 'I' for Inactive)
REMARK    1  A    between atoms: C_1  and  C_2
REMARK    2  A    between atoms: N_4  and  C_5
REMARK    3  A    between atoms: C_9  and  C_10
REMARK    4  A    between atoms: N_12  and  C_13
REMARK    5  A    between atoms: C_17  and  C_18
REMARK    6  A    between atoms: C_18  and  C_19
REMARK    7  A    between atoms: C_18  and  S_20
REMARK    8  A    between atoms: S_20  and  C_21
REMARK    9  A    between atoms: N_25  and  C_26
REMARK                            x       y       z     vdW  Elec       q    Type
REMARK                         _______ _______ _______ _____ _____    ______ ____
ROOT
ATOM      1  C   UNL     1       7.723   7.276  17.945  0.00  0.00    +0.000 C 
ATOM      2  O   UNL     1       8.281   6.770  18.918  0.00  0.00    +0.000 OA
ATOM      3  N   UNL     1       7.778   8.609  17.559  0.00  0.00    +0.000 N 
ATOM      4  H   UNL     1       7.144   8.864  16.805  0.00  0.00    +0.000 HD
ENDROOT
BRANCH   1   9
ATOM      5  C   UNL     1       4.818   5.203  16.742  0.00  0.00    +0.000 A 
ATOM      6  C   UNL     1       5.373   4.714  15.562  0.00  0.00    +0.000 A 
ATOM      7  C   UNL     1       6.656   5.105  15.207  0.00  0.00    +0.000 A 
ATOM      8  N   UNL     1       7.424   5.941  15.940  0.00  0.00    +0.000 NA
ATOM      9  C   UNL     1       6.860   6.408  17.084  0.00  0.00    +0.000 A 
ATOM     10  C   UNL     1       5.566   6.095  17.505  0.00  0.00    +0.000 A 
BRANCH   5  14
ATOM     11  C   UNL     1       1.800   3.636  18.396  0.00  0.00    +0.000 C 
ATOM     12  C   UNL     1       3.270   3.806  18.106  0.00  0.00    +0.000 C 
ATOM     13  O   UNL     1       4.097   3.085  18.652  0.00  0.00    +0.000 OA
ATOM     14  N   UNL     1       3.535   4.826  17.209  0.00  0.00    +0.000 N 
ATOM     15  H   UNL     1       2.762   5.436  16.962  0.00  0.00    +0.000 HD
ENDBRANCH   5  14
ENDBRANCH   1   9
BRANCH   3  16
ATOM     16  C   UNL     1       8.504   9.634  18.205  0.00  0.00    +0.000 A 
ATOM     17  C   UNL     1       8.954   9.510  19.521  0.00  0.00    +0.000 A 
ATOM     18  C   UNL     1       9.611  10.564  20.152  0.00  0.00    +0.000 A 
ATOM     19  C   UNL     1       9.817  11.762  19.476  0.00  0.00    +0.000 A 
ATOM     20  C   UNL     1       9.390  11.918  18.145  0.00  0.00    +0.000 A 
ATOM     21  C   UNL     1       8.763  10.825  17.508  0.00  0.00    +0.000 A 
BRANCH  20  22
ATOM     22  C   UNL     1       9.547  13.259  17.427  0.00  0.00    +0.000 C 
ATOM     23  C   UNL     1      10.996  13.484  16.980  0.00  0.00    +0.000 C 
BRANCH  22  24
ATOM     24  S   UNL     1       8.979  14.615  18.543  0.00  0.00    +0.000 S 
BRANCH  24  25
ATOM     25  C   UNL     1      10.467  15.363  18.989  0.00  0.00    +0.000 A 
ATOM     26  N   UNL     1      11.279  14.997  19.954  0.00  0.00    +0.000 NA
ATOM     27  N   UNL     1      12.333  15.886  19.971  0.00  0.00    +0.000 NA
ATOM     28  C   UNL     1      12.131  16.761  19.011  0.00  0.00    +0.000 A 
ATOM     29  N   UNL     1      10.967  16.469  18.365  0.00  0.00    +0.000 N 
ATOM     30  C   UNL     1      10.399  17.214  17.273  0.00  0.00    +0.000 C 
ENDBRANCH  24  25
ENDBRANCH  22  24
ENDBRANCH  20  22
ENDBRANCH   3  16
TORSDOF 6
ENDMDL
MODEL 8
REMARK VINA RESULT:      -7.8      4.304     10.978
REMARK  Name = 
REMARK  9 active torsions:
REMARK  status: ('A' for Active; 'I' for Inactive)
REMARK    1  A    between atoms: C_1  and  C_2
REMARK    2  A    between atoms: N_4  and  C_5
REMARK    3  A    between atoms: C_9  and  C_10
REMARK    4  A    between atoms: N_12  and  C_13
REMARK    5  A    between atoms: C_17  and  C_18
REMARK    6  A    between atoms: C_18  and  C_19
REMARK    7  A    between atoms: C_18  and  S_20
REMARK    8  A    between atoms: S_20  and  C_21
REMARK    9  A    between atoms: N_25  and  C_26
REMARK                            x       y       z     vdW  Elec       q    Type
REMARK                         _______ _______ _______ _____ _____    ______ ____
ROOT
ATOM      1  C   UNL     1       1.834   8.951  18.225  0.00  0.00    +0.000 C 
ATOM      2  O   UNL     1       2.188   9.821  17.432  0.00  0.00    +0.000 OA
ATOM      3  N   UNL     1       0.741   9.003  19.080  0.00  0.00    +0.000 N 
ATOM      4  H   UNL     1       0.688   8.244  19.755  0.00  0.00    +0.000 HD
ENDROOT
BRANCH   1   9
ATOM      5  C   UNL     1       3.207   5.677  19.485  0.00  0.00    +0.000 A 
ATOM      6  C   UNL     1       4.268   5.528  18.596  0.00  0.00    +0.000 A 
ATOM      7  C   UNL     1       4.467   6.490  17.616  0.00  0.00    +0.000 A 
ATOM      8  N   UNL     1       3.691   7.585  17.460  0.00  0.00    +0.000 NA
ATOM      9  C   UNL     1       2.659   7.706  18.337  0.00  0.00    +0.000 A 
ATOM     10  C   UNL     1       2.365   6.774  19.333  0.00  0.00    +0.000 A 
BRANCH   5  14
ATOM     11  C   UNL     1       1.941   2.994  21.831  0.00  0.00    +0.000 C 
ATOM     12  C   UNL     1       1.979   3.786  20.549  0.00  0.00    +0.000 C 
ATOM     13  O   UNL     1       1.206   3.526  19.634  0.00  0.00    +0.000 OA
ATOM     14  N   UNL     1       2.952   4.773  20.545  0.00  0.00    +0.000 N 
ATOM     15  H   UNL     1       3.618   4.766  21.310  0.00  0.00    +0.000 HD
ENDBRANCH   5  14
ENDBRANCH   1   9
BRANCH   3  16
ATOM     16  C   UNL     1      -0.183  10.065  19.184  0.00  0.00    +0.000 A 
ATOM     17  C   UNL     1      -0.979  10.467  18.110  0.00  0.00    +0.000 A 
ATOM     18  C   UNL     1      -1.834  11.560  18.225  0.00  0.00    +0.000 A 
ATOM     19  C   UNL     1      -1.898  12.273  19.418  0.00  0.00    +0.000 A 
ATOM     20  C   UNL     1      -1.123  11.889  20.526  0.00  0.00    +0.000 A 
ATOM     21  C   UNL     1      -0.292  10.754  20.403  0.00  0.00    +0.000 A 
BRANCH  20  22
ATOM     22  C   UNL     1      -1.133  12.717  21.811  0.00  0.00    +0.000 C 
ATOM     23  C   UNL     1      -1.432  11.842  23.034  0.00  0.00    +0.000 C 
BRANCH  22  24
ATOM     24  S   UNL     1      -2.374  14.074  21.649  0.00  0.00    +0.000 S 
BRANCH  24  25
ATOM     25  C   UNL     1      -3.742  13.412  22.461  0.00  0.00    +0.000 A 
ATOM     26  N   UNL     1      -4.612  12.556  21.978  0.00  0.00    +0.000 NA
ATOM     27  N   UNL     1      -5.551  12.316  22.959  0.00  0.00    +0.000 NA
ATOM     28  C   UNL     1      -5.218  13.031  24.010  0.00  0.00    +0.000 A 
ATOM     29  N   UNL     1      -4.083  13.736  23.743  0.00  0.00    +0.000 N 
ATOM     30  C   UNL     1      -3.426  14.648  24.640  0.00  0.00    +0.000 C 
ENDBRANCH  24  25
ENDBRANCH  22  24
ENDBRANCH  20  22
ENDBRANCH   3  16
TORSDOF 6
ENDMDL
MODEL 9
REMARK VINA RESULT:      -7.8      5.973      9.515
REMARK  Name = 
REMARK  9 active torsions:
REMARK  status: ('A' for Active; 'I' for Inactive)
REMARK    1  A    between atoms: C_1  and  C_2
REMARK    2  A    between atoms: N_4  and  C_5
REMARK    3  A    between atoms: C_9  and  C_10
REMARK    4  A    between atoms: N_12  and  C_13
REMARK    5  A    between atoms: C_17  and  C_18
REMARK    6  A    between atoms: C_18  and  C_19
REMARK    7  A    between atoms: C_18  and  S_20
REMARK    8  A    between atoms: S_20  and  C_21
REMARK    9  A    between atoms: N_25  and  C_26
REMARK                            x       y       z     vdW  Elec       q    Type
REMARK                         _______ _______ _______ _____ _____    ______ ____
ROOT
ATOM      1  C   UNL     1       7.896   7.403  18.148  0.00  0.00    +0.000 C 
ATOM      2  O   UNL     1       8.529   6.897  19.073  0.00  0.00    +0.000 OA
ATOM      3  N   UNL     1       7.899   8.741  17.776  0.00  0.00    +0.000 N 
ATOM      4  H   UNL     1       7.209   8.991  17.070  0.00  0.00    +0.000 HD
ENDROOT
BRANCH   1   9
ATOM      5  C   UNL     1       5.059   5.121  17.182  0.00  0.00    +0.000 A 
ATOM      6  C   UNL     1       5.449   4.828  15.877  0.00  0.00    +0.000 A 
ATOM      7  C   UNL     1       6.604   5.409  15.372  0.00  0.00    +0.000 A 
ATOM      8  N   UNL     1       7.395   6.253  16.068  0.00  0.00    +0.000 NA
ATOM      9  C   UNL     1       6.992   6.528  17.337  0.00  0.00    +0.000 A 
ATOM     10  C   UNL     1       5.830   6.015  17.918  0.00  0.00    +0.000 A 
BRANCH   5  14
ATOM     11  C   UNL     1       1.724   4.322  18.777  0.00  0.00    +0.000 C 
ATOM     12  C   UNL     1       2.746   5.206  18.107  0.00  0.00    +0.000 C 
ATOM     13  O   UNL     1       2.494   6.383  17.876  0.00  0.00    +0.000 OA
ATOM     14  N   UNL     1       3.923   4.543  17.799  0.00  0.00    +0.000 N 
ATOM     15  H   UNL     1       3.926   3.534  17.909  0.00  0.00    +0.000 HD
ENDBRANCH   5  14
ENDBRANCH   1   9
BRANCH   3  16
ATOM     16  C   UNL     1       8.647   9.772  18.384  0.00  0.00    +0.000 A 
ATOM     17  C   UNL     1       9.024   9.725  19.727  0.00  0.00    +0.000 A 
ATOM     18  C   UNL     1       9.706  10.788  20.315  0.00  0.00    +0.000 A 
ATOM     19  C   UNL     1      10.012  11.919  19.565  0.00  0.00    +0.000 A 
ATOM     20  C   UNL     1       9.661  11.997  18.206  0.00  0.00    +0.000 A 
ATOM     21  C   UNL     1       9.007  10.892  17.617  0.00  0.00    +0.000 A 
BRANCH  20  22
ATOM     22  C   UNL     1       9.928  13.269  17.402  0.00  0.00    +0.000 C 
ATOM     23  C   UNL     1      11.326  13.247  16.773  0.00  0.00    +0.000 C 
BRANCH  22  24
ATOM     24  S   UNL     1       9.719  14.737  18.501  0.00  0.00    +0.000 S 
BRANCH  24  25
ATOM     25  C   UNL     1       8.004  14.896  18.571  0.00  0.00    +0.000 A 
ATOM     26  N   UNL     1       7.180  15.038  17.559  0.00  0.00    +0.000 NA
ATOM     27  N   UNL     1       5.905  15.150  18.072  0.00  0.00    +0.000 NA
ATOM     28  C   UNL     1       5.994  15.067  19.380  0.00  0.00    +0.000 A 
ATOM     29  N   UNL     1       7.298  14.904  19.740  0.00  0.00    +0.000 N 
ATOM     30  C   UNL     1       7.795  14.797  21.085  0.00  0.00    +0.000 C 
ENDBRANCH  24  25
ENDBRANCH  22  24
ENDBRANCH  20  22
ENDBRANCH   3  16
TORSDOF 6
ENDMDL
