MODEL 1
REMARK VINA RESULT:      -7.3      0.000      0.000
REMARK  Name = 
REMARK  1 active torsions:
REMARK  status: ('A' for Active; 'I' for Inactive)
REMARK    1  A    between atoms: C_4  and  C_5
REMARK                            x       y       z     vdW  Elec       q    Type
REMARK                         _______ _______ _______ _____ _____    ______ ____
ROOT
ATOM      1  C   UNL     1       5.797   4.400  15.938  0.00  0.00    +0.000 A 
ATOM      2  C   UNL     1       6.667   4.694  16.968  0.00  0.00    +0.000 A 
ATOM      3  S   UNL     1       5.833   4.746  18.450  0.00  0.00    +0.000 S 
ATOM      4  C   UNL     1       4.348   4.371  17.636  0.00  0.00    +0.000 A 
ATOM      5  N   UNL     1       3.182   4.230  18.322  0.00  0.00    +0.000 N 
ATOM      6  C   UNL     1       2.130   3.338  17.832  0.00  0.00    +0.000 C 
ATOM      7  C   UNL     1       1.740   2.336  18.931  0.00  0.00    +0.000 C 
ATOM      8  S   UNL     1       1.142   3.144  20.464  0.00  0.00    +0.000 S 
ATOM      9  C   UNL     1       2.528   4.314  20.695  0.00  0.00    +0.000 C 
ATOM     10  C   UNL     1       2.812   5.118  19.424  0.00  0.00    +0.000 C 
ATOM     11  N   UNL     1       4.483   4.189  16.337  0.00  0.00    +0.000 NA
ENDROOT
BRANCH   1  15
ATOM     12  C   UNL     1       7.156   4.207  11.896  0.00  0.00    +0.000 A 
ATOM     13  C   UNL     1       6.042   3.470  12.286  0.00  0.00    +0.000 A 
ATOM     14  C   UNL     1       5.569   3.560  13.599  0.00  0.00    +0.000 A 
ATOM     15  C   UNL     1       6.215   4.381  14.539  0.00  0.00    +0.000 A 
ATOM     16  C   UNL     1       7.316   5.141  14.124  0.00  0.00    +0.000 A 
ATOM     17  C   UNL     1       7.788   5.048  12.810  0.00  0.00    +0.000 A 
ENDBRANCH   1  15
TORSDOF 1
ENDMDL
MODEL 2
REMARK VINA RESULT:      -7.2      0.271      1.200
REMARK  Name = 
REMARK  1 active torsions:
REMARK  status: ('A' for Active; 'I' for Inactive)
REMARK    1  A    between atoms: C_4  and  C_5
REMARK                            x       y       z     vdW  Elec       q    Type
REMARK                         _______ _______ _______ _____ _____    ______ ____
ROOT
ATOM      1  C   UNL     1       5.964   4.405  15.905  0.00  0.00    +0.000 A 
ATOM      2  C   UNL     1       6.813   4.628  16.970  0.00  0.00    +0.000 A 
ATOM      3  S   UNL     1       5.926   4.754  18.417  0.00  0.00    +0.000 S 
ATOM      4  C   UNL     1       4.449   4.505  17.541  0.00  0.00    +0.000 A 
ATOM      5  N   UNL     1       3.248   4.465  18.179  0.00  0.00    +0.000 N 
ATOM      6  C   UNL     1       2.146   3.664  17.646  0.00  0.00    +0.000 C 
ATOM      7  C   UNL     1       1.627   2.702  18.727  0.00  0.00    +0.000 C 
ATOM      8  S   UNL     1       1.037   3.563  20.234  0.00  0.00    +0.000 S 
ATOM      9  C   UNL     1       2.507   4.612  20.523  0.00  0.00    +0.000 C 
ATOM     10  C   UNL     1       2.909   5.385  19.265  0.00  0.00    +0.000 C 
ATOM     11  N   UNL     1       4.622   4.307  16.249  0.00  0.00    +0.000 NA
ENDROOT
BRANCH   1  15
ATOM     12  C   UNL     1       7.195   4.360  11.818  0.00  0.00    +0.000 A 
ATOM     13  C   UNL     1       7.841   5.195  12.724  0.00  0.00    +0.000 A 
ATOM     14  C   UNL     1       7.468   5.185  14.072  0.00  0.00    +0.000 A 
ATOM     15  C   UNL     1       6.436   4.346  14.524  0.00  0.00    +0.000 A 
ATOM     16  C   UNL     1       5.816   3.488  13.607  0.00  0.00    +0.000 A 
ATOM     17  C   UNL     1       6.190   3.500  12.259  0.00  0.00    +0.000 A 
ENDBRANCH   1  15
TORSDOF 1
ENDMDL
MODEL 3
REMARK VINA RESULT:      -7.2      1.155      1.685
REMARK  Name = 
REMARK  1 active torsions:
REMARK  status: ('A' for Active; 'I' for Inactive)
REMARK    1  A    between atoms: C_4  and  C_5
REMARK                            x       y       z     vdW  Elec       q    Type
REMARK                         _______ _______ _______ _____ _____    ______ ____
ROOT
ATOM      1  C   UNL     1       5.289   4.969  15.693  0.00  0.00    +0.000 A 
ATOM      2  C   UNL     1       5.229   6.271  16.145  0.00  0.00    +0.000 A 
ATOM      3  S   UNL     1       4.278   6.366  17.552  0.00  0.00    +0.000 S 
ATOM      4  C   UNL     1       3.993   4.656  17.484  0.00  0.00    +0.000 A 
ATOM      5  N   UNL     1       3.250   4.025  18.432  0.00  0.00    +0.000 N 
ATOM      6  C   UNL     1       3.508   2.626  18.775  0.00  0.00    +0.000 C 
ATOM      7  C   UNL     1       3.735   2.493  20.290  0.00  0.00    +0.000 C 
ATOM      8  S   UNL     1       2.312   3.077  21.287  0.00  0.00    +0.000 S 
ATOM      9  C   UNL     1       2.101   4.714  20.499  0.00  0.00    +0.000 C 
ATOM     10  C   UNL     1       2.021   4.605  18.974  0.00  0.00    +0.000 C 
ATOM     11  N   UNL     1       4.604   4.053  16.483  0.00  0.00    +0.000 NA
ENDROOT
BRANCH   1  15
ATOM     12  C   UNL     1       7.137   4.023  11.963  0.00  0.00    +0.000 A 
ATOM     13  C   UNL     1       7.764   4.902  12.842  0.00  0.00    +0.000 A 
ATOM     14  C   UNL     1       7.182   5.185  14.081  0.00  0.00    +0.000 A 
ATOM     15  C   UNL     1       5.960   4.599  14.450  0.00  0.00    +0.000 A 
ATOM     16  C   UNL     1       5.356   3.692  13.569  0.00  0.00    +0.000 A 
ATOM     17  C   UNL     1       5.939   3.411  12.329  0.00  0.00    +0.000 A 
ENDBRANCH   1  15
TORSDOF 1
ENDMDL
MODEL 4
REMARK VINA RESULT:      -7.0      1.181      1.223
REMARK  Name = 
REMARK  1 active torsions:
REMARK  status: ('A' for Active; 'I' for Inactive)
REMARK    1  A    between atoms: C_4  and  C_5
REMARK                            x       y       z     vdW  Elec       q    Type
REMARK                         _______ _______ _______ _____ _____    ______ ____
ROOT
ATOM      1  C   UNL     1       5.240   5.006  15.675  0.00  0.00    +0.000 A 
ATOM      2  C   UNL     1       5.222   6.290  16.178  0.00  0.00    +0.000 A 
ATOM      3  S   UNL     1       4.326   6.347  17.623  0.00  0.00    +0.000 S 
ATOM      4  C   UNL     1       4.008   4.646  17.501  0.00  0.00    +0.000 A 
ATOM      5  N   UNL     1       3.289   3.991  18.452  0.00  0.00    +0.000 N 
ATOM      6  C   UNL     1       3.534   2.577  18.732  0.00  0.00    +0.000 C 
ATOM      7  C   UNL     1       3.816   2.381  20.231  0.00  0.00    +0.000 C 
ATOM      8  S   UNL     1       2.442   2.950  21.302  0.00  0.00    +0.000 S 
ATOM      9  C   UNL     1       2.232   4.620  20.586  0.00  0.00    +0.000 C 
ATOM     10  C   UNL     1       2.092   4.571  19.063  0.00  0.00    +0.000 C 
ATOM     11  N   UNL     1       4.569   4.072  16.454  0.00  0.00    +0.000 NA
ENDROOT
BRANCH   1  15
ATOM     12  C   UNL     1       7.153   3.892  12.024  0.00  0.00    +0.000 A 
ATOM     13  C   UNL     1       5.900   3.371  12.335  0.00  0.00    +0.000 A 
ATOM     14  C   UNL     1       5.252   3.763  13.510  0.00  0.00    +0.000 A 
ATOM     15  C   UNL     1       5.857   4.672  14.394  0.00  0.00    +0.000 A 
ATOM     16  C   UNL     1       7.104   5.213  14.053  0.00  0.00    +0.000 A 
ATOM     17  C   UNL     1       7.751   4.819  12.877  0.00  0.00    +0.000 A 
ENDBRANCH   1  15
TORSDOF 1
ENDMDL
MODEL 5
REMARK VINA RESULT:      -6.4      4.663      8.495
REMARK  Name = 
REMARK  1 active torsions:
REMARK  status: ('A' for Active; 'I' for Inactive)
REMARK    1  A    between atoms: C_4  and  C_5
REMARK                            x       y       z     vdW  Elec       q    Type
REMARK                         _______ _______ _______ _____ _____    ______ ____
ROOT
ATOM      1  C   UNL     1       1.143   8.672  20.198  0.00  0.00    +0.000 A 
ATOM      2  C   UNL     1       1.534   9.015  18.920  0.00  0.00    +0.000 A 
ATOM      3  S   UNL     1       2.522   7.799  18.257  0.00  0.00    +0.000 S 
ATOM      4  C   UNL     1       2.377   6.875  19.718  0.00  0.00    +0.000 A 
ATOM      5  N   UNL     1       2.972   5.658  19.847  0.00  0.00    +0.000 N 
ATOM      6  C   UNL     1       2.390   4.629  20.708  0.00  0.00    +0.000 C 
ATOM      7  C   UNL     1       2.183   3.333  19.908  0.00  0.00    +0.000 C 
ATOM      8  S   UNL     1       3.736   2.673  19.191  0.00  0.00    +0.000 S 
ATOM      9  C   UNL     1       4.318   4.206  18.381  0.00  0.00    +0.000 C 
ATOM     10  C   UNL     1       4.322   5.393  19.348  0.00  0.00    +0.000 C 
ATOM     11  N   UNL     1       1.606   7.435  20.630  0.00  0.00    +0.000 NA
ENDROOT
BRANCH   1  15
ATOM     12  C   UNL     1      -0.963  11.345  22.776  0.00  0.00    +0.000 A 
ATOM     13  C   UNL     1      -0.609  11.757  21.495  0.00  0.00    +0.000 A 
ATOM     14  C   UNL     1       0.047  10.872  20.633  0.00  0.00    +0.000 A 
ATOM     15  C   UNL     1       0.364   9.568  21.048  0.00  0.00    +0.000 A 
ATOM     16  C   UNL     1      -0.027   9.157  22.329  0.00  0.00    +0.000 A 
ATOM     17  C   UNL     1      -0.682  10.044  23.191  0.00  0.00    +0.000 A 
ENDBRANCH   1  15
TORSDOF 1
ENDMDL
MODEL 6
REMARK VINA RESULT:      -6.4      4.642      8.464
REMARK  Name = 
REMARK  1 active torsions:
REMARK  status: ('A' for Active; 'I' for Inactive)
REMARK    1  A    between atoms: C_4  and  C_5
REMARK                            x       y       z     vdW  Elec       q    Type
REMARK                         _______ _______ _______ _____ _____    ______ ____
ROOT
ATOM      1  C   UNL     1       1.180   8.653  20.221  0.00  0.00    +0.000 A 
ATOM      2  C   UNL     1       1.546   8.984  18.933  0.00  0.00    +0.000 A 
ATOM      3  S   UNL     1       2.507   7.754  18.257  0.00  0.00    +0.000 S 
ATOM      4  C   UNL     1       2.385   6.840  19.727  0.00  0.00    +0.000 A 
ATOM      5  N   UNL     1       2.971   5.619  19.851  0.00  0.00    +0.000 N 
ATOM      6  C   UNL     1       2.397   4.601  20.732  0.00  0.00    +0.000 C 
ATOM      7  C   UNL     1       2.160   3.302  19.945  0.00  0.00    +0.000 C 
ATOM      8  S   UNL     1       3.691   2.622  19.200  0.00  0.00    +0.000 S 
ATOM      9  C   UNL     1       4.269   4.144  18.367  0.00  0.00    +0.000 C 
ATOM     10  C   UNL     1       4.306   5.337  19.325  0.00  0.00    +0.000 C 
ATOM     11  N   UNL     1       1.640   7.415  20.651  0.00  0.00    +0.000 NA
ENDROOT
BRANCH   1  15
ATOM     12  C   UNL     1      -1.187  11.225  22.673  0.00  0.00    +0.000 A 
ATOM     13  C   UNL     1      -0.611  10.084  23.223  0.00  0.00    +0.000 A 
ATOM     14  C   UNL     1       0.197   9.259  22.434  0.00  0.00    +0.000 A 
ATOM     15  C   UNL     1       0.428   9.562  21.082  0.00  0.00    +0.000 A 
ATOM     16  C   UNL     1      -0.132  10.731  20.550  0.00  0.00    +0.000 A 
ATOM     17  C   UNL     1      -0.941  11.555  21.341  0.00  0.00    +0.000 A 
ENDBRANCH   1  15
TORSDOF 1
ENDMDL
MODEL 7
REMARK VINA RESULT:      -6.1      3.839      5.347
REMARK  Name = 
REMARK  1 active torsions:
REMARK  status: ('A' for Active; 'I' for Inactive)
REMARK    1  A    between atoms: C_4  and  C_5
REMARK                            x       y       z     vdW  Elec       q    Type
REMARK                         _______ _______ _______ _____ _____    ______ ____
ROOT
ATOM      1  C   UNL     1       3.009   6.107  18.688  0.00  0.00    +0.000 A 
ATOM      2  C   UNL     1       2.518   5.192  19.597  0.00  0.00    +0.000 A 
ATOM      3  S   UNL     1       1.604   5.980  20.796  0.00  0.00    +0.000 S 
ATOM      4  C   UNL     1       1.914   7.509  20.036  0.00  0.00    +0.000 A 
ATOM      5  N   UNL     1       1.393   8.664  20.533  0.00  0.00    +0.000 N 
ATOM      6  C   UNL     1       1.086   9.787  19.647  0.00  0.00    +0.000 C 
ATOM      7  C   UNL     1      -0.379  10.216  19.835  0.00  0.00    +0.000 C 
ATOM      8  S   UNL     1      -0.767  10.716  21.556  0.00  0.00    +0.000 S 
ATOM      9  C   UNL     1      -0.091   9.247  22.410  0.00  0.00    +0.000 C 
ATOM     10  C   UNL     1       1.342   8.943  21.968  0.00  0.00    +0.000 C 
ATOM     11  N   UNL     1       2.632   7.421  18.933  0.00  0.00    +0.000 NA
ENDROOT
BRANCH   1  15
ATOM     12  C   UNL     1       5.472   4.986  15.386  0.00  0.00    +0.000 A 
ATOM     13  C   UNL     1       5.315   6.332  15.706  0.00  0.00    +0.000 A 
ATOM     14  C   UNL     1       4.541   6.702  16.810  0.00  0.00    +0.000 A 
ATOM     15  C   UNL     1       3.906   5.729  17.600  0.00  0.00    +0.000 A 
ATOM     16  C   UNL     1       4.099   4.377  17.286  0.00  0.00    +0.000 A 
ATOM     17  C   UNL     1       4.873   4.009  16.180  0.00  0.00    +0.000 A 
ENDBRANCH   1  15
TORSDOF 1
ENDMDL
MODEL 8
REMARK VINA RESULT:      -6.1      3.861      5.301
REMARK  Name = 
REMARK  1 active torsions:
REMARK  status: ('A' for Active; 'I' for Inactive)
REMARK    1  A    between atoms: C_4  and  C_5
REMARK                            x       y       z     vdW  Elec       q    Type
REMARK                         _______ _______ _______ _____ _____    ______ ____
ROOT
ATOM      1  C   UNL     1       2.907   6.107  18.689  0.00  0.00    +0.000 A 
ATOM      2  C   UNL     1       2.446   5.197  19.618  0.00  0.00    +0.000 A 
ATOM      3  S   UNL     1       1.582   5.995  20.848  0.00  0.00    +0.000 S 
ATOM      4  C   UNL     1       1.871   7.520  20.072  0.00  0.00    +0.000 A 
ATOM      5  N   UNL     1       1.376   8.678  20.585  0.00  0.00    +0.000 N 
ATOM      6  C   UNL     1       1.041   9.800  19.708  0.00  0.00    +0.000 C 
ATOM      7  C   UNL     1      -0.413  10.238  19.949  0.00  0.00    +0.000 C 
ATOM      8  S   UNL     1      -0.734  10.746  21.681  0.00  0.00    +0.000 S 
ATOM      9  C   UNL     1      -0.034   9.275  22.514  0.00  0.00    +0.000 C 
ATOM     10  C   UNL     1       1.380   8.962  22.020  0.00  0.00    +0.000 C 
ATOM     11  N   UNL     1       2.547   7.425  18.944  0.00  0.00    +0.000 NA
ENDROOT
BRANCH   1  15
ATOM     12  C   UNL     1       5.561   4.989  15.538  0.00  0.00    +0.000 A 
ATOM     13  C   UNL     1       4.858   4.007  16.230  0.00  0.00    +0.000 A 
ATOM     14  C   UNL     1       3.959   4.371  17.237  0.00  0.00    +0.000 A 
ATOM     15  C   UNL     1       3.761   5.721  17.568  0.00  0.00    +0.000 A 
ATOM     16  C   UNL     1       4.452   6.700  16.842  0.00  0.00    +0.000 A 
ATOM     17  C   UNL     1       5.352   6.334  15.836  0.00  0.00    +0.000 A 
ENDBRANCH   1  15
TORSDOF 1
ENDMDL
MODEL 9
REMARK VINA RESULT:      -6.1      3.336      4.907
REMARK  Name = 
REMARK  1 active torsions:
REMARK  status: ('A' for Active; 'I' for Inactive)
REMARK    1  A    between atoms: C_4  and  C_5
REMARK                            x       y       z     vdW  Elec       q    Type
REMARK                         _______ _______ _______ _____ _____    ______ ____
ROOT
ATOM      1  C   UNL     1       3.730   5.485  18.667  0.00  0.00    +0.000 A 
ATOM      2  C   UNL     1       3.011   4.650  19.497  0.00  0.00    +0.000 A 
ATOM      3  S   UNL     1       1.848   5.538  20.365  0.00  0.00    +0.000 S 
ATOM      4  C   UNL     1       2.368   6.997  19.584  0.00  0.00    +0.000 A 
ATOM      5  N   UNL     1       1.766   8.190  19.842  0.00  0.00    +0.000 N 
ATOM      6  C   UNL     1       1.711   9.235  18.820  0.00  0.00    +0.000 C 
ATOM      7  C   UNL     1       0.254   9.680  18.606  0.00  0.00    +0.000 C 
ATOM      8  S   UNL     1      -0.534  10.323  20.130  0.00  0.00    +0.000 S 
ATOM      9  C   UNL     1      -0.121   8.930  21.241  0.00  0.00    +0.000 C 
ATOM     10  C   UNL     1       1.370   8.588  21.193  0.00  0.00    +0.000 C 
ATOM     11  N   UNL     1       3.333   6.816  18.704  0.00  0.00    +0.000 NA
ENDROOT
BRANCH   1  15
ATOM     12  C   UNL     1       7.029   4.292  16.235  0.00  0.00    +0.000 A 
ATOM     13  C   UNL     1       7.258   4.788  17.515  0.00  0.00    +0.000 A 
ATOM     14  C   UNL     1       6.179   5.144  18.330  0.00  0.00    +0.000 A 
ATOM     15  C   UNL     1       4.859   5.016  17.868  0.00  0.00    +0.000 A 
ATOM     16  C   UNL     1       4.642   4.486  16.589  0.00  0.00    +0.000 A 
ATOM     17  C   UNL     1       5.723   4.132  15.775  0.00  0.00    +0.000 A 
ENDBRANCH   1  15
TORSDOF 1
ENDMDL
