MODEL 1
REMARK VINA RESULT:      -7.2      0.000      0.000
REMARK  Name = 
REMARK  7 active torsions:
REMARK  status: ('A' for Active; 'I' for Inactive)
REMARK    1  A    between atoms: C_1  and  O_2
REMARK    2  A    between atoms: O_2  and  C_3
REMARK    3  A    between atoms: C_5  and  C_6
REMARK    4  A    between atoms: C_6  and  C_7
REMARK    5  A    between atoms: C_7  and  C_8
REMARK    6  A    between atoms: C_10  and  C_11
REMARK    7  A    between atoms: C_16  and  O_17
REMARK                            x       y       z     vdW  Elec       q    Type
REMARK                         _______ _______ _______ _____ _____    ______ ____
ROOT
ATOM      1  C   UNL     1       2.377   3.182  19.237  0.00  0.00    +0.000 A 
ATOM      2  C   UNL     1       3.264   4.001  18.516  0.00  0.00    +0.000 A 
ATOM      3  C   UNL     1       3.377   5.379  18.770  0.00  0.00    +0.000 A 
ATOM      4  C   UNL     1       2.548   5.935  19.750  0.00  0.00    +0.000 A 
ATOM      5  C   UNL     1       1.666   5.135  20.477  0.00  0.00    +0.000 A 
ATOM      6  C   UNL     1       1.580   3.764  20.224  0.00  0.00    +0.000 A 
ENDROOT
BRANCH   1   8
ATOM      7  C   UNL     1       3.653   1.366  18.343  0.00  0.00    +0.000 C 
ATOM      8  O   UNL     1       2.424   1.869  18.846  0.00  0.00    +0.000 OA
ENDBRANCH   1   8
BRANCH   6   9
ATOM      9  O   UNL     1       0.696   3.030  20.965  0.00  0.00    +0.000 OA
ATOM     10  H   UNL     1       1.161   2.273  21.358  0.00  0.00    +0.000 HD
ENDBRANCH   6   9
BRANCH   3  11
ATOM     11  C   UNL     1       4.328   6.218  17.939  0.00  0.00    +0.000 C 
BRANCH  11  12
ATOM     12  C   UNL     1       5.772   5.697  17.895  0.00  0.00    +0.000 C 
BRANCH  12  13
ATOM     13  C   UNL     1       6.191   5.280  16.528  0.00  0.00    +0.000 A 
ATOM     14  C   UNL     1       5.629   4.404  15.627  0.00  0.00    +0.000 A 
ATOM     15  C   UNL     1       6.450   4.474  14.480  0.00  0.00    +0.000 A 
ATOM     16  C   UNL     1       6.292   3.750  13.196  0.00  0.00    +0.000 C 
ATOM     17  N   UNL     1       7.466   5.328  14.655  0.00  0.00    +0.000 NA
ATOM     18  N   UNL     1       7.287   5.802  15.897  0.00  0.00    +0.000 N 
ATOM     19  H   UNL     1       7.944   6.491  16.245  0.00  0.00    +0.000 HD
ENDBRANCH  12  13
ENDBRANCH  11  12
ENDBRANCH   3  11
TORSDOF 5
ENDMDL
MODEL 2
REMARK VINA RESULT:      -6.8      1.345      1.539
REMARK  Name = 
REMARK  7 active torsions:
REMARK  status: ('A' for Active; 'I' for Inactive)
REMARK    1  A    between atoms: C_1  and  O_2
REMARK    2  A    between atoms: O_2  and  C_3
REMARK    3  A    between atoms: C_5  and  C_6
REMARK    4  A    between atoms: C_6  and  C_7
REMARK    5  A    between atoms: C_7  and  C_8
REMARK    6  A    between atoms: C_10  and  C_11
REMARK    7  A    between atoms: C_16  and  O_17
REMARK                            x       y       z     vdW  Elec       q    Type
REMARK                         _______ _______ _______ _____ _____    ______ ____
ROOT
ATOM      1  C   UNL     1       3.487   2.818  18.859  0.00  0.00    +0.000 A 
ATOM      2  C   UNL     1       4.089   4.029  18.474  0.00  0.00    +0.000 A 
ATOM      3  C   UNL     1       3.349   5.079  17.903  0.00  0.00    +0.000 A 
ATOM      4  C   UNL     1       1.981   4.878  17.690  0.00  0.00    +0.000 A 
ATOM      5  C   UNL     1       1.368   3.684  18.071  0.00  0.00    +0.000 A 
ATOM      6  C   UNL     1       2.115   2.658  18.653  0.00  0.00    +0.000 A 
ENDROOT
BRANCH   1   8
ATOM      7  C   UNL     1       4.499   1.888  20.817  0.00  0.00    +0.000 C 
ATOM      8  O   UNL     1       4.375   1.928  19.402  0.00  0.00    +0.000 OA
ENDBRANCH   1   8
BRANCH   6   9
ATOM      9  O   UNL     1       1.462   1.509  19.004  0.00  0.00    +0.000 OA
ATOM     10  H   UNL     1       0.680   1.401  18.439  0.00  0.00    +0.000 HD
ENDBRANCH   6   9
BRANCH   3  11
ATOM     11  C   UNL     1       4.058   6.350  17.479  0.00  0.00    +0.000 C 
BRANCH  11  12
ATOM     12  C   UNL     1       5.591   6.258  17.474  0.00  0.00    +0.000 C 
BRANCH  12  13
ATOM     13  C   UNL     1       6.127   5.655  16.221  0.00  0.00    +0.000 A 
ATOM     14  C   UNL     1       5.538   4.852  15.269  0.00  0.00    +0.000 A 
ATOM     15  C   UNL     1       6.534   4.653  14.287  0.00  0.00    +0.000 A 
ATOM     16  C   UNL     1       6.432   3.882  13.026  0.00  0.00    +0.000 C 
ATOM     17  N   UNL     1       7.673   5.279  14.607  0.00  0.00    +0.000 NA
ATOM     18  N   UNL     1       7.401   5.877  15.777  0.00  0.00    +0.000 N 
ATOM     19  H   UNL     1       8.130   6.434  16.210  0.00  0.00    +0.000 HD
ENDBRANCH  12  13
ENDBRANCH  11  12
ENDBRANCH   3  11
TORSDOF 5
ENDMDL
MODEL 3
REMARK VINA RESULT:      -6.8      3.677      5.960
REMARK  Name = 
REMARK  7 active torsions:
REMARK  status: ('A' for Active; 'I' for Inactive)
REMARK    1  A    between atoms: C_1  and  O_2
REMARK    2  A    between atoms: O_2  and  C_3
REMARK    3  A    between atoms: C_5  and  C_6
REMARK    4  A    between atoms: C_6  and  C_7
REMARK    5  A    between atoms: C_7  and  C_8
REMARK    6  A    between atoms: C_10  and  C_11
REMARK    7  A    between atoms: C_16  and  O_17
REMARK                            x       y       z     vdW  Elec       q    Type
REMARK                         _______ _______ _______ _____ _____    ______ ____
ROOT
ATOM      1  C   UNL     1       6.255   5.267  16.358  0.00  0.00    +0.000 A 
ATOM      2  C   UNL     1       5.001   5.855  16.604  0.00  0.00    +0.000 A 
ATOM      3  C   UNL     1       4.452   5.921  17.897  0.00  0.00    +0.000 A 
ATOM      4  C   UNL     1       5.176   5.349  18.947  0.00  0.00    +0.000 A 
ATOM      5  C   UNL     1       6.423   4.766  18.721  0.00  0.00    +0.000 A 
ATOM      6  C   UNL     1       6.963   4.725  17.433  0.00  0.00    +0.000 A 
ENDROOT
BRANCH   1   8
ATOM      7  C   UNL     1       6.308   4.187  14.224  0.00  0.00    +0.000 C 
ATOM      8  O   UNL     1       6.616   5.310  15.037  0.00  0.00    +0.000 OA
ENDBRANCH   1   8
BRANCH   6   9
ATOM      9  O   UNL     1       8.188   4.139  17.270  0.00  0.00    +0.000 OA
ATOM     10  H   UNL     1       8.844   4.619  17.800  0.00  0.00    +0.000 HD
ENDBRANCH   6   9
BRANCH   3  11
ATOM     11  C   UNL     1       3.082   6.539  18.096  0.00  0.00    +0.000 C 
BRANCH  11  12
ATOM     12  C   UNL     1       1.905   5.585  17.845  0.00  0.00    +0.000 C 
BRANCH  12  13
ATOM     13  C   UNL     1       1.857   4.461  18.821  0.00  0.00    +0.000 A 
ATOM     14  C   UNL     1       1.650   4.441  20.183  0.00  0.00    +0.000 A 
ATOM     15  C   UNL     1       1.658   3.075  20.539  0.00  0.00    +0.000 A 
ATOM     16  C   UNL     1       1.458   2.478  21.881  0.00  0.00    +0.000 C 
ATOM     17  N   UNL     1       1.867   2.291  19.474  0.00  0.00    +0.000 NA
ATOM     18  N   UNL     1       1.982   3.150  18.450  0.00  0.00    +0.000 N 
ATOM     19  H   UNL     1       2.133   2.771  17.522  0.00  0.00    +0.000 HD
ENDBRANCH  12  13
ENDBRANCH  11  12
ENDBRANCH   3  11
TORSDOF 5
ENDMDL
MODEL 4
REMARK VINA RESULT:      -6.7      3.802      6.047
REMARK  Name = 
REMARK  7 active torsions:
REMARK  status: ('A' for Active; 'I' for Inactive)
REMARK    1  A    between atoms: C_1  and  O_2
REMARK    2  A    between atoms: O_2  and  C_3
REMARK    3  A    between atoms: C_5  and  C_6
REMARK    4  A    between atoms: C_6  and  C_7
REMARK    5  A    between atoms: C_7  and  C_8
REMARK    6  A    between atoms: C_10  and  C_11
REMARK    7  A    between atoms: C_16  and  O_17
REMARK                            x       y       z     vdW  Elec       q    Type
REMARK                         _______ _______ _______ _____ _____    ______ ____
ROOT
ATOM      1  C   UNL     1       6.796   5.348  16.540  0.00  0.00    +0.000 A 
ATOM      2  C   UNL     1       5.584   6.054  16.635  0.00  0.00    +0.000 A 
ATOM      3  C   UNL     1       4.874   6.154  17.844  0.00  0.00    +0.000 A 
ATOM      4  C   UNL     1       5.391   5.496  18.964  0.00  0.00    +0.000 A 
ATOM      5  C   UNL     1       6.595   4.794  18.888  0.00  0.00    +0.000 A 
ATOM      6  C   UNL     1       7.297   4.721  17.683  0.00  0.00    +0.000 A 
ENDROOT
BRANCH   1   8
ATOM      7  C   UNL     1       6.677   4.644  14.256  0.00  0.00    +0.000 C 
ATOM      8  O   UNL     1       7.335   5.376  15.280  0.00  0.00    +0.000 OA
ENDBRANCH   1   8
BRANCH   6   9
ATOM      9  O   UNL     1       8.470   4.018  17.666  0.00  0.00    +0.000 OA
ATOM     10  H   UNL     1       9.066   4.377  18.342  0.00  0.00    +0.000 HD
ENDBRANCH   6   9
BRANCH   3  11
ATOM     11  C   UNL     1       3.556   6.903  17.878  0.00  0.00    +0.000 C 
BRANCH  11  12
ATOM     12  C   UNL     1       2.308   6.007  17.844  0.00  0.00    +0.000 C 
BRANCH  12  13
ATOM     13  C   UNL     1       2.110   5.251  19.113  0.00  0.00    +0.000 A 
ATOM     14  C   UNL     1       1.766   3.938  19.350  0.00  0.00    +0.000 A 
ATOM     15  C   UNL     1       1.792   3.797  20.755  0.00  0.00    +0.000 A 
ATOM     16  C   UNL     1       1.521   2.581  21.557  0.00  0.00    +0.000 C 
ATOM     17  N   UNL     1       2.119   4.947  21.358  0.00  0.00    +0.000 NA
ATOM     18  N   UNL     1       2.307   5.807  20.346  0.00  0.00    +0.000 N 
ATOM     19  H   UNL     1       2.583   6.757  20.571  0.00  0.00    +0.000 HD
ENDBRANCH  12  13
ENDBRANCH  11  12
ENDBRANCH   3  11
TORSDOF 5
ENDMDL
MODEL 5
REMARK VINA RESULT:      -6.7      1.102      1.102
REMARK  Name = 
REMARK  7 active torsions:
REMARK  status: ('A' for Active; 'I' for Inactive)
REMARK    1  A    between atoms: C_1  and  O_2
REMARK    2  A    between atoms: O_2  and  C_3
REMARK    3  A    between atoms: C_5  and  C_6
REMARK    4  A    between atoms: C_6  and  C_7
REMARK    5  A    between atoms: C_7  and  C_8
REMARK    6  A    between atoms: C_10  and  C_11
REMARK    7  A    between atoms: C_16  and  O_17
REMARK                            x       y       z     vdW  Elec       q    Type
REMARK                         _______ _______ _______ _____ _____    ______ ____
ROOT
ATOM      1  C   UNL     1       3.534   3.186  19.857  0.00  0.00    +0.000 A 
ATOM      2  C   UNL     1       3.927   4.061  18.829  0.00  0.00    +0.000 A 
ATOM      3  C   UNL     1       3.476   5.391  18.771  0.00  0.00    +0.000 A 
ATOM      4  C   UNL     1       2.583   5.824  19.757  0.00  0.00    +0.000 A 
ATOM      5  C   UNL     1       2.186   4.969  20.786  0.00  0.00    +0.000 A 
ATOM      6  C   UNL     1       2.659   3.656  20.838  0.00  0.00    +0.000 A 
ENDROOT
BRANCH   1   8
ATOM      7  C   UNL     1       5.033   1.533  20.721  0.00  0.00    +0.000 C 
ATOM      8  O   UNL     1       4.089   1.938  19.739  0.00  0.00    +0.000 OA
ENDBRANCH   1   8
BRANCH   6   9
ATOM      9  O   UNL     1       2.235   2.863  21.868  0.00  0.00    +0.000 OA
ATOM     10  H   UNL     1       2.073   1.966  21.534  0.00  0.00    +0.000 HD
ENDBRANCH   6   9
BRANCH   3  11
ATOM     11  C   UNL     1       3.910   6.279  17.621  0.00  0.00    +0.000 C 
BRANCH  11  12
ATOM     12  C   UNL     1       5.427   6.486  17.507  0.00  0.00    +0.000 C 
BRANCH  12  13
ATOM     13  C   UNL     1       6.014   5.799  16.323  0.00  0.00    +0.000 A 
ATOM     14  C   UNL     1       5.465   4.934  15.403  0.00  0.00    +0.000 A 
ATOM     15  C   UNL     1       6.501   4.668  14.480  0.00  0.00    +0.000 A 
ATOM     16  C   UNL     1       6.451   3.814  13.271  0.00  0.00    +0.000 C 
ATOM     17  N   UNL     1       7.627   5.315  14.806  0.00  0.00    +0.000 NA
ATOM     18  N   UNL     1       7.307   5.991  15.920  0.00  0.00    +0.000 N 
ATOM     19  H   UNL     1       8.019   6.575  16.346  0.00  0.00    +0.000 HD
ENDBRANCH  12  13
ENDBRANCH  11  12
ENDBRANCH   3  11
TORSDOF 5
ENDMDL
MODEL 6
REMARK VINA RESULT:      -6.6      1.574      2.367
REMARK  Name = 
REMARK  7 active torsions:
REMARK  status: ('A' for Active; 'I' for Inactive)
REMARK    1  A    between atoms: C_1  and  O_2
REMARK    2  A    between atoms: O_2  and  C_3
REMARK    3  A    between atoms: C_5  and  C_6
REMARK    4  A    between atoms: C_6  and  C_7
REMARK    5  A    between atoms: C_7  and  C_8
REMARK    6  A    between atoms: C_10  and  C_11
REMARK    7  A    between atoms: C_16  and  O_17
REMARK                            x       y       z     vdW  Elec       q    Type
REMARK                         _______ _______ _______ _____ _____    ______ ____
ROOT
ATOM      1  C   UNL     1       2.291   5.366  20.083  0.00  0.00    +0.000 A 
ATOM      2  C   UNL     1       2.977   4.589  19.132  0.00  0.00    +0.000 A 
ATOM      3  C   UNL     1       3.581   5.162  18.000  0.00  0.00    +0.000 A 
ATOM      4  C   UNL     1       3.455   6.543  17.817  0.00  0.00    +0.000 A 
ATOM      5  C   UNL     1       2.782   7.329  18.753  0.00  0.00    +0.000 A 
ATOM      6  C   UNL     1       2.203   6.746  19.882  0.00  0.00    +0.000 A 
ENDROOT
BRANCH   1   8
ATOM      7  C   UNL     1       1.275   3.330  20.819  0.00  0.00    +0.000 C 
ATOM      8  O   UNL     1       1.782   4.623  21.116  0.00  0.00    +0.000 OA
ENDBRANCH   1   8
BRANCH   6   9
ATOM      9  O   UNL     1       1.554   7.564  20.765  0.00  0.00    +0.000 OA
ATOM     10  H   UNL     1       0.952   8.148  20.275  0.00  0.00    +0.000 HD
ENDBRANCH   6   9
BRANCH   3  11
ATOM     11  C   UNL     1       4.280   4.270  16.993  0.00  0.00    +0.000 C 
BRANCH  11  12
ATOM     12  C   UNL     1       5.813   4.364  17.007  0.00  0.00    +0.000 C 
BRANCH  12  13
ATOM     13  C   UNL     1       6.392   4.516  15.643  0.00  0.00    +0.000 A 
ATOM     14  C   UNL     1       6.133   3.858  14.461  0.00  0.00    +0.000 A 
ATOM     15  C   UNL     1       6.955   4.486  13.500  0.00  0.00    +0.000 A 
ATOM     16  C   UNL     1       7.060   4.188  12.052  0.00  0.00    +0.000 C 
ATOM     17  N   UNL     1       7.688   5.464  14.044  0.00  0.00    +0.000 NA
ATOM     18  N   UNL     1       7.330   5.464  15.337  0.00  0.00    +0.000 N 
ATOM     19  H   UNL     1       7.756   6.148  15.952  0.00  0.00    +0.000 HD
ENDBRANCH  12  13
ENDBRANCH  11  12
ENDBRANCH   3  11
TORSDOF 5
ENDMDL
MODEL 7
REMARK VINA RESULT:      -6.6      2.858      3.985
REMARK  Name = 
REMARK  7 active torsions:
REMARK  status: ('A' for Active; 'I' for Inactive)
REMARK    1  A    between atoms: C_1  and  O_2
REMARK    2  A    between atoms: O_2  and  C_3
REMARK    3  A    between atoms: C_5  and  C_6
REMARK    4  A    between atoms: C_6  and  C_7
REMARK    5  A    between atoms: C_7  and  C_8
REMARK    6  A    between atoms: C_10  and  C_11
REMARK    7  A    between atoms: C_16  and  O_17
REMARK                            x       y       z     vdW  Elec       q    Type
REMARK                         _______ _______ _______ _____ _____    ______ ____
ROOT
ATOM      1  C   UNL     1       2.339   7.086  18.946  0.00  0.00    +0.000 A 
ATOM      2  C   UNL     1       2.359   5.975  18.084  0.00  0.00    +0.000 A 
ATOM      3  C   UNL     1       2.019   4.684  18.526  0.00  0.00    +0.000 A 
ATOM      4  C   UNL     1       1.686   4.520  19.875  0.00  0.00    +0.000 A 
ATOM      5  C   UNL     1       1.656   5.613  20.742  0.00  0.00    +0.000 A 
ATOM      6  C   UNL     1       1.979   6.891  20.281  0.00  0.00    +0.000 A 
ENDROOT
BRANCH   1   8
ATOM      7  C   UNL     1       1.655   9.088  17.829  0.00  0.00    +0.000 C 
ATOM      8  O   UNL     1       2.693   8.254  18.322  0.00  0.00    +0.000 OA
ENDBRANCH   1   8
BRANCH   6   9
ATOM      9  O   UNL     1       1.935   7.925  21.175  0.00  0.00    +0.000 OA
ATOM     10  H   UNL     1       2.825   8.074  21.534  0.00  0.00    +0.000 HD
ENDBRANCH   6   9
BRANCH   3  11
ATOM     11  C   UNL     1       2.090   3.519  17.559  0.00  0.00    +0.000 C 
BRANCH  11  12
ATOM     12  C   UNL     1       3.353   2.654  17.689  0.00  0.00    +0.000 C 
BRANCH  12  13
ATOM     13  C   UNL     1       4.598   3.466  17.783  0.00  0.00    +0.000 A 
ATOM     14  C   UNL     1       5.239   4.266  16.864  0.00  0.00    +0.000 A 
ATOM     15  C   UNL     1       6.339   4.819  17.557  0.00  0.00    +0.000 A 
ATOM     16  C   UNL     1       7.354   5.771  17.050  0.00  0.00    +0.000 C 
ATOM     17  N   UNL     1       6.390   4.385  18.822  0.00  0.00    +0.000 NA
ATOM     18  N   UNL     1       5.329   3.572  18.934  0.00  0.00    +0.000 N 
ATOM     19  H   UNL     1       5.156   3.132  19.832  0.00  0.00    +0.000 HD
ENDBRANCH  12  13
ENDBRANCH  11  12
ENDBRANCH   3  11
TORSDOF 5
ENDMDL
MODEL 8
REMARK VINA RESULT:      -6.6      3.550      5.730
REMARK  Name = 
REMARK  7 active torsions:
REMARK  status: ('A' for Active; 'I' for Inactive)
REMARK    1  A    between atoms: C_1  and  O_2
REMARK    2  A    between atoms: O_2  and  C_3
REMARK    3  A    between atoms: C_5  and  C_6
REMARK    4  A    between atoms: C_6  and  C_7
REMARK    5  A    between atoms: C_7  and  C_8
REMARK    6  A    between atoms: C_10  and  C_11
REMARK    7  A    between atoms: C_16  and  O_17
REMARK                            x       y       z     vdW  Elec       q    Type
REMARK                         _______ _______ _______ _____ _____    ______ ____
ROOT
ATOM      1  C   UNL     1       6.822   5.409  16.390  0.00  0.00    +0.000 A 
ATOM      2  C   UNL     1       5.662   6.204  16.413  0.00  0.00    +0.000 A 
ATOM      3  C   UNL     1       4.919   6.400  17.590  0.00  0.00    +0.000 A 
ATOM      4  C   UNL     1       5.346   5.749  18.752  0.00  0.00    +0.000 A 
ATOM      5  C   UNL     1       6.497   4.960  18.746  0.00  0.00    +0.000 A 
ATOM      6  C   UNL     1       7.234   4.791  17.572  0.00  0.00    +0.000 A 
ENDROOT
BRANCH   1   8
ATOM      7  C   UNL     1       6.799   4.527  14.166  0.00  0.00    +0.000 C 
ATOM      8  O   UNL     1       7.406   5.351  15.151  0.00  0.00    +0.000 OA
ENDBRANCH   1   8
BRANCH   6   9
ATOM      9  O   UNL     1       8.352   4.006  17.624  0.00  0.00    +0.000 OA
ATOM     10  H   UNL     1       8.665   3.957  18.542  0.00  0.00    +0.000 HD
ENDBRANCH   6   9
BRANCH   3  11
ATOM     11  C   UNL     1       3.659   7.242  17.548  0.00  0.00    +0.000 C 
BRANCH  11  12
ATOM     12  C   UNL     1       2.672   6.979  18.695  0.00  0.00    +0.000 C 
BRANCH  12  13
ATOM     13  C   UNL     1       2.175   5.574  18.715  0.00  0.00    +0.000 A 
ATOM     14  C   UNL     1       2.002   4.681  19.749  0.00  0.00    +0.000 A 
ATOM     15  C   UNL     1       1.443   3.529  19.152  0.00  0.00    +0.000 A 
ATOM     16  C   UNL     1       1.035   2.265  19.810  0.00  0.00    +0.000 C 
ATOM     17  N   UNL     1       1.288   3.685  17.832  0.00  0.00    +0.000 NA
ATOM     18  N   UNL     1       1.735   4.928  17.593  0.00  0.00    +0.000 N 
ATOM     19  H   UNL     1       1.698   5.275  16.641  0.00  0.00    +0.000 HD
ENDBRANCH  12  13
ENDBRANCH  11  12
ENDBRANCH   3  11
TORSDOF 5
ENDMDL
MODEL 9
REMARK VINA RESULT:      -6.6      4.152      6.395
REMARK  Name = 
REMARK  7 active torsions:
REMARK  status: ('A' for Active; 'I' for Inactive)
REMARK    1  A    between atoms: C_1  and  O_2
REMARK    2  A    between atoms: O_2  and  C_3
REMARK    3  A    between atoms: C_5  and  C_6
REMARK    4  A    between atoms: C_6  and  C_7
REMARK    5  A    between atoms: C_7  and  C_8
REMARK    6  A    between atoms: C_10  and  C_11
REMARK    7  A    between atoms: C_16  and  O_17
REMARK                            x       y       z     vdW  Elec       q    Type
REMARK                         _______ _______ _______ _____ _____    ______ ____
ROOT
ATOM      1  C   UNL     1       7.013   6.117  16.684  0.00  0.00    +0.000 A 
ATOM      2  C   UNL     1       6.281   5.997  17.879  0.00  0.00    +0.000 A 
ATOM      3  C   UNL     1       5.377   4.943  18.095  0.00  0.00    +0.000 A 
ATOM      4  C   UNL     1       5.191   4.017  17.063  0.00  0.00    +0.000 A 
ATOM      5  C   UNL     1       5.912   4.119  15.873  0.00  0.00    +0.000 A 
ATOM      6  C   UNL     1       6.820   5.163  15.683  0.00  0.00    +0.000 A 
ENDROOT
BRANCH   1   8
ATOM      7  C   UNL     1       7.829   8.070  17.800  0.00  0.00    +0.000 C 
ATOM      8  O   UNL     1       7.846   7.205  16.673  0.00  0.00    +0.000 OA
ENDBRANCH   1   8
BRANCH   6   9
ATOM      9  O   UNL     1       7.498   5.214  14.496  0.00  0.00    +0.000 OA
ATOM     10  H   UNL     1       8.178   4.522  14.487  0.00  0.00    +0.000 HD
ENDBRANCH   6   9
BRANCH   3  11
ATOM     11  C   UNL     1       4.593   4.884  19.391  0.00  0.00    +0.000 C 
BRANCH  11  12
ATOM     12  C   UNL     1       3.070   4.996  19.226  0.00  0.00    +0.000 C 
BRANCH  12  13
ATOM     13  C   UNL     1       2.598   6.408  19.187  0.00  0.00    +0.000 A 
ATOM     14  C   UNL     1       2.471   7.301  18.146  0.00  0.00    +0.000 A 
ATOM     15  C   UNL     1       1.915   8.464  18.722  0.00  0.00    +0.000 A 
ATOM     16  C   UNL     1       1.549   9.733  18.049  0.00  0.00    +0.000 C 
ATOM     17  N   UNL     1       1.717   8.315  20.037  0.00  0.00    +0.000 NA
ATOM     18  N   UNL     1       2.135   7.066  20.293  0.00  0.00    +0.000 N 
ATOM     19  H   UNL     1       2.063   6.723  21.245  0.00  0.00    +0.000 HD
ENDBRANCH  12  13
ENDBRANCH  11  12
ENDBRANCH   3  11
TORSDOF 5
ENDMDL
