MODEL 1
REMARK VINA RESULT:      -8.3      0.000      0.000
REMARK  Name = 
REMARK  2 active torsions:
REMARK  status: ('A' for Active; 'I' for Inactive)
REMARK    1  A    between atoms: C_5  and  N_6
REMARK    2  A    between atoms: N_6  and  N_7
REMARK                            x       y       z     vdW  Elec       q    Type
REMARK                         _______ _______ _______ _____ _____    ______ ____
ROOT
ATOM      1  O   UNL     1       7.892   7.735  16.945  0.00  0.00    +0.000 OA
ATOM      2  C   UNL     1       7.469   6.681  17.412  0.00  0.00    +0.000 C 
ATOM      3  C   UNL     1       7.568   6.442  18.862  0.00  0.00    +0.000 C 
ATOM      4  C   UNL     1       6.900   5.428  19.416  0.00  0.00    +0.000 C 
ATOM      5  C   UNL     1       5.934   4.559  18.623  0.00  0.00    +0.000 C 
ATOM      6  C   UNL     1       6.498   4.242  17.204  0.00  0.00    +0.000 C 
ATOM      7  C   UNL     1       5.444   3.763  16.145  0.00  0.00    +0.000 C 
ATOM      8  C   UNL     1       5.984   3.822  14.705  0.00  0.00    +0.000 C 
ATOM      9  C   UNL     1       6.080   5.119  14.353  0.00  0.00    +0.000 C 
ATOM     10  C   UNL     1       5.755   5.912  15.593  0.00  0.00    +0.000 C 
ATOM     11  C   UNL     1       4.575   5.017  16.026  0.00  0.00    +0.000 C 
ATOM     12  C   UNL     1       6.958   5.567  16.527  0.00  0.00    +0.000 C 
ENDROOT
BRANCH   5  13
ATOM     13  N   UNL     1       5.443   3.422  19.420  0.00  0.00    +0.000 NA
ATOM     14  H   UNL     1       5.797   2.545  19.040  0.00  0.00    +0.000 HD
BRANCH  13  15
ATOM     15  N   UNL     1       3.950   3.428  19.474  0.00  0.00    +0.000 NA
ATOM     16  C   UNL     1       3.424   2.631  20.598  0.00  0.00    +0.000 C 
ATOM     17  C   UNL     1       1.897   2.578  20.551  0.00  0.00    +0.000 C 
ATOM     18  C   UNL     1       1.306   3.977  20.608  0.00  0.00    +0.000 C 
ATOM     19  C   UNL     1       1.916   4.854  19.519  0.00  0.00    +0.000 C 
ATOM     20  C   UNL     1       3.453   4.814  19.540  0.00  0.00    +0.000 C 
ENDBRANCH  13  15
ENDBRANCH   5  13
TORSDOF 2
ENDMDL
MODEL 2
REMARK VINA RESULT:      -8.2      0.840      1.322
REMARK  Name = 
REMARK  2 active torsions:
REMARK  status: ('A' for Active; 'I' for Inactive)
REMARK    1  A    between atoms: C_5  and  N_6
REMARK    2  A    between atoms: N_6  and  N_7
REMARK                            x       y       z     vdW  Elec       q    Type
REMARK                         _______ _______ _______ _____ _____    ______ ____
ROOT
ATOM      1  O   UNL     1       7.818   7.803  16.941  0.00  0.00    +0.000 OA
ATOM      2  C   UNL     1       7.433   6.721  17.373  0.00  0.00    +0.000 C 
ATOM      3  C   UNL     1       7.481   6.463  18.823  0.00  0.00    +0.000 C 
ATOM      4  C   UNL     1       6.845   5.406  19.331  0.00  0.00    +0.000 C 
ATOM      5  C   UNL     1       5.964   4.499  18.484  0.00  0.00    +0.000 C 
ATOM      6  C   UNL     1       6.608   4.237  17.088  0.00  0.00    +0.000 C 
ATOM      7  C   UNL     1       5.629   3.719  15.975  0.00  0.00    +0.000 C 
ATOM      8  C   UNL     1       6.228   3.830  14.561  0.00  0.00    +0.000 C 
ATOM      9  C   UNL     1       6.269   5.137  14.233  0.00  0.00    +0.000 C 
ATOM     10  C   UNL     1       5.846   5.890  15.468  0.00  0.00    +0.000 C 
ATOM     11  C   UNL     1       4.699   4.926  15.834  0.00  0.00    +0.000 C 
ATOM     12  C   UNL     1       7.024   5.596  16.450  0.00  0.00    +0.000 C 
ENDROOT
BRANCH   5  13
ATOM     13  N   UNL     1       5.501   3.324  19.241  0.00  0.00    +0.000 NA
ATOM     14  H   UNL     1       5.855   2.468  18.816  0.00  0.00    +0.000 HD
BRANCH  13  15
ATOM     15  N   UNL     1       4.010   3.313  19.328  0.00  0.00    +0.000 NA
ATOM     16  C   UNL     1       3.422   4.643  19.083  0.00  0.00    +0.000 C 
ATOM     17  C   UNL     1       1.908   4.607  19.286  0.00  0.00    +0.000 C 
ATOM     18  C   UNL     1       1.261   3.593  18.357  0.00  0.00    +0.000 C 
ATOM     19  C   UNL     1       1.928   2.229  18.515  0.00  0.00    +0.000 C 
ATOM     20  C   UNL     1       3.457   2.317  18.392  0.00  0.00    +0.000 C 
ENDBRANCH  13  15
ENDBRANCH   5  13
TORSDOF 2
ENDMDL
MODEL 3
REMARK VINA RESULT:      -8.1      0.562      1.146
REMARK  Name = 
REMARK  2 active torsions:
REMARK  status: ('A' for Active; 'I' for Inactive)
REMARK    1  A    between atoms: C_5  and  N_6
REMARK    2  A    between atoms: N_6  and  N_7
REMARK                            x       y       z     vdW  Elec       q    Type
REMARK                         _______ _______ _______ _____ _____    ______ ____
ROOT
ATOM      1  O   UNL     1       7.729   7.743  17.086  0.00  0.00    +0.000 OA
ATOM      2  C   UNL     1       7.321   6.656  17.484  0.00  0.00    +0.000 C 
ATOM      3  C   UNL     1       7.305   6.375  18.930  0.00  0.00    +0.000 C 
ATOM      4  C   UNL     1       6.642   5.314  19.394  0.00  0.00    +0.000 C 
ATOM      5  C   UNL     1       5.794   4.426  18.495  0.00  0.00    +0.000 C 
ATOM      6  C   UNL     1       6.496   4.181  17.124  0.00  0.00    +0.000 C 
ATOM      7  C   UNL     1       5.563   3.686  15.962  0.00  0.00    +0.000 C 
ATOM      8  C   UNL     1       6.222   3.817  14.577  0.00  0.00    +0.000 C 
ATOM      9  C   UNL     1       6.284   5.128  14.272  0.00  0.00    +0.000 C 
ATOM     10  C   UNL     1       5.812   5.864  15.499  0.00  0.00    +0.000 C 
ATOM     11  C   UNL     1       4.646   4.901  15.801  0.00  0.00    +0.000 C 
ATOM     12  C   UNL     1       6.946   5.548  16.527  0.00  0.00    +0.000 C 
ENDROOT
BRANCH   5  13
ATOM     13  N   UNL     1       5.294   3.241  19.213  0.00  0.00    +0.000 NA
ATOM     14  H   UNL     1       5.268   2.435  18.591  0.00  0.00    +0.000 HD
BRANCH  13  15
ATOM     15  N   UNL     1       3.949   3.518  19.802  0.00  0.00    +0.000 NA
ATOM     16  C   UNL     1       2.890   3.588  18.778  0.00  0.00    +0.000 C 
ATOM     17  C   UNL     1       1.554   3.977  19.413  0.00  0.00    +0.000 C 
ATOM     18  C   UNL     1       1.152   2.975  20.482  0.00  0.00    +0.000 C 
ATOM     19  C   UNL     1       2.278   2.802  21.497  0.00  0.00    +0.000 C 
ATOM     20  C   UNL     1       3.624   2.500  20.819  0.00  0.00    +0.000 C 
ENDBRANCH  13  15
ENDBRANCH   5  13
TORSDOF 2
ENDMDL
MODEL 4
REMARK VINA RESULT:      -7.3      3.443      5.813
REMARK  Name = 
REMARK  2 active torsions:
REMARK  status: ('A' for Active; 'I' for Inactive)
REMARK    1  A    between atoms: C_5  and  N_6
REMARK    2  A    between atoms: N_6  and  N_7
REMARK                            x       y       z     vdW  Elec       q    Type
REMARK                         _______ _______ _______ _____ _____    ______ ____
ROOT
ATOM      1  O   UNL     1       3.138   1.708  17.464  0.00  0.00    +0.000 OA
ATOM      2  C   UNL     1       3.296   2.839  17.913  0.00  0.00    +0.000 C 
ATOM      3  C   UNL     1       3.918   3.872  17.066  0.00  0.00    +0.000 C 
ATOM      4  C   UNL     1       3.871   5.153  17.438  0.00  0.00    +0.000 C 
ATOM      5  C   UNL     1       3.096   5.619  18.662  0.00  0.00    +0.000 C 
ATOM      6  C   UNL     1       3.271   4.623  19.850  0.00  0.00    +0.000 C 
ATOM      7  C   UNL     1       2.193   4.726  20.986  0.00  0.00    +0.000 C 
ATOM      8  C   UNL     1       2.201   3.503  21.922  0.00  0.00    +0.000 C 
ATOM      9  C   UNL     1       1.704   2.456  21.236  0.00  0.00    +0.000 C 
ATOM     10  C   UNL     1       1.510   2.938  19.821  0.00  0.00    +0.000 C 
ATOM     11  C   UNL     1       0.935   4.313  20.219  0.00  0.00    +0.000 C 
ATOM     12  C   UNL     1       2.982   3.175  19.353  0.00  0.00    +0.000 C 
ENDROOT
BRANCH   5  13
ATOM     13  N   UNL     1       3.326   7.046  18.943  0.00  0.00    +0.000 NA
ATOM     14  H   UNL     1       3.858   7.155  19.806  0.00  0.00    +0.000 HD
BRANCH  13  15
ATOM     15  N   UNL     1       2.028   7.781  19.009  0.00  0.00    +0.000 NA
ATOM     16  C   UNL     1       1.766   8.343  20.347  0.00  0.00    +0.000 C 
ATOM     17  C   UNL     1       0.383   8.992  20.396  0.00  0.00    +0.000 C 
ATOM     18  C   UNL     1       0.267  10.096  19.357  0.00  0.00    +0.000 C 
ATOM     19  C   UNL     1       0.639   9.564  17.976  0.00  0.00    +0.000 C 
ATOM     20  C   UNL     1       1.995   8.840  17.983  0.00  0.00    +0.000 C 
ENDBRANCH  13  15
ENDBRANCH   5  13
TORSDOF 2
ENDMDL
MODEL 5
REMARK VINA RESULT:      -7.3      2.724      5.845
REMARK  Name = 
REMARK  2 active torsions:
REMARK  status: ('A' for Active; 'I' for Inactive)
REMARK    1  A    between atoms: C_5  and  N_6
REMARK    2  A    between atoms: N_6  and  N_7
REMARK                            x       y       z     vdW  Elec       q    Type
REMARK                         _______ _______ _______ _____ _____    ______ ____
ROOT
ATOM      1  O   UNL     1       1.100   7.031  21.255  0.00  0.00    +0.000 OA
ATOM      2  C   UNL     1       1.662   6.566  20.268  0.00  0.00    +0.000 C 
ATOM      3  C   UNL     1       2.308   7.478  19.308  0.00  0.00    +0.000 C 
ATOM      4  C   UNL     1       3.127   6.990  18.375  0.00  0.00    +0.000 C 
ATOM      5  C   UNL     1       3.520   5.521  18.324  0.00  0.00    +0.000 C 
ATOM      6  C   UNL     1       2.299   4.601  18.636  0.00  0.00    +0.000 C 
ATOM      7  C   UNL     1       2.648   3.131  19.063  0.00  0.00    +0.000 C 
ATOM      8  C   UNL     1       1.451   2.402  19.700  0.00  0.00    +0.000 C 
ATOM      9  C   UNL     1       1.237   2.944  20.915  0.00  0.00    +0.000 C 
ATOM     10  C   UNL     1       2.179   4.116  21.021  0.00  0.00    +0.000 C 
ATOM     11  C   UNL     1       3.380   3.388  20.382  0.00  0.00    +0.000 C 
ATOM     12  C   UNL     1       1.608   5.092  19.942  0.00  0.00    +0.000 C 
ENDROOT
BRANCH   5  13
ATOM     13  N   UNL     1       4.306   5.207  17.118  0.00  0.00    +0.000 NA
ATOM     14  H   UNL     1       4.182   4.229  16.860  0.00  0.00    +0.000 HD
BRANCH  13  15
ATOM     15  N   UNL     1       5.747   5.534  17.335  0.00  0.00    +0.000 NA
ATOM     16  C   UNL     1       6.049   6.953  17.067  0.00  0.00    +0.000 C 
ATOM     17  C   UNL     1       7.548   7.218  17.198  0.00  0.00    +0.000 C 
ATOM     18  C   UNL     1       8.043   6.853  18.588  0.00  0.00    +0.000 C 
ATOM     19  C   UNL     1       7.648   5.420  18.931  0.00  0.00    +0.000 C 
ATOM     20  C   UNL     1       6.149   5.165  18.705  0.00  0.00    +0.000 C 
ENDBRANCH  13  15
ENDBRANCH   5  13
TORSDOF 2
ENDMDL
MODEL 6
REMARK VINA RESULT:      -7.2      1.626      2.065
REMARK  Name = 
REMARK  2 active torsions:
REMARK  status: ('A' for Active; 'I' for Inactive)
REMARK    1  A    between atoms: C_5  and  N_6
REMARK    2  A    between atoms: N_6  and  N_7
REMARK                            x       y       z     vdW  Elec       q    Type
REMARK                         _______ _______ _______ _____ _____    ______ ____
ROOT
ATOM      1  O   UNL     1       8.517   4.697  18.217  0.00  0.00    +0.000 OA
ATOM      2  C   UNL     1       7.294   4.740  18.127  0.00  0.00    +0.000 C 
ATOM      3  C   UNL     1       6.489   4.991  19.335  0.00  0.00    +0.000 C 
ATOM      4  C   UNL     1       5.192   5.287  19.221  0.00  0.00    +0.000 C 
ATOM      5  C   UNL     1       4.519   5.489  17.872  0.00  0.00    +0.000 C 
ATOM      6  C   UNL     1       5.021   4.443  16.830  0.00  0.00    +0.000 C 
ATOM      7  C   UNL     1       4.771   4.809  15.324  0.00  0.00    +0.000 C 
ATOM      8  C   UNL     1       5.598   3.940  14.359  0.00  0.00    +0.000 C 
ATOM      9  C   UNL     1       6.888   4.315  14.470  0.00  0.00    +0.000 C 
ATOM     10  C   UNL     1       6.938   5.311  15.600  0.00  0.00    +0.000 C 
ATOM     11  C   UNL     1       5.651   6.055  15.188  0.00  0.00    +0.000 C 
ATOM     12  C   UNL     1       6.579   4.422  16.834  0.00  0.00    +0.000 C 
ENDROOT
BRANCH   5  13
ATOM     13  N   UNL     1       3.061   5.654  18.008  0.00  0.00    +0.000 NA
ATOM     14  H   UNL     1       2.845   6.555  18.432  0.00  0.00    +0.000 HD
BRANCH  13  15
ATOM     15  N   UNL     1       2.481   4.528  18.800  0.00  0.00    +0.000 NA
ATOM     16  C   UNL     1       1.816   4.990  20.033  0.00  0.00    +0.000 C 
ATOM     17  C   UNL     1       1.332   3.800  20.861  0.00  0.00    +0.000 C 
ATOM     18  C   UNL     1       0.365   2.943  20.061  0.00  0.00    +0.000 C 
ATOM     19  C   UNL     1       0.991   2.540  18.729  0.00  0.00    +0.000 C 
ATOM     20  C   UNL     1       1.546   3.752  17.964  0.00  0.00    +0.000 C 
ENDBRANCH  13  15
ENDBRANCH   5  13
TORSDOF 2
ENDMDL
MODEL 7
REMARK VINA RESULT:      -7.1      3.515      4.923
REMARK  Name = 
REMARK  2 active torsions:
REMARK  status: ('A' for Active; 'I' for Inactive)
REMARK    1  A    between atoms: C_5  and  N_6
REMARK    2  A    between atoms: N_6  and  N_7
REMARK                            x       y       z     vdW  Elec       q    Type
REMARK                         _______ _______ _______ _____ _____    ______ ____
ROOT
ATOM      1  O   UNL     1       2.136   2.131  17.409  0.00  0.00    +0.000 OA
ATOM      2  C   UNL     1       2.272   3.266  17.857  0.00  0.00    +0.000 C 
ATOM      3  C   UNL     1       1.391   3.722  18.946  0.00  0.00    +0.000 C 
ATOM      4  C   UNL     1       1.680   4.844  19.609  0.00  0.00    +0.000 C 
ATOM      5  C   UNL     1       2.959   5.630  19.362  0.00  0.00    +0.000 C 
ATOM      6  C   UNL     1       3.296   5.692  17.841  0.00  0.00    +0.000 C 
ATOM      7  C   UNL     1       4.781   6.057  17.488  0.00  0.00    +0.000 C 
ATOM      8  C   UNL     1       5.134   5.746  16.022  0.00  0.00    +0.000 C 
ATOM      9  C   UNL     1       5.195   4.406  15.888  0.00  0.00    +0.000 C 
ATOM     10  C   UNL     1       4.740   3.834  17.206  0.00  0.00    +0.000 C 
ATOM     11  C   UNL     1       5.515   4.848  18.073  0.00  0.00    +0.000 C 
ATOM     12  C   UNL     1       3.236   4.255  17.243  0.00  0.00    +0.000 C 
ENDROOT
BRANCH   5  13
ATOM     13  N   UNL     1       2.970   6.903  20.104  0.00  0.00    +0.000 NA
ATOM     14  H   UNL     1       2.972   6.727  21.108  0.00  0.00    +0.000 HD
BRANCH  13  15
ATOM     15  N   UNL     1       1.808   7.751  19.702  0.00  0.00    +0.000 NA
ATOM     16  C   UNL     1       1.278   8.548  20.825  0.00  0.00    +0.000 C 
ATOM     17  C   UNL     1       0.029   9.317  20.395  0.00  0.00    +0.000 C 
ATOM     18  C   UNL     1       0.338  10.240  19.227  0.00  0.00    +0.000 C 
ATOM     19  C   UNL     1       0.988   9.456  18.091  0.00  0.00    +0.000 C 
ATOM     20  C   UNL     1       2.187   8.625  18.576  0.00  0.00    +0.000 C 
ENDBRANCH  13  15
ENDBRANCH   5  13
TORSDOF 2
ENDMDL
MODEL 8
REMARK VINA RESULT:      -7.1      2.667      5.785
REMARK  Name = 
REMARK  2 active torsions:
REMARK  status: ('A' for Active; 'I' for Inactive)
REMARK    1  A    between atoms: C_5  and  N_6
REMARK    2  A    between atoms: N_6  and  N_7
REMARK                            x       y       z     vdW  Elec       q    Type
REMARK                         _______ _______ _______ _____ _____    ______ ____
ROOT
ATOM      1  O   UNL     1       1.870   2.463  22.145  0.00  0.00    +0.000 OA
ATOM      2  C   UNL     1       2.684   2.862  21.318  0.00  0.00    +0.000 C 
ATOM      3  C   UNL     1       3.789   1.979  20.907  0.00  0.00    +0.000 C 
ATOM      4  C   UNL     1       4.530   2.292  19.842  0.00  0.00    +0.000 C 
ATOM      5  C   UNL     1       4.211   3.482  18.949  0.00  0.00    +0.000 C 
ATOM      6  C   UNL     1       3.768   4.716  19.794  0.00  0.00    +0.000 C 
ATOM      7  C   UNL     1       2.987   5.831  19.012  0.00  0.00    +0.000 C 
ATOM      8  C   UNL     1       2.272   6.821  19.949  0.00  0.00    +0.000 C 
ATOM      9  C   UNL     1       1.234   6.175  20.515  0.00  0.00    +0.000 C 
ATOM     10  C   UNL     1       1.348   4.737  20.078  0.00  0.00    +0.000 C 
ATOM     11  C   UNL     1       1.722   5.064  18.618  0.00  0.00    +0.000 C 
ATOM     12  C   UNL     1       2.658   4.280  20.796  0.00  0.00    +0.000 C 
ENDROOT
BRANCH   5  13
ATOM     13  N   UNL     1       5.258   3.702  17.937  0.00  0.00    +0.000 NA
ATOM     14  H   UNL     1       5.958   2.963  17.986  0.00  0.00    +0.000 HD
BRANCH  13  15
ATOM     15  N   UNL     1       5.878   5.050  18.112  0.00  0.00    +0.000 NA
ATOM     16  C   UNL     1       7.305   4.972  18.473  0.00  0.00    +0.000 C 
ATOM     17  C   UNL     1       7.869   6.366  18.745  0.00  0.00    +0.000 C 
ATOM     18  C   UNL     1       7.708   7.261  17.527  0.00  0.00    +0.000 C 
ATOM     19  C   UNL     1       6.253   7.274  17.068  0.00  0.00    +0.000 C 
ATOM     20  C   UNL     1       5.693   5.854  16.889  0.00  0.00    +0.000 C 
ENDBRANCH  13  15
ENDBRANCH   5  13
TORSDOF 2
ENDMDL
MODEL 9
REMARK VINA RESULT:      -7.0      2.221      5.668
REMARK  Name = 
REMARK  2 active torsions:
REMARK  status: ('A' for Active; 'I' for Inactive)
REMARK    1  A    between atoms: C_5  and  N_6
REMARK    2  A    between atoms: N_6  and  N_7
REMARK                            x       y       z     vdW  Elec       q    Type
REMARK                         _______ _______ _______ _____ _____    ______ ____
ROOT
ATOM      1  O   UNL     1       1.372   6.701  20.587  0.00  0.00    +0.000 OA
ATOM      2  C   UNL     1       2.173   6.010  19.965  0.00  0.00    +0.000 C 
ATOM      3  C   UNL     1       3.473   6.584  19.577  0.00  0.00    +0.000 C 
ATOM      4  C   UNL     1       4.445   5.786  19.126  0.00  0.00    +0.000 C 
ATOM      5  C   UNL     1       4.307   4.271  19.099  0.00  0.00    +0.000 C 
ATOM      6  C   UNL     1       2.878   3.844  18.643  0.00  0.00    +0.000 C 
ATOM      7  C   UNL     1       2.461   2.374  19.004  0.00  0.00    +0.000 C 
ATOM      8  C   UNL     1       0.946   2.138  18.862  0.00  0.00    +0.000 C 
ATOM      9  C   UNL     1       0.331   2.798  19.863  0.00  0.00    +0.000 C 
ATOM     10  C   UNL     1       1.406   3.583  20.568  0.00  0.00    +0.000 C 
ATOM     11  C   UNL     1       2.453   2.451  20.532  0.00  0.00    +0.000 C 
ATOM     12  C   UNL     1       1.819   4.624  19.478  0.00  0.00    +0.000 C 
ENDROOT
BRANCH   5  13
ATOM     13  N   UNL     1       5.447   3.631  18.420  0.00  0.00    +0.000 NA
ATOM     14  H   UNL     1       6.252   3.589  19.044  0.00  0.00    +0.000 HD
BRANCH  13  15
ATOM     15  N   UNL     1       5.776   4.357  17.157  0.00  0.00    +0.000 NA
ATOM     16  C   UNL     1       7.228   4.539  16.973  0.00  0.00    +0.000 C 
ATOM     17  C   UNL     1       7.512   5.375  15.726  0.00  0.00    +0.000 C 
ATOM     18  C   UNL     1       6.929   4.715  14.488  0.00  0.00    +0.000 C 
ATOM     19  C   UNL     1       5.446   4.418  14.695  0.00  0.00    +0.000 C 
ATOM     20  C   UNL     1       5.189   3.652  16.002  0.00  0.00    +0.000 C 
ENDBRANCH  13  15
ENDBRANCH   5  13
TORSDOF 2
ENDMDL
