MODEL 1
REMARK VINA RESULT:      -9.0      0.000      0.000
REMARK  Name = 
REMARK  4 active torsions:
REMARK  status: ('A' for Active; 'I' for Inactive)
REMARK    1  A    between atoms: C_1  and  O_2
REMARK    2  A    between atoms: O_2  and  C_3
REMARK    3  A    between atoms: C_7  and  C_8
REMARK    4  A    between atoms: C_10  and  O_11
REMARK                            x       y       z     vdW  Elec       q    Type
REMARK                         _______ _______ _______ _____ _____    ______ ____
ROOT
ATOM      1  C   UNL     1       5.310   5.756  16.252  0.00  0.00    +0.000 C 
ATOM      2  C   UNL     1       6.350   5.971  17.286  0.00  0.00    +0.000 C 
ATOM      3  C   UNL     1       7.336   6.803  17.608  0.00  0.00    +0.000 C 
ATOM      4  O   UNL     1       7.994   6.577  18.811  0.00  0.00    +0.000 OA
ATOM      5  C   UNL     1       7.240   5.551  19.481  0.00  0.00    +0.000 C 
ATOM      6  C   UNL     1       6.447   4.983  18.362  0.00  0.00    +0.000 C 
ATOM      7  N   UNL     1       5.860   3.825  18.375  0.00  0.00    +0.000 NA
ATOM      8  C   UNL     1       4.725   3.675  17.501  0.00  0.00    +0.000 A 
ATOM      9  C   UNL     1       3.817   2.746  18.002  0.00  0.00    +0.000 A 
ATOM     10  C   UNL     1       2.778   3.308  18.694  0.00  0.00    +0.000 A 
ATOM     11  C   UNL     1       2.533   4.662  18.639  0.00  0.00    +0.000 A 
ATOM     12  C   UNL     1       3.192   5.480  17.728  0.00  0.00    +0.000 A 
ATOM     13  C   UNL     1       4.248   4.908  16.986  0.00  0.00    +0.000 A 
ATOM     14  O   UNL     1       1.698   5.058  19.641  0.00  0.00    +0.000 OA
ATOM     15  C   UNL     1       1.494   3.807  20.344  0.00  0.00    +0.000 C 
ATOM     16  O   UNL     1       2.049   2.673  19.652  0.00  0.00    +0.000 OA
ENDROOT
BRANCH   1  21
ATOM     17  C   UNL     1       5.748   3.684  12.987  0.00  0.00    +0.000 A 
ATOM     18  C   UNL     1       7.034   4.081  12.582  0.00  0.00    +0.000 A 
ATOM     19  C   UNL     1       7.756   4.986  13.354  0.00  0.00    +0.000 A 
ATOM     20  C   UNL     1       7.206   5.495  14.528  0.00  0.00    +0.000 A 
ATOM     21  C   UNL     1       5.922   5.127  14.974  0.00  0.00    +0.000 A 
ATOM     22  C   UNL     1       5.197   4.207  14.172  0.00  0.00    +0.000 A 
BRANCH  17  24
ATOM     23  C   UNL     1       4.115   3.255  11.300  0.00  0.00    +0.000 C 
ATOM     24  O   UNL     1       5.178   2.795  12.122  0.00  0.00    +0.000 OA
ENDBRANCH  17  24
ENDBRANCH   1  21
BRANCH   3  25
ATOM     25  O   UNL     1       7.765   7.826  16.809  0.00  0.00    +0.000 OA
ATOM     26  H   UNL     1       7.507   8.663  17.235  0.00  0.00    +0.000 HD
ENDBRANCH   3  25
TORSDOF 3
ENDMDL
MODEL 2
REMARK VINA RESULT:      -8.0      2.768      6.837
REMARK  Name = 
REMARK  4 active torsions:
REMARK  status: ('A' for Active; 'I' for Inactive)
REMARK    1  A    between atoms: C_1  and  O_2
REMARK    2  A    between atoms: O_2  and  C_3
REMARK    3  A    between atoms: C_7  and  C_8
REMARK    4  A    between atoms: C_10  and  O_11
REMARK                            x       y       z     vdW  Elec       q    Type
REMARK                         _______ _______ _______ _____ _____    ______ ____
ROOT
ATOM      1  C   UNL     1       2.579   5.579  18.230  0.00  0.00    +0.000 C 
ATOM      2  C   UNL     1       2.907   4.424  19.100  0.00  0.00    +0.000 C 
ATOM      3  C   UNL     1       2.325   3.449  19.792  0.00  0.00    +0.000 C 
ATOM      4  O   UNL     1       3.156   2.521  20.408  0.00  0.00    +0.000 OA
ATOM      5  C   UNL     1       4.483   2.807  19.930  0.00  0.00    +0.000 C 
ATOM      6  C   UNL     1       4.319   4.185  19.401  0.00  0.00    +0.000 C 
ATOM      7  N   UNL     1       5.291   5.012  19.161  0.00  0.00    +0.000 NA
ATOM      8  C   UNL     1       5.034   6.027  18.171  0.00  0.00    +0.000 A 
ATOM      9  C   UNL     1       6.206   6.418  17.529  0.00  0.00    +0.000 A 
ATOM     10  C   UNL     1       6.416   5.787  16.332  0.00  0.00    +0.000 A 
ATOM     11  C   UNL     1       5.417   5.062  15.722  0.00  0.00    +0.000 A 
ATOM     12  C   UNL     1       4.106   5.107  16.183  0.00  0.00    +0.000 A 
ATOM     13  C   UNL     1       3.868   5.778  17.403  0.00  0.00    +0.000 A 
ATOM     14  O   UNL     1       5.916   4.250  14.748  0.00  0.00    +0.000 OA
ATOM     15  C   UNL     1       7.335   4.522  14.857  0.00  0.00    +0.000 C 
ATOM     16  O   UNL     1       7.634   5.611  15.751  0.00  0.00    +0.000 OA
ENDROOT
BRANCH   1  21
ATOM     17  C   UNL     1       1.471   9.162  19.269  0.00  0.00    +0.000 A 
ATOM     18  C   UNL     1       1.157   8.968  20.625  0.00  0.00    +0.000 A 
ATOM     19  C   UNL     1       1.315   7.712  21.202  0.00  0.00    +0.000 A 
ATOM     20  C   UNL     1       1.787   6.648  20.435  0.00  0.00    +0.000 A 
ATOM     21  C   UNL     1       2.115   6.794  19.073  0.00  0.00    +0.000 A 
ATOM     22  C   UNL     1       1.943   8.081  18.500  0.00  0.00    +0.000 A 
BRANCH  17  24
ATOM     23  C   UNL     1      -0.034  11.000  19.044  0.00  0.00    +0.000 C 
ATOM     24  O   UNL     1       1.262  10.448  18.862  0.00  0.00    +0.000 OA
ENDBRANCH  17  24
ENDBRANCH   1  21
BRANCH   3  25
ATOM     25  O   UNL     1       0.974   3.337  19.967  0.00  0.00    +0.000 OA
ATOM     26  H   UNL     1       0.804   3.262  20.924  0.00  0.00    +0.000 HD
ENDBRANCH   3  25
TORSDOF 3
ENDMDL
MODEL 3
REMARK VINA RESULT:      -7.9      1.231      1.766
REMARK  Name = 
REMARK  4 active torsions:
REMARK  status: ('A' for Active; 'I' for Inactive)
REMARK    1  A    between atoms: C_1  and  O_2
REMARK    2  A    between atoms: O_2  and  C_3
REMARK    3  A    between atoms: C_7  and  C_8
REMARK    4  A    between atoms: C_10  and  O_11
REMARK                            x       y       z     vdW  Elec       q    Type
REMARK                         _______ _______ _______ _____ _____    ______ ____
ROOT
ATOM      1  C   UNL     1       5.266   5.930  16.809  0.00  0.00    +0.000 C 
ATOM      2  C   UNL     1       6.439   6.161  17.686  0.00  0.00    +0.000 C 
ATOM      3  C   UNL     1       7.451   7.005  17.863  0.00  0.00    +0.000 C 
ATOM      4  O   UNL     1       8.274   6.792  18.962  0.00  0.00    +0.000 OA
ATOM      5  C   UNL     1       7.633   5.762  19.736  0.00  0.00    +0.000 C 
ATOM      6  C   UNL     1       6.696   5.180  18.741  0.00  0.00    +0.000 C 
ATOM      7  N   UNL     1       6.130   4.016  18.842  0.00  0.00    +0.000 NA
ATOM      8  C   UNL     1       4.884   3.850  18.137  0.00  0.00    +0.000 A 
ATOM      9  C   UNL     1       4.066   2.915  18.764  0.00  0.00    +0.000 A 
ATOM     10  C   UNL     1       3.128   3.471  19.593  0.00  0.00    +0.000 A 
ATOM     11  C   UNL     1       2.863   4.822  19.567  0.00  0.00    +0.000 A 
ATOM     12  C   UNL     1       3.379   5.641  18.570  0.00  0.00    +0.000 A 
ATOM     13  C   UNL     1       4.327   5.075  17.689  0.00  0.00    +0.000 A 
ATOM     14  O   UNL     1       2.173   5.215  20.675  0.00  0.00    +0.000 OA
ATOM     15  C   UNL     1       2.084   3.965  21.405  0.00  0.00    +0.000 C 
ATOM     16  O   UNL     1       2.549   2.834  20.646  0.00  0.00    +0.000 OA
ENDROOT
BRANCH   1  21
ATOM     17  C   UNL     1       7.258   5.132  13.563  0.00  0.00    +0.000 A 
ATOM     18  C   UNL     1       6.522   4.050  13.049  0.00  0.00    +0.000 A 
ATOM     19  C   UNL     1       5.394   3.595  13.725  0.00  0.00    +0.000 A 
ATOM     20  C   UNL     1       4.994   4.214  14.907  0.00  0.00    +0.000 A 
ATOM     21  C   UNL     1       5.699   5.300  15.460  0.00  0.00    +0.000 A 
ATOM     22  C   UNL     1       6.849   5.749  14.761  0.00  0.00    +0.000 A 
BRANCH  17  24
ATOM     23  C   UNL     1       8.100   6.260  11.635  0.00  0.00    +0.000 C 
ATOM     24  O   UNL     1       8.331   5.454  12.782  0.00  0.00    +0.000 OA
ENDBRANCH  17  24
ENDBRANCH   1  21
BRANCH   3  25
ATOM     25  O   UNL     1       7.753   8.028  17.007  0.00  0.00    +0.000 OA
ATOM     26  H   UNL     1       6.914   8.371  16.649  0.00  0.00    +0.000 HD
ENDBRANCH   3  25
TORSDOF 3
ENDMDL
MODEL 4
REMARK VINA RESULT:      -7.8      2.722      6.970
REMARK  Name = 
REMARK  4 active torsions:
REMARK  status: ('A' for Active; 'I' for Inactive)
REMARK    1  A    between atoms: C_1  and  O_2
REMARK    2  A    between atoms: O_2  and  C_3
REMARK    3  A    between atoms: C_7  and  C_8
REMARK    4  A    between atoms: C_10  and  O_11
REMARK                            x       y       z     vdW  Elec       q    Type
REMARK                         _______ _______ _______ _____ _____    ______ ____
ROOT
ATOM      1  C   UNL     1       2.553   5.796  18.062  0.00  0.00    +0.000 C 
ATOM      2  C   UNL     1       2.879   4.747  19.059  0.00  0.00    +0.000 C 
ATOM      3  C   UNL     1       2.298   3.840  19.838  0.00  0.00    +0.000 C 
ATOM      4  O   UNL     1       3.130   3.000  20.568  0.00  0.00    +0.000 OA
ATOM      5  C   UNL     1       4.463   3.260  20.091  0.00  0.00    +0.000 C 
ATOM      6  C   UNL     1       4.288   4.569  19.414  0.00  0.00    +0.000 C 
ATOM      7  N   UNL     1       5.251   5.385  19.108  0.00  0.00    +0.000 NA
ATOM      8  C   UNL     1       5.000   6.283  18.010  0.00  0.00    +0.000 A 
ATOM      9  C   UNL     1       6.180   6.627  17.355  0.00  0.00    +0.000 A 
ATOM     10  C   UNL     1       6.430   5.875  16.237  0.00  0.00    +0.000 A 
ATOM     11  C   UNL     1       5.458   5.069  15.688  0.00  0.00    +0.000 A 
ATOM     12  C   UNL     1       4.136   5.138  16.112  0.00  0.00    +0.000 A 
ATOM     13  C   UNL     1       3.858   5.930  17.247  0.00  0.00    +0.000 A 
ATOM     14  O   UNL     1       5.994   4.168  14.817  0.00  0.00    +0.000 OA
ATOM     15  C   UNL     1       7.405   4.478  14.928  0.00  0.00    +0.000 C 
ATOM     16  O   UNL     1       7.663   5.662  15.705  0.00  0.00    +0.000 OA
ENDROOT
BRANCH   1  21
ATOM     17  C   UNL     1       1.458   8.345  20.791  0.00  0.00    +0.000 A 
ATOM     18  C   UNL     1       1.224   9.493  20.014  0.00  0.00    +0.000 A 
ATOM     19  C   UNL     1       1.398   9.445  18.634  0.00  0.00    +0.000 A 
ATOM     20  C   UNL     1       1.800   8.259  18.024  0.00  0.00    +0.000 A 
ATOM     21  C   UNL     1       2.047   7.084  18.760  0.00  0.00    +0.000 A 
ATOM     22  C   UNL     1       1.870   7.152  20.167  0.00  0.00    +0.000 A 
BRANCH  17  24
ATOM     23  C   UNL     1       0.107   9.330  22.495  0.00  0.00    +0.000 C 
ATOM     24  O   UNL     1       1.242   8.560  22.122  0.00  0.00    +0.000 OA
ENDBRANCH  17  24
ENDBRANCH   1  21
BRANCH   3  25
ATOM     25  O   UNL     1       0.946   3.720  19.995  0.00  0.00    +0.000 OA
ATOM     26  H   UNL     1       0.637   3.025  19.387  0.00  0.00    +0.000 HD
ENDBRANCH   3  25
TORSDOF 3
ENDMDL
MODEL 5
REMARK VINA RESULT:      -7.5      2.635      4.984
REMARK  Name = 
REMARK  4 active torsions:
REMARK  status: ('A' for Active; 'I' for Inactive)
REMARK    1  A    between atoms: C_1  and  O_2
REMARK    2  A    between atoms: O_2  and  C_3
REMARK    3  A    between atoms: C_7  and  C_8
REMARK    4  A    between atoms: C_10  and  O_11
REMARK                            x       y       z     vdW  Elec       q    Type
REMARK                         _______ _______ _______ _____ _____    ______ ____
ROOT
ATOM      1  C   UNL     1       3.984   4.989  19.500  0.00  0.00    +0.000 C 
ATOM      2  C   UNL     1       2.928   4.048  19.052  0.00  0.00    +0.000 C 
ATOM      3  C   UNL     1       2.586   2.765  19.118  0.00  0.00    +0.000 C 
ATOM      4  O   UNL     1       1.370   2.400  18.555  0.00  0.00    +0.000 OA
ATOM      5  C   UNL     1       0.716   3.633  18.206  0.00  0.00    +0.000 C 
ATOM      6  C   UNL     1       1.851   4.589  18.222  0.00  0.00    +0.000 C 
ATOM      7  N   UNL     1       1.849   5.759  17.658  0.00  0.00    +0.000 NA
ATOM      8  C   UNL     1       2.747   6.737  18.218  0.00  0.00    +0.000 A 
ATOM      9  C   UNL     1       2.265   8.031  18.037  0.00  0.00    +0.000 A 
ATOM     10  C   UNL     1       1.594   8.526  19.124  0.00  0.00    +0.000 A 
ATOM     11  C   UNL     1       1.655   7.897  20.347  0.00  0.00    +0.000 A 
ATOM     12  C   UNL     1       2.552   6.863  20.586  0.00  0.00    +0.000 A 
ATOM     13  C   UNL     1       3.271   6.359  19.480  0.00  0.00    +0.000 A 
ATOM     14  O   UNL     1       0.670   8.337  21.181  0.00  0.00    +0.000 OA
ATOM     15  C   UNL     1      -0.029   9.270  20.320  0.00  0.00    +0.000 C 
ATOM     16  O   UNL     1       0.652   9.506  19.074  0.00  0.00    +0.000 OA
ENDROOT
BRANCH   1  21
ATOM     17  C   UNL     1       6.341   4.267  16.488  0.00  0.00    +0.000 A 
ATOM     18  C   UNL     1       7.566   4.752  16.978  0.00  0.00    +0.000 A 
ATOM     19  C   UNL     1       7.638   5.286  18.261  0.00  0.00    +0.000 A 
ATOM     20  C   UNL     1       6.498   5.336  19.059  0.00  0.00    +0.000 A 
ATOM     21  C   UNL     1       5.249   4.864  18.613  0.00  0.00    +0.000 A 
ATOM     22  C   UNL     1       5.192   4.327  17.300  0.00  0.00    +0.000 A 
BRANCH  17  24
ATOM     23  C   UNL     1       6.786   4.685  14.181  0.00  0.00    +0.000 C 
ATOM     24  O   UNL     1       6.441   3.777  15.218  0.00  0.00    +0.000 OA
ENDBRANCH  17  24
ENDBRANCH   1  21
BRANCH   3  25
ATOM     25  O   UNL     1       3.377   1.790  19.661  0.00  0.00    +0.000 OA
ATOM     26  H   UNL     1       3.480   1.986  20.609  0.00  0.00    +0.000 HD
ENDBRANCH   3  25
TORSDOF 3
ENDMDL
MODEL 6
REMARK VINA RESULT:      -7.3      2.420      4.428
REMARK  Name = 
REMARK  4 active torsions:
REMARK  status: ('A' for Active; 'I' for Inactive)
REMARK    1  A    between atoms: C_1  and  O_2
REMARK    2  A    between atoms: O_2  and  C_3
REMARK    3  A    between atoms: C_7  and  C_8
REMARK    4  A    between atoms: C_10  and  O_11
REMARK                            x       y       z     vdW  Elec       q    Type
REMARK                         _______ _______ _______ _____ _____    ______ ____
ROOT
ATOM      1  C   UNL     1       4.339   4.557  18.673  0.00  0.00    +0.000 C 
ATOM      2  C   UNL     1       3.225   3.589  18.527  0.00  0.00    +0.000 C 
ATOM      3  C   UNL     1       2.956   2.292  18.642  0.00  0.00    +0.000 C 
ATOM      4  O   UNL     1       1.637   1.896  18.456  0.00  0.00    +0.000 OA
ATOM      5  C   UNL     1       0.873   3.111  18.368  0.00  0.00    +0.000 C 
ATOM      6  C   UNL     1       1.932   4.111  18.080  0.00  0.00    +0.000 C 
ATOM      7  N   UNL     1       1.727   5.295  17.589  0.00  0.00    +0.000 NA
ATOM      8  C   UNL     1       2.723   6.292  17.891  0.00  0.00    +0.000 A 
ATOM      9  C   UNL     1       2.172   7.570  17.915  0.00  0.00    +0.000 A 
ATOM     10  C   UNL     1       1.846   8.007  19.171  0.00  0.00    +0.000 A 
ATOM     11  C   UNL     1       2.290   7.346  20.295  0.00  0.00    +0.000 A 
ATOM     12  C   UNL     1       3.247   6.341  20.212  0.00  0.00    +0.000 A 
ATOM     13  C   UNL     1       3.614   5.898  18.922  0.00  0.00    +0.000 A 
ATOM     14  O   UNL     1       1.590   7.723  21.402  0.00  0.00    +0.000 OA
ATOM     15  C   UNL     1       0.638   8.652  20.828  0.00  0.00    +0.000 C 
ATOM     16  O   UNL     1       0.904   8.950  19.445  0.00  0.00    +0.000 OA
ENDROOT
BRANCH   1  21
ATOM     17  C   UNL     1       5.652   4.264  15.022  0.00  0.00    +0.000 A 
ATOM     18  C   UNL     1       7.020   4.533  15.201  0.00  0.00    +0.000 A 
ATOM     19  C   UNL     1       7.516   4.787  16.476  0.00  0.00    +0.000 A 
ATOM     20  C   UNL     1       6.658   4.771  17.573  0.00  0.00    +0.000 A 
ATOM     21  C   UNL     1       5.281   4.508  17.443  0.00  0.00    +0.000 A 
ATOM     22  C   UNL     1       4.790   4.255  16.136  0.00  0.00    +0.000 A 
BRANCH  17  24
ATOM     23  C   UNL     1       6.374   3.657  12.829  0.00  0.00    +0.000 C 
ATOM     24  O   UNL     1       5.330   4.036  13.715  0.00  0.00    +0.000 OA
ENDBRANCH  17  24
ENDBRANCH   1  21
BRANCH   3  25
ATOM     25  O   UNL     1       3.900   1.334  18.884  0.00  0.00    +0.000 OA
ATOM     26  H   UNL     1       3.924   0.740  18.112  0.00  0.00    +0.000 HD
ENDBRANCH   3  25
TORSDOF 3
ENDMDL
MODEL 7
REMARK VINA RESULT:      -7.3      7.348      9.247
REMARK  Name = 
REMARK  4 active torsions:
REMARK  status: ('A' for Active; 'I' for Inactive)
REMARK    1  A    between atoms: C_1  and  O_2
REMARK    2  A    between atoms: O_2  and  C_3
REMARK    3  A    between atoms: C_7  and  C_8
REMARK    4  A    between atoms: C_10  and  O_11
REMARK                            x       y       z     vdW  Elec       q    Type
REMARK                         _______ _______ _______ _____ _____    ______ ____
ROOT
ATOM      1  C   UNL     1       0.352  11.048  19.013  0.00  0.00    +0.000 C 
ATOM      2  C   UNL     1       1.267  12.205  19.170  0.00  0.00    +0.000 C 
ATOM      3  C   UNL     1       2.109  12.964  18.474  0.00  0.00    +0.000 C 
ATOM      4  O   UNL     1       2.687  14.042  19.132  0.00  0.00    +0.000 OA
ATOM      5  C   UNL     1       2.017  14.130  20.402  0.00  0.00    +0.000 C 
ATOM      6  C   UNL     1       1.399  12.784  20.508  0.00  0.00    +0.000 C 
ATOM      7  N   UNL     1       0.966  12.247  21.607  0.00  0.00    +0.000 NA
ATOM      8  C   UNL     1      -0.065  11.249  21.466  0.00  0.00    +0.000 A 
ATOM      9  C   UNL     1      -0.885  11.204  22.590  0.00  0.00    +0.000 A 
ATOM     10  C   UNL     1      -2.042  11.925  22.458  0.00  0.00    +0.000 A 
ATOM     11  C   UNL     1      -2.452  12.398  21.231  0.00  0.00    +0.000 A 
ATOM     12  C   UNL     1      -1.829  11.996  20.056  0.00  0.00    +0.000 A 
ATOM     13  C   UNL     1      -0.650  11.228  20.175  0.00  0.00    +0.000 A 
ATOM     14  O   UNL     1      -3.411  13.357  21.364  0.00  0.00    +0.000 OA
ATOM     15  C   UNL     1      -3.512  13.454  22.807  0.00  0.00    +0.000 C 
ATOM     16  O   UNL     1      -2.760  12.436  23.494  0.00  0.00    +0.000 OA
ENDROOT
BRANCH   1  21
ATOM     17  C   UNL     1       1.785   7.574  20.025  0.00  0.00    +0.000 A 
ATOM     18  C   UNL     1       2.518   7.236  18.875  0.00  0.00    +0.000 A 
ATOM     19  C   UNL     1       2.567   8.116  17.799  0.00  0.00    +0.000 A 
ATOM     20  C   UNL     1       1.892   9.333  17.863  0.00  0.00    +0.000 A 
ATOM     21  C   UNL     1       1.144   9.716  18.993  0.00  0.00    +0.000 A 
ATOM     22  C   UNL     1       1.101   8.804  20.080  0.00  0.00    +0.000 A 
BRANCH  17  24
ATOM     23  C   UNL     1       1.877   5.250  20.562  0.00  0.00    +0.000 C 
ATOM     24  O   UNL     1       1.840   6.606  20.986  0.00  0.00    +0.000 OA
ENDBRANCH  17  24
ENDBRANCH   1  21
BRANCH   3  25
ATOM     25  O   UNL     1       2.468  12.716  17.178  0.00  0.00    +0.000 OA
ATOM     26  H   UNL     1       2.918  11.853  17.155  0.00  0.00    +0.000 HD
ENDBRANCH   3  25
TORSDOF 3
ENDMDL
MODEL 8
REMARK VINA RESULT:      -7.2      7.435      9.199
REMARK  Name = 
REMARK  4 active torsions:
REMARK  status: ('A' for Active; 'I' for Inactive)
REMARK    1  A    between atoms: C_1  and  O_2
REMARK    2  A    between atoms: O_2  and  C_3
REMARK    3  A    between atoms: C_7  and  C_8
REMARK    4  A    between atoms: C_10  and  O_11
REMARK                            x       y       z     vdW  Elec       q    Type
REMARK                         _______ _______ _______ _____ _____    ______ ____
ROOT
ATOM      1  C   UNL     1       0.269  10.885  19.097  0.00  0.00    +0.000 C 
ATOM      2  C   UNL     1       1.237  12.006  19.183  0.00  0.00    +0.000 C 
ATOM      3  C   UNL     1       2.161  12.636  18.464  0.00  0.00    +0.000 C 
ATOM      4  O   UNL     1       2.759  13.753  19.033  0.00  0.00    +0.000 OA
ATOM      5  C   UNL     1       2.020  14.021  20.238  0.00  0.00    +0.000 C 
ATOM      6  C   UNL     1       1.321  12.729  20.453  0.00  0.00    +0.000 C 
ATOM      7  N   UNL     1       0.793  12.344  21.575  0.00  0.00    +0.000 NA
ATOM      8  C   UNL     1      -0.282  11.389  21.479  0.00  0.00    +0.000 A 
ATOM      9  C   UNL     1      -1.171  11.515  22.544  0.00  0.00    +0.000 A 
ATOM     10  C   UNL     1      -2.274  12.273  22.255  0.00  0.00    +0.000 A 
ATOM     11  C   UNL     1      -2.582  12.621  20.958  0.00  0.00    +0.000 A 
ATOM     12  C   UNL     1      -1.913  12.054  19.879  0.00  0.00    +0.000 A 
ATOM     13  C   UNL     1      -0.789  11.248  20.162  0.00  0.00    +0.000 A 
ATOM     14  O   UNL     1      -3.492  13.635  20.918  0.00  0.00    +0.000 OA
ATOM     15  C   UNL     1      -3.673  13.903  22.331  0.00  0.00    +0.000 C 
ATOM     16  O   UNL     1      -3.024  12.936  23.177  0.00  0.00    +0.000 OA
ENDROOT
BRANCH   1  21
ATOM     17  C   UNL     1       2.496   7.756  18.471  0.00  0.00    +0.000 A 
ATOM     18  C   UNL     1       2.362   7.076  19.693  0.00  0.00    +0.000 A 
ATOM     19  C   UNL     1       1.556   7.604  20.697  0.00  0.00    +0.000 A 
ATOM     20  C   UNL     1       0.880   8.804  20.487  0.00  0.00    +0.000 A 
ATOM     21  C   UNL     1       0.984   9.522  19.280  0.00  0.00    +0.000 A 
ATOM     22  C   UNL     1       1.814   8.971  18.269  0.00  0.00    +0.000 A 
BRANCH  17  24
ATOM     23  C   UNL     1       3.765   5.803  17.948  0.00  0.00    +0.000 C 
ATOM     24  O   UNL     1       3.318   7.105  17.597  0.00  0.00    +0.000 OA
ENDBRANCH  17  24
ENDBRANCH   1  21
BRANCH   3  25
ATOM     25  O   UNL     1       2.584  12.222  17.231  0.00  0.00    +0.000 OA
ATOM     26  H   UNL     1       2.201  12.825  16.569  0.00  0.00    +0.000 HD
ENDBRANCH   3  25
TORSDOF 3
ENDMDL
MODEL 9
REMARK VINA RESULT:      -6.8      2.684      5.260
REMARK  Name = 
REMARK  4 active torsions:
REMARK  status: ('A' for Active; 'I' for Inactive)
REMARK    1  A    between atoms: C_1  and  O_2
REMARK    2  A    between atoms: O_2  and  C_3
REMARK    3  A    between atoms: C_7  and  C_8
REMARK    4  A    between atoms: C_10  and  O_11
REMARK                            x       y       z     vdW  Elec       q    Type
REMARK                         _______ _______ _______ _____ _____    ______ ____
ROOT
ATOM      1  C   UNL     1       4.037   5.087  19.092  0.00  0.00    +0.000 C 
ATOM      2  C   UNL     1       2.987   4.097  18.747  0.00  0.00    +0.000 C 
ATOM      3  C   UNL     1       2.753   2.789  18.754  0.00  0.00    +0.000 C 
ATOM      4  O   UNL     1       1.485   2.366  18.374  0.00  0.00    +0.000 OA
ATOM      5  C   UNL     1       0.694   3.563  18.255  0.00  0.00    +0.000 C 
ATOM      6  C   UNL     1       1.745   4.607  18.165  0.00  0.00    +0.000 C 
ATOM      7  N   UNL     1       1.562   5.813  17.718  0.00  0.00    +0.000 NA
ATOM      8  C   UNL     1       2.474   6.818  18.204  0.00  0.00    +0.000 A 
ATOM      9  C   UNL     1       1.878   8.076  18.226  0.00  0.00    +0.000 A 
ATOM     10  C   UNL     1       1.377   8.427  19.452  0.00  0.00    +0.000 A 
ATOM     11  C   UNL     1       1.696   7.713  20.585  0.00  0.00    +0.000 A 
ATOM     12  C   UNL     1       2.692   6.742  20.572  0.00  0.00    +0.000 A 
ATOM     13  C   UNL     1       3.238   6.388  19.319  0.00  0.00    +0.000 A 
ATOM     14  O   UNL     1       0.846   8.002  21.611  0.00  0.00    +0.000 OA
ATOM     15  C   UNL     1      -0.057   8.936  20.969  0.00  0.00    +0.000 C 
ATOM     16  O   UNL     1       0.374   9.325  19.652  0.00  0.00    +0.000 OA
ENDROOT
BRANCH   1  21
ATOM     17  C   UNL     1       7.078   6.216  16.942  0.00  0.00    +0.000 A 
ATOM     18  C   UNL     1       7.189   5.143  16.041  0.00  0.00    +0.000 A 
ATOM     19  C   UNL     1       6.291   4.082  16.111  0.00  0.00    +0.000 A 
ATOM     20  C   UNL     1       5.282   4.086  17.071  0.00  0.00    +0.000 A 
ATOM     21  C   UNL     1       5.131   5.138  17.995  0.00  0.00    +0.000 A 
ATOM     22  C   UNL     1       6.058   6.210  17.914  0.00  0.00    +0.000 A 
BRANCH  17  24
ATOM     23  C   UNL     1       7.989   8.336  17.553  0.00  0.00    +0.000 C 
ATOM     24  O   UNL     1       8.031   7.172  16.739  0.00  0.00    +0.000 OA
ENDBRANCH  17  24
ENDBRANCH   1  21
BRANCH   3  25
ATOM     25  O   UNL     1       3.693   1.845  19.063  0.00  0.00    +0.000 OA
ATOM     26  H   UNL     1       4.151   1.602  18.239  0.00  0.00    +0.000 HD
ENDBRANCH   3  25
TORSDOF 3
ENDMDL
