MODEL 1
REMARK VINA RESULT:      -7.5      0.000      0.000
REMARK  Name = 
REMARK  9 active torsions:
REMARK  status: ('A' for Active; 'I' for Inactive)
REMARK    1  A    between atoms: C_1  and  O_2
REMARK    2  A    between atoms: O_2  and  C_3
REMARK    3  A    between atoms: C_8  and  N_9
REMARK    4  A    between atoms: N_12  and  C_13
REMARK    5  A    between atoms: C_13  and  C_14
REMARK    6  A    between atoms: C_14  and  C_15
REMARK    7  A    between atoms: C_15  and  C_16
REMARK    8  A    between atoms: C_16  and  O_17
REMARK    9  A    between atoms: O_17  and  C_18
REMARK                            x       y       z     vdW  Elec       q    Type
REMARK                         _______ _______ _______ _____ _____    ______ ____
ROOT
ATOM      1  N   UNL     1       4.857   5.092  18.158  0.00  0.00    +0.000 N 
ATOM      2  C   UNL     1       6.219   4.621  18.430  0.00  0.00    +0.000 C 
ATOM      3  C   UNL     1       7.131   4.986  17.239  0.00  0.00    +0.000 C 
ATOM      4  N   UNL     1       7.171   6.444  16.940  0.00  0.00    +0.000 NA
ATOM      5  C   UNL     1       5.776   6.890  16.706  0.00  0.00    +0.000 C 
ATOM      6  C   UNL     1       4.755   6.519  17.812  0.00  0.00    +0.000 C 
ENDROOT
BRANCH   1  12
ATOM      7  C   UNL     1       2.682   4.522  19.212  0.00  0.00    +0.000 A 
ATOM      8  C   UNL     1       1.598   3.630  19.310  0.00  0.00    +0.000 A 
ATOM      9  C   UNL     1       1.526   2.502  18.500  0.00  0.00    +0.000 A 
ATOM     10  C   UNL     1       2.537   2.251  17.589  0.00  0.00    +0.000 A 
ATOM     11  C   UNL     1       3.620   3.128  17.490  0.00  0.00    +0.000 A 
ATOM     12  C   UNL     1       3.739   4.281  18.294  0.00  0.00    +0.000 A 
BRANCH   7  14
ATOM     13  C   UNL     1       1.591   5.975  20.742  0.00  0.00    +0.000 C 
ATOM     14  O   UNL     1       2.793   5.586  20.083  0.00  0.00    +0.000 OA
ENDBRANCH   7  14
ENDBRANCH   1  12
BRANCH   4  15
ATOM     15  C   UNL     1       7.815   7.221  18.007  0.00  0.00    +0.000 C 
BRANCH  15  16
ATOM     16  C   UNL     1       7.936   8.715  17.659  0.00  0.00    +0.000 C 
BRANCH  16  17
ATOM     17  C   UNL     1       8.802   9.509  18.641  0.00  0.00    +0.000 C 
BRANCH  17  18
ATOM     18  C   UNL     1       9.064  10.922  18.138  0.00  0.00    +0.000 C 
BRANCH  18  19
ATOM     19  O   UNL     1      10.469  11.149  18.089  0.00  0.00    +0.000 OA
BRANCH  19  20
ATOM     20  C   UNL     1      10.842  12.454  18.272  0.00  0.00    +0.000 A 
ATOM     21  C   UNL     1      10.823  13.236  17.116  0.00  0.00    +0.000 A 
ATOM     22  C   UNL     1      11.191  14.577  17.171  0.00  0.00    +0.000 A 
ATOM     23  C   UNL     1      11.560  15.139  18.386  0.00  0.00    +0.000 A 
ATOM     24  F   UNL     1      11.920  16.428  18.439  0.00  0.00    +0.000 F 
ATOM     25  C   UNL     1      11.560  14.380  19.551  0.00  0.00    +0.000 A 
ATOM     26  C   UNL     1      11.195  13.033  19.495  0.00  0.00    +0.000 A 
ENDBRANCH  19  20
ENDBRANCH  18  19
ENDBRANCH  17  18
ENDBRANCH  16  17
ENDBRANCH  15  16
ENDBRANCH   4  15
TORSDOF 8
ENDMDL
MODEL 2
REMARK VINA RESULT:      -7.5      1.400      1.981
REMARK  Name = 
REMARK  9 active torsions:
REMARK  status: ('A' for Active; 'I' for Inactive)
REMARK    1  A    between atoms: C_1  and  O_2
REMARK    2  A    between atoms: O_2  and  C_3
REMARK    3  A    between atoms: C_8  and  N_9
REMARK    4  A    between atoms: N_12  and  C_13
REMARK    5  A    between atoms: C_13  and  C_14
REMARK    6  A    between atoms: C_14  and  C_15
REMARK    7  A    between atoms: C_15  and  C_16
REMARK    8  A    between atoms: C_16  and  O_17
REMARK    9  A    between atoms: O_17  and  C_18
REMARK                            x       y       z     vdW  Elec       q    Type
REMARK                         _______ _______ _______ _____ _____    ______ ____
ROOT
ATOM      1  N   UNL     1       4.745   4.984  18.169  0.00  0.00    +0.000 N 
ATOM      2  C   UNL     1       5.409   5.775  19.210  0.00  0.00    +0.000 C 
ATOM      3  C   UNL     1       6.931   5.528  19.146  0.00  0.00    +0.000 C 
ATOM      4  N   UNL     1       7.535   5.857  17.825  0.00  0.00    +0.000 NA
ATOM      5  C   UNL     1       6.818   5.066  16.796  0.00  0.00    +0.000 C 
ATOM      6  C   UNL     1       5.272   5.187  16.809  0.00  0.00    +0.000 C 
ENDROOT
BRANCH   1  12
ATOM      7  C   UNL     1       3.687   3.029  19.274  0.00  0.00    +0.000 A 
ATOM      8  C   UNL     1       2.540   2.232  19.453  0.00  0.00    +0.000 A 
ATOM      9  C   UNL     1       1.345   2.548  18.819  0.00  0.00    +0.000 A 
ATOM     10  C   UNL     1       1.282   3.659  17.995  0.00  0.00    +0.000 A 
ATOM     11  C   UNL     1       2.418   4.451  17.807  0.00  0.00    +0.000 A 
ATOM     12  C   UNL     1       3.653   4.167  18.425  0.00  0.00    +0.000 A 
BRANCH   7  14
ATOM     13  C   UNL     1       4.862   1.487  20.645  0.00  0.00    +0.000 C 
ATOM     14  O   UNL     1       4.892   2.656  19.832  0.00  0.00    +0.000 OA
ENDBRANCH   7  14
ENDBRANCH   1  12
BRANCH   4  15
ATOM     15  C   UNL     1       7.494   7.295  17.529  0.00  0.00    +0.000 C 
BRANCH  15  16
ATOM     16  C   UNL     1       8.419   8.114  18.447  0.00  0.00    +0.000 C 
BRANCH  16  17
ATOM     17  C   UNL     1       8.426   9.613  18.136  0.00  0.00    +0.000 C 
BRANCH  17  18
ATOM     18  C   UNL     1       9.119  10.408  19.234  0.00  0.00    +0.000 C 
BRANCH  18  19
ATOM     19  O   UNL     1      10.471  10.649  18.855  0.00  0.00    +0.000 OA
BRANCH  19  20
ATOM     20  C   UNL     1      10.772  11.966  18.629  0.00  0.00    +0.000 A 
ATOM     21  C   UNL     1      11.012  12.718  19.781  0.00  0.00    +0.000 A 
ATOM     22  C   UNL     1      11.319  14.072  19.683  0.00  0.00    +0.000 A 
ATOM     23  C   UNL     1      11.402  14.669  18.431  0.00  0.00    +0.000 A 
ATOM     24  F   UNL     1      11.692  15.973  18.336  0.00  0.00    +0.000 F 
ATOM     25  C   UNL     1      11.189  13.929  17.274  0.00  0.00    +0.000 A 
ATOM     26  C   UNL     1      10.877  12.571  17.373  0.00  0.00    +0.000 A 
ENDBRANCH  19  20
ENDBRANCH  18  19
ENDBRANCH  17  18
ENDBRANCH  16  17
ENDBRANCH  15  16
ENDBRANCH   4  15
TORSDOF 8
ENDMDL
MODEL 3
REMARK VINA RESULT:      -7.5      0.918      1.150
REMARK  Name = 
REMARK  9 active torsions:
REMARK  status: ('A' for Active; 'I' for Inactive)
REMARK    1  A    between atoms: C_1  and  O_2
REMARK    2  A    between atoms: O_2  and  C_3
REMARK    3  A    between atoms: C_8  and  N_9
REMARK    4  A    between atoms: N_12  and  C_13
REMARK    5  A    between atoms: C_13  and  C_14
REMARK    6  A    between atoms: C_14  and  C_15
REMARK    7  A    between atoms: C_15  and  C_16
REMARK    8  A    between atoms: C_16  and  O_17
REMARK    9  A    between atoms: O_17  and  C_18
REMARK                            x       y       z     vdW  Elec       q    Type
REMARK                         _______ _______ _______ _____ _____    ______ ____
ROOT
ATOM      1  N   UNL     1       4.715   5.040  18.358  0.00  0.00    +0.000 N 
ATOM      2  C   UNL     1       5.978   4.659  19.001  0.00  0.00    +0.000 C 
ATOM      3  C   UNL     1       7.118   4.728  17.963  0.00  0.00    +0.000 C 
ATOM      4  N   UNL     1       7.277   6.068  17.335  0.00  0.00    +0.000 NA
ATOM      5  C   UNL     1       5.975   6.435  16.728  0.00  0.00    +0.000 C 
ATOM      6  C   UNL     1       4.743   6.339  17.665  0.00  0.00    +0.000 C 
ENDROOT
BRANCH   1  12
ATOM      7  C   UNL     1       2.545   4.492  19.431  0.00  0.00    +0.000 A 
ATOM      8  C   UNL     1       1.417   3.653  19.487  0.00  0.00    +0.000 A 
ATOM      9  C   UNL     1       1.259   2.608  18.584  0.00  0.00    +0.000 A 
ATOM     10  C   UNL     1       2.227   2.387  17.620  0.00  0.00    +0.000 A 
ATOM     11  C   UNL     1       3.354   3.212  17.562  0.00  0.00    +0.000 A 
ATOM     12  C   UNL     1       3.559   4.280  18.460  0.00  0.00    +0.000 A 
BRANCH   7  14
ATOM     13  C   UNL     1       2.074   6.704  20.157  0.00  0.00    +0.000 C 
ATOM     14  O   UNL     1       2.740   5.466  20.389  0.00  0.00    +0.000 OA
ENDBRANCH   7  14
ENDBRANCH   1  12
BRANCH   4  15
ATOM     15  C   UNL     1       7.734   7.087  18.290  0.00  0.00    +0.000 C 
BRANCH  15  16
ATOM     16  C   UNL     1       8.063   8.428  17.610  0.00  0.00    +0.000 C 
BRANCH  16  17
ATOM     17  C   UNL     1       8.874   9.384  18.490  0.00  0.00    +0.000 C 
BRANCH  17  18
ATOM     18  C   UNL     1       8.453  10.832  18.276  0.00  0.00    +0.000 C 
BRANCH  18  19
ATOM     19  O   UNL     1       9.272  11.680  19.074  0.00  0.00    +0.000 OA
BRANCH  19  20
ATOM     20  C   UNL     1       9.897  12.684  18.383  0.00  0.00    +0.000 A 
ATOM     21  C   UNL     1       9.538  13.975  18.773  0.00  0.00    +0.000 A 
ATOM     22  C   UNL     1      10.097  15.080  18.138  0.00  0.00    +0.000 A 
ATOM     23  C   UNL     1      11.029  14.892  17.125  0.00  0.00    +0.000 A 
ATOM     24  F   UNL     1      11.563  15.954  16.509  0.00  0.00    +0.000 F 
ATOM     25  C   UNL     1      11.414  13.613  16.741  0.00  0.00    +0.000 A 
ATOM     26  C   UNL     1      10.850  12.504  17.375  0.00  0.00    +0.000 A 
ENDBRANCH  19  20
ENDBRANCH  18  19
ENDBRANCH  17  18
ENDBRANCH  16  17
ENDBRANCH  15  16
ENDBRANCH   4  15
TORSDOF 8
ENDMDL
MODEL 4
REMARK VINA RESULT:      -7.4      1.315      1.594
REMARK  Name = 
REMARK  9 active torsions:
REMARK  status: ('A' for Active; 'I' for Inactive)
REMARK    1  A    between atoms: C_1  and  O_2
REMARK    2  A    between atoms: O_2  and  C_3
REMARK    3  A    between atoms: C_8  and  N_9
REMARK    4  A    between atoms: N_12  and  C_13
REMARK    5  A    between atoms: C_13  and  C_14
REMARK    6  A    between atoms: C_14  and  C_15
REMARK    7  A    between atoms: C_15  and  C_16
REMARK    8  A    between atoms: C_16  and  O_17
REMARK    9  A    between atoms: O_17  and  C_18
REMARK                            x       y       z     vdW  Elec       q    Type
REMARK                         _______ _______ _______ _____ _____    ______ ____
ROOT
ATOM      1  N   UNL     1       4.688   4.619  17.640  0.00  0.00    +0.000 N 
ATOM      2  C   UNL     1       5.593   5.263  18.599  0.00  0.00    +0.000 C 
ATOM      3  C   UNL     1       7.049   4.877  18.264  0.00  0.00    +0.000 C 
ATOM      4  N   UNL     1       7.464   5.245  16.882  0.00  0.00    +0.000 NA
ATOM      5  C   UNL     1       6.509   4.607  15.944  0.00  0.00    +0.000 C 
ATOM      6  C   UNL     1       5.007   4.874  16.225  0.00  0.00    +0.000 C 
ENDROOT
BRANCH   1  12
ATOM      7  C   UNL     1       2.315   4.470  18.351  0.00  0.00    +0.000 A 
ATOM      8  C   UNL     1       1.240   3.663  18.769  0.00  0.00    +0.000 A 
ATOM      9  C   UNL     1       1.377   2.283  18.859  0.00  0.00    +0.000 A 
ATOM     10  C   UNL     1       2.588   1.694  18.539  0.00  0.00    +0.000 A 
ATOM     11  C   UNL     1       3.662   2.490  18.129  0.00  0.00    +0.000 A 
ATOM     12  C   UNL     1       3.572   3.893  18.028  0.00  0.00    +0.000 A 
BRANCH   7  14
ATOM     13  C   UNL     1       2.370   6.478  19.619  0.00  0.00    +0.000 C 
ATOM     14  O   UNL     1       2.199   5.845  18.354  0.00  0.00    +0.000 OA
ENDBRANCH   7  14
ENDBRANCH   1  12
BRANCH   4  15
ATOM     15  C   UNL     1       7.529   6.699  16.682  0.00  0.00    +0.000 C 
BRANCH  15  16
ATOM     16  C   UNL     1       7.925   7.455  17.962  0.00  0.00    +0.000 C 
BRANCH  16  17
ATOM     17  C   UNL     1       7.925   8.978  17.805  0.00  0.00    +0.000 C 
BRANCH  17  18
ATOM     18  C   UNL     1       8.909   9.638  18.762  0.00  0.00    +0.000 C 
BRANCH  18  19
ATOM     19  O   UNL     1       9.555  10.719  18.096  0.00  0.00    +0.000 OA
BRANCH  19  20
ATOM     20  C   UNL     1       9.929  11.750  18.916  0.00  0.00    +0.000 A 
ATOM     21  C   UNL     1      10.210  12.949  18.259  0.00  0.00    +0.000 A 
ATOM     22  C   UNL     1      10.611  14.068  18.983  0.00  0.00    +0.000 A 
ATOM     23  C   UNL     1      10.713  13.991  20.366  0.00  0.00    +0.000 A 
ATOM     24  F   UNL     1      11.104  15.066  21.063  0.00  0.00    +0.000 F 
ATOM     25  C   UNL     1      10.413  12.812  21.037  0.00  0.00    +0.000 A 
ATOM     26  C   UNL     1      10.016  11.687  20.311  0.00  0.00    +0.000 A 
ENDBRANCH  19  20
ENDBRANCH  18  19
ENDBRANCH  17  18
ENDBRANCH  16  17
ENDBRANCH  15  16
ENDBRANCH   4  15
TORSDOF 8
ENDMDL
MODEL 5
REMARK VINA RESULT:      -7.4      1.414      2.248
REMARK  Name = 
REMARK  9 active torsions:
REMARK  status: ('A' for Active; 'I' for Inactive)
REMARK    1  A    between atoms: C_1  and  O_2
REMARK    2  A    between atoms: O_2  and  C_3
REMARK    3  A    between atoms: C_8  and  N_9
REMARK    4  A    between atoms: N_12  and  C_13
REMARK    5  A    between atoms: C_13  and  C_14
REMARK    6  A    between atoms: C_14  and  C_15
REMARK    7  A    between atoms: C_15  and  C_16
REMARK    8  A    between atoms: C_16  and  O_17
REMARK    9  A    between atoms: O_17  and  C_18
REMARK                            x       y       z     vdW  Elec       q    Type
REMARK                         _______ _______ _______ _____ _____    ______ ____
ROOT
ATOM      1  N   UNL     1       4.326   5.104  18.302  0.00  0.00    +0.000 N 
ATOM      2  C   UNL     1       5.497   4.238  18.124  0.00  0.00    +0.000 C 
ATOM      3  C   UNL     1       5.927   4.261  16.642  0.00  0.00    +0.000 C 
ATOM      4  N   UNL     1       6.248   5.623  16.133  0.00  0.00    +0.000 NA
ATOM      5  C   UNL     1       5.057   6.478  16.361  0.00  0.00    +0.000 C 
ATOM      6  C   UNL     1       4.496   6.480  17.806  0.00  0.00    +0.000 C 
ENDROOT
BRANCH   1  12
ATOM      7  C   UNL     1       2.496   3.473  18.689  0.00  0.00    +0.000 A 
ATOM      8  C   UNL     1       1.313   3.144  19.377  0.00  0.00    +0.000 A 
ATOM      9  C   UNL     1       0.792   3.991  20.348  0.00  0.00    +0.000 A 
ATOM     10  C   UNL     1       1.443   5.178  20.638  0.00  0.00    +0.000 A 
ATOM     11  C   UNL     1       2.614   5.516  19.954  0.00  0.00    +0.000 A 
ATOM     12  C   UNL     1       3.176   4.690  18.958  0.00  0.00    +0.000 A 
BRANCH   7  14
ATOM     13  C   UNL     1       3.498   1.416  18.053  0.00  0.00    +0.000 C 
ATOM     14  O   UNL     1       2.953   2.673  17.662  0.00  0.00    +0.000 OA
ENDBRANCH   7  14
ENDBRANCH   1  12
BRANCH   4  15
ATOM     15  C   UNL     1       7.449   6.191  16.760  0.00  0.00    +0.000 C 
BRANCH  15  16
ATOM     16  C   UNL     1       7.285   7.681  17.108  0.00  0.00    +0.000 C 
BRANCH  16  17
ATOM     17  C   UNL     1       8.068   8.114  18.351  0.00  0.00    +0.000 C 
BRANCH  17  18
ATOM     18  C   UNL     1       8.562   9.549  18.227  0.00  0.00    +0.000 C 
BRANCH  18  19
ATOM     19  O   UNL     1       9.353   9.872  19.367  0.00  0.00    +0.000 OA
BRANCH  19  20
ATOM     20  C   UNL     1      10.075  11.029  19.250  0.00  0.00    +0.000 A 
ATOM     21  C   UNL     1      10.399  11.386  17.939  0.00  0.00    +0.000 A 
ATOM     22  C   UNL     1      11.140  12.538  17.690  0.00  0.00    +0.000 A 
ATOM     23  C   UNL     1      11.541  13.340  18.751  0.00  0.00    +0.000 A 
ATOM     24  F   UNL     1      12.258  14.446  18.512  0.00  0.00    +0.000 F 
ATOM     25  C   UNL     1      11.205  13.011  20.059  0.00  0.00    +0.000 A 
ATOM     26  C   UNL     1      10.466  11.853  20.309  0.00  0.00    +0.000 A 
ENDBRANCH  19  20
ENDBRANCH  18  19
ENDBRANCH  17  18
ENDBRANCH  16  17
ENDBRANCH  15  16
ENDBRANCH   4  15
TORSDOF 8
ENDMDL
MODEL 6
REMARK VINA RESULT:      -7.4      1.030      1.101
REMARK  Name = 
REMARK  9 active torsions:
REMARK  status: ('A' for Active; 'I' for Inactive)
REMARK    1  A    between atoms: C_1  and  O_2
REMARK    2  A    between atoms: O_2  and  C_3
REMARK    3  A    between atoms: C_8  and  N_9
REMARK    4  A    between atoms: N_12  and  C_13
REMARK    5  A    between atoms: C_13  and  C_14
REMARK    6  A    between atoms: C_14  and  C_15
REMARK    7  A    between atoms: C_15  and  C_16
REMARK    8  A    between atoms: C_16  and  O_17
REMARK    9  A    between atoms: O_17  and  C_18
REMARK                            x       y       z     vdW  Elec       q    Type
REMARK                         _______ _______ _______ _____ _____    ______ ____
ROOT
ATOM      1  N   UNL     1       4.615   5.177  18.018  0.00  0.00    +0.000 N 
ATOM      2  C   UNL     1       5.568   5.530  19.077  0.00  0.00    +0.000 C 
ATOM      3  C   UNL     1       7.004   5.451  18.517  0.00  0.00    +0.000 C 
ATOM      4  N   UNL     1       7.237   6.331  17.339  0.00  0.00    +0.000 NA
ATOM      5  C   UNL     1       6.237   5.970  16.305  0.00  0.00    +0.000 C 
ATOM      6  C   UNL     1       4.759   5.953  16.775  0.00  0.00    +0.000 C 
ENDROOT
BRANCH   1  12
ATOM      7  C   UNL     1       2.349   4.526  18.794  0.00  0.00    +0.000 A 
ATOM      8  C   UNL     1       1.390   3.511  18.966  0.00  0.00    +0.000 A 
ATOM      9  C   UNL     1       1.640   2.211  18.540  0.00  0.00    +0.000 A 
ATOM     10  C   UNL     1       2.853   1.911  17.943  0.00  0.00    +0.000 A 
ATOM     11  C   UNL     1       3.813   2.912  17.774  0.00  0.00    +0.000 A 
ATOM     12  C   UNL     1       3.605   4.242  18.195  0.00  0.00    +0.000 A 
BRANCH   7  14
ATOM     13  C   UNL     1       1.756   5.847  20.677  0.00  0.00    +0.000 C 
ATOM     14  O   UNL     1       2.129   5.789  19.303  0.00  0.00    +0.000 OA
ENDBRANCH   7  14
ENDBRANCH   1  12
BRANCH   4  15
ATOM     15  C   UNL     1       7.171   7.758  17.680  0.00  0.00    +0.000 C 
BRANCH  15  16
ATOM     16  C   UNL     1       8.564   8.392  17.845  0.00  0.00    +0.000 C 
BRANCH  16  17
ATOM     17  C   UNL     1       8.529   9.901  18.101  0.00  0.00    +0.000 C 
BRANCH  17  18
ATOM     18  C   UNL     1       9.145  10.253  19.449  0.00  0.00    +0.000 C 
BRANCH  18  19
ATOM     19  O   UNL     1      10.453  10.776  19.243  0.00  0.00    +0.000 OA
BRANCH  19  20
ATOM     20  C   UNL     1      10.485  12.017  18.664  0.00  0.00    +0.000 A 
ATOM     21  C   UNL     1      11.262  12.103  17.507  0.00  0.00    +0.000 A 
ATOM     22  C   UNL     1      11.381  13.314  16.832  0.00  0.00    +0.000 A 
ATOM     23  C   UNL     1      10.709  14.434  17.305  0.00  0.00    +0.000 A 
ATOM     24  F   UNL     1      10.828  15.601  16.659  0.00  0.00    +0.000 F 
ATOM     25  C   UNL     1       9.912  14.358  18.441  0.00  0.00    +0.000 A 
ATOM     26  C   UNL     1       9.796  13.144  19.122  0.00  0.00    +0.000 A 
ENDBRANCH  19  20
ENDBRANCH  18  19
ENDBRANCH  17  18
ENDBRANCH  16  17
ENDBRANCH  15  16
ENDBRANCH   4  15
TORSDOF 8
ENDMDL
MODEL 7
REMARK VINA RESULT:      -7.4      1.826      2.630
REMARK  Name = 
REMARK  9 active torsions:
REMARK  status: ('A' for Active; 'I' for Inactive)
REMARK    1  A    between atoms: C_1  and  O_2
REMARK    2  A    between atoms: O_2  and  C_3
REMARK    3  A    between atoms: C_8  and  N_9
REMARK    4  A    between atoms: N_12  and  C_13
REMARK    5  A    between atoms: C_13  and  C_14
REMARK    6  A    between atoms: C_14  and  C_15
REMARK    7  A    between atoms: C_15  and  C_16
REMARK    8  A    between atoms: C_16  and  O_17
REMARK    9  A    between atoms: O_17  and  C_18
REMARK                            x       y       z     vdW  Elec       q    Type
REMARK                         _______ _______ _______ _____ _____    ______ ____
ROOT
ATOM      1  N   UNL     1       4.238   4.788  18.732  0.00  0.00    +0.000 N 
ATOM      2  C   UNL     1       5.401   5.384  19.398  0.00  0.00    +0.000 C 
ATOM      3  C   UNL     1       6.692   4.806  18.783  0.00  0.00    +0.000 C 
ATOM      4  N   UNL     1       6.807   5.026  17.314  0.00  0.00    +0.000 NA
ATOM      5  C   UNL     1       5.600   4.442  16.679  0.00  0.00    +0.000 C 
ATOM      6  C   UNL     1       4.241   4.905  17.264  0.00  0.00    +0.000 C 
ENDROOT
BRANCH   1  12
ATOM      7  C   UNL     1       3.096   2.861  19.802  0.00  0.00    +0.000 A 
ATOM      8  C   UNL     1       1.966   2.366  20.479  0.00  0.00    +0.000 A 
ATOM      9  C   UNL     1       0.909   3.205  20.812  0.00  0.00    +0.000 A 
ATOM     10  C   UNL     1       0.967   4.545  20.469  0.00  0.00    +0.000 A 
ATOM     11  C   UNL     1       2.083   5.043  19.791  0.00  0.00    +0.000 A 
ATOM     12  C   UNL     1       3.176   4.229  19.428  0.00  0.00    +0.000 A 
BRANCH   7  14
ATOM     13  C   UNL     1       3.802   1.209  18.249  0.00  0.00    +0.000 C 
ATOM     14  O   UNL     1       4.097   2.005  19.393  0.00  0.00    +0.000 OA
ENDBRANCH   7  14
ENDBRANCH   1  12
BRANCH   4  15
ATOM     15  C   UNL     1       6.968   6.444  16.968  0.00  0.00    +0.000 C 
BRANCH  15  16
ATOM     16  C   UNL     1       7.828   7.208  17.990  0.00  0.00    +0.000 C 
BRANCH  16  17
ATOM     17  C   UNL     1       8.250   8.603  17.521  0.00  0.00    +0.000 C 
BRANCH  17  18
ATOM     18  C   UNL     1       8.716   9.467  18.687  0.00  0.00    +0.000 C 
BRANCH  18  19
ATOM     19  O   UNL     1       8.861  10.812  18.243  0.00  0.00    +0.000 OA
BRANCH  19  20
ATOM     20  C   UNL     1       9.302  11.683  19.204  0.00  0.00    +0.000 A 
ATOM     21  C   UNL     1       9.639  12.953  18.732  0.00  0.00    +0.000 A 
ATOM     22  C   UNL     1      10.110  13.925  19.611  0.00  0.00    +0.000 A 
ATOM     23  C   UNL     1      10.226  13.630  20.963  0.00  0.00    +0.000 A 
ATOM     24  F   UNL     1      10.684  14.563  21.808  0.00  0.00    +0.000 F 
ATOM     25  C   UNL     1       9.872  12.378  21.452  0.00  0.00    +0.000 A 
ATOM     26  C   UNL     1       9.404  11.402  20.570  0.00  0.00    +0.000 A 
ENDBRANCH  19  20
ENDBRANCH  18  19
ENDBRANCH  17  18
ENDBRANCH  16  17
ENDBRANCH  15  16
ENDBRANCH   4  15
TORSDOF 8
ENDMDL
MODEL 8
REMARK VINA RESULT:      -7.4      5.509      7.861
REMARK  Name = 
REMARK  9 active torsions:
REMARK  status: ('A' for Active; 'I' for Inactive)
REMARK    1  A    between atoms: C_1  and  O_2
REMARK    2  A    between atoms: O_2  and  C_3
REMARK    3  A    between atoms: C_8  and  N_9
REMARK    4  A    between atoms: N_12  and  C_13
REMARK    5  A    between atoms: C_13  and  C_14
REMARK    6  A    between atoms: C_14  and  C_15
REMARK    7  A    between atoms: C_15  and  C_16
REMARK    8  A    between atoms: C_16  and  O_17
REMARK    9  A    between atoms: O_17  and  C_18
REMARK                            x       y       z     vdW  Elec       q    Type
REMARK                         _______ _______ _______ _____ _____    ______ ____
ROOT
ATOM      1  N   UNL     1       4.401   3.654  17.649  0.00  0.00    +0.000 N 
ATOM      2  C   UNL     1       3.010   3.439  17.233  0.00  0.00    +0.000 C 
ATOM      3  C   UNL     1       2.561   2.028  17.666  0.00  0.00    +0.000 C 
ATOM      4  N   UNL     1       2.672   1.787  19.131  0.00  0.00    +0.000 NA
ATOM      5  C   UNL     1       4.079   2.047  19.521  0.00  0.00    +0.000 C 
ATOM      6  C   UNL     1       4.660   3.415  19.079  0.00  0.00    +0.000 C 
ENDROOT
BRANCH   1  12
ATOM      7  C   UNL     1       6.377   5.069  17.147  0.00  0.00    +0.000 A 
ATOM      8  C   UNL     1       7.317   5.518  16.201  0.00  0.00    +0.000 A 
ATOM      9  C   UNL     1       7.304   5.035  14.897  0.00  0.00    +0.000 A 
ATOM     10  C   UNL     1       6.351   4.103  14.524  0.00  0.00    +0.000 A 
ATOM     11  C   UNL     1       5.410   3.657  15.456  0.00  0.00    +0.000 A 
ATOM     12  C   UNL     1       5.381   4.123  16.787  0.00  0.00    +0.000 A 
BRANCH   7  14
ATOM     13  C   UNL     1       7.596   5.767  19.063  0.00  0.00    +0.000 C 
ATOM     14  O   UNL     1       6.338   5.622  18.410  0.00  0.00    +0.000 OA
ENDBRANCH   7  14
ENDBRANCH   1  12
BRANCH   4  15
ATOM     15  C   UNL     1       1.735   2.608  19.910  0.00  0.00    +0.000 C 
BRANCH  15  16
ATOM     16  C   UNL     1       2.384   3.213  21.167  0.00  0.00    +0.000 C 
BRANCH  16  17
ATOM     17  C   UNL     1       2.174   4.724  21.303  0.00  0.00    +0.000 C 
BRANCH  17  18
ATOM     18  C   UNL     1       1.928   5.377  19.950  0.00  0.00    +0.000 C 
BRANCH  18  19
ATOM     19  O   UNL     1       2.787   6.504  19.811  0.00  0.00    +0.000 OA
BRANCH  19  20
ATOM     20  C   UNL     1       2.140   7.687  19.569  0.00  0.00    +0.000 A 
ATOM     21  C   UNL     1       2.167   8.107  18.238  0.00  0.00    +0.000 A 
ATOM     22  C   UNL     1       1.552   9.300  17.867  0.00  0.00    +0.000 A 
ATOM     23  C   UNL     1       0.896  10.061  18.825  0.00  0.00    +0.000 A 
ATOM     24  F   UNL     1       0.309  11.211  18.470  0.00  0.00    +0.000 F 
ATOM     25  C   UNL     1       0.840   9.644  20.150  0.00  0.00    +0.000 A 
ATOM     26  C   UNL     1       1.461   8.450  20.523  0.00  0.00    +0.000 A 
ENDBRANCH  19  20
ENDBRANCH  18  19
ENDBRANCH  17  18
ENDBRANCH  16  17
ENDBRANCH  15  16
ENDBRANCH   4  15
TORSDOF 8
ENDMDL
MODEL 9
REMARK VINA RESULT:      -7.3      1.381      2.137
REMARK  Name = 
REMARK  9 active torsions:
REMARK  status: ('A' for Active; 'I' for Inactive)
REMARK    1  A    between atoms: C_1  and  O_2
REMARK    2  A    between atoms: O_2  and  C_3
REMARK    3  A    between atoms: C_8  and  N_9
REMARK    4  A    between atoms: N_12  and  C_13
REMARK    5  A    between atoms: C_13  and  C_14
REMARK    6  A    between atoms: C_14  and  C_15
REMARK    7  A    between atoms: C_15  and  C_16
REMARK    8  A    between atoms: C_16  and  O_17
REMARK    9  A    between atoms: O_17  and  C_18
REMARK                            x       y       z     vdW  Elec       q    Type
REMARK                         _______ _______ _______ _____ _____    ______ ____
ROOT
ATOM      1  N   UNL     1       4.533   5.388  18.902  0.00  0.00    +0.000 N 
ATOM      2  C   UNL     1       5.850   4.812  19.195  0.00  0.00    +0.000 C 
ATOM      3  C   UNL     1       6.682   4.756  17.896  0.00  0.00    +0.000 C 
ATOM      4  N   UNL     1       6.865   6.082  17.244  0.00  0.00    +0.000 NA
ATOM      5  C   UNL     1       5.516   6.648  16.995  0.00  0.00    +0.000 C 
ATOM      6  C   UNL     1       4.568   6.693  18.221  0.00  0.00    +0.000 C 
ENDROOT
BRANCH   1  12
ATOM      7  C   UNL     1       2.923   3.499  18.905  0.00  0.00    +0.000 A 
ATOM      8  C   UNL     1       1.685   2.984  19.332  0.00  0.00    +0.000 A 
ATOM      9  C   UNL     1       0.854   3.721  20.168  0.00  0.00    +0.000 A 
ATOM     10  C   UNL     1       1.248   4.983  20.581  0.00  0.00    +0.000 A 
ATOM     11  C   UNL     1       2.473   5.504  20.156  0.00  0.00    +0.000 A 
ATOM     12  C   UNL     1       3.345   4.795  19.304  0.00  0.00    +0.000 A 
BRANCH   7  14
ATOM     13  C   UNL     1       3.700   1.384  18.153  0.00  0.00    +0.000 C 
ATOM     14  O   UNL     1       3.697   2.801  18.002  0.00  0.00    +0.000 OA
ENDBRANCH   7  14
ENDBRANCH   1  12
BRANCH   4  15
ATOM     15  C   UNL     1       7.695   6.993  18.042  0.00  0.00    +0.000 C 
BRANCH  15  16
ATOM     16  C   UNL     1       7.547   8.462  17.607  0.00  0.00    +0.000 C 
BRANCH  16  17
ATOM     17  C   UNL     1       8.808   9.301  17.830  0.00  0.00    +0.000 C 
BRANCH  17  18
ATOM     18  C   UNL     1       8.745  10.064  19.146  0.00  0.00    +0.000 C 
BRANCH  18  19
ATOM     19  O   UNL     1      10.013  10.659  19.403  0.00  0.00    +0.000 OA
BRANCH  19  20
ATOM     20  C   UNL     1      10.250  11.815  18.708  0.00  0.00    +0.000 A 
ATOM     21  C   UNL     1      11.434  11.820  17.967  0.00  0.00    +0.000 A 
ATOM     22  C   UNL     1      11.791  12.942  17.225  0.00  0.00    +0.000 A 
ATOM     23  C   UNL     1      10.955  14.051  17.211  0.00  0.00    +0.000 A 
ATOM     24  F   UNL     1      11.301  15.133  16.501  0.00  0.00    +0.000 F 
ATOM     25  C   UNL     1       9.762  14.053  17.923  0.00  0.00    +0.000 A 
ATOM     26  C   UNL     1       9.406  12.929  18.671  0.00  0.00    +0.000 A 
ENDBRANCH  19  20
ENDBRANCH  18  19
ENDBRANCH  17  18
ENDBRANCH  16  17
ENDBRANCH  15  16
ENDBRANCH   4  15
TORSDOF 8
ENDMDL
