MODEL 1
REMARK VINA RESULT:      -8.1      0.000      0.000
REMARK  Name = 
REMARK  8 active torsions:
REMARK  status: ('A' for Active; 'I' for Inactive)
REMARK    1  A    between atoms: C_1  and  C_2
REMARK    2  A    between atoms: C_5  and  C_6
REMARK    3  A    between atoms: C_6  and  N_7
REMARK    4  A    between atoms: N_7  and  C_8
REMARK    5  A    between atoms: C_8  and  C_9
REMARK    6  A    between atoms: C_9  and  O_10
REMARK    7  A    between atoms: C_9  and  C_11
REMARK    8  A    between atoms: C_9  and  C_17
REMARK                            x       y       z     vdW  Elec       q    Type
REMARK                         _______ _______ _______ _____ _____    ______ ____
ROOT
ATOM      1  C   UNL     1       3.112   5.964  18.721  0.00  0.00    +0.000 C 
ENDROOT
BRANCH   1   2
ATOM      2  C   UNL     1       2.429   7.330  18.938  0.00  0.00    +0.000 A 
ATOM      3  C   UNL     1       1.874   7.692  20.179  0.00  0.00    +0.000 A 
ATOM      4  C   UNL     1       1.191   8.903  20.337  0.00  0.00    +0.000 A 
ATOM      5  C   UNL     1       1.056   9.769  19.258  0.00  0.00    +0.000 A 
ATOM      6 CL   UNL     1       0.194  11.246  19.442  0.00  0.00    +0.000 Cl
ATOM      7  C   UNL     1       1.613   9.443  18.025  0.00  0.00    +0.000 A 
ATOM      8  C   UNL     1       2.302   8.238  17.871  0.00  0.00    +0.000 A 
ENDBRANCH   1   2
BRANCH   1   9
ATOM      9  C   UNL     1       2.228   4.797  19.203  0.00  0.00    +0.000 A 
ATOM     10  C   UNL     1       2.074   4.476  20.560  0.00  0.00    +0.000 A 
ATOM     11  C   UNL     1       1.398   3.313  20.952  0.00  0.00    +0.000 A 
ATOM     12  C   UNL     1       0.872   2.446  19.998  0.00  0.00    +0.000 A 
ATOM     13  C   UNL     1       0.930   2.790  18.653  0.00  0.00    +0.000 A 
ATOM     14  C   UNL     1       1.565   3.975  18.265  0.00  0.00    +0.000 A 
ENDBRANCH   1   9
BRANCH   1  15
ATOM     15  O   UNL     1       3.307   5.766  17.300  0.00  0.00    +0.000 OA
ATOM     16  H   UNL     1       4.273   5.695  17.190  0.00  0.00    +0.000 HD
ENDBRANCH   1  15
BRANCH   1  17
ATOM     17  C   UNL     1       4.591   6.022  19.329  0.00  0.00    +0.000 C 
BRANCH  17  18
ATOM     18  N   UNL     1       5.394   4.785  19.171  0.00  0.00    +0.000 NA
ATOM     19  H   UNL     1       5.618   4.398  20.086  0.00  0.00    +0.000 HD
BRANCH  18  20
ATOM     20  C   UNL     1       6.654   5.015  18.444  0.00  0.00    +0.000 C 
BRANCH  20  25
ATOM     21  C   UNL     1       6.051   3.623  12.788  0.00  0.00    +0.000 C 
ATOM     22  C   UNL     1       6.190   3.985  14.239  0.00  0.00    +0.000 A 
ATOM     23  C   UNL     1       5.447   3.329  15.229  0.00  0.00    +0.000 A 
ATOM     24  C   UNL     1       5.593   3.670  16.571  0.00  0.00    +0.000 A 
ATOM     25  C   UNL     1       6.491   4.686  16.973  0.00  0.00    +0.000 A 
ATOM     26  C   UNL     1       7.210   5.356  15.970  0.00  0.00    +0.000 A 
ATOM     27  C   UNL     1       7.074   5.002  14.630  0.00  0.00    +0.000 A 
ENDBRANCH  20  25
ENDBRANCH  18  20
ENDBRANCH  17  18
ENDBRANCH   1  17
TORSDOF 7
ENDMDL
MODEL 2
REMARK VINA RESULT:      -8.0      0.335      1.019
REMARK  Name = 
REMARK  8 active torsions:
REMARK  status: ('A' for Active; 'I' for Inactive)
REMARK    1  A    between atoms: C_1  and  C_2
REMARK    2  A    between atoms: C_5  and  C_6
REMARK    3  A    between atoms: C_6  and  N_7
REMARK    4  A    between atoms: N_7  and  C_8
REMARK    5  A    between atoms: C_8  and  C_9
REMARK    6  A    between atoms: C_9  and  O_10
REMARK    7  A    between atoms: C_9  and  C_11
REMARK    8  A    between atoms: C_9  and  C_17
REMARK                            x       y       z     vdW  Elec       q    Type
REMARK                         _______ _______ _______ _____ _____    ______ ____
ROOT
ATOM      1  C   UNL     1       3.076   5.942  18.861  0.00  0.00    +0.000 C 
ENDROOT
BRANCH   1   2
ATOM      2  C   UNL     1       2.386   7.309  19.042  0.00  0.00    +0.000 A 
ATOM      3  C   UNL     1       1.895   7.732  20.291  0.00  0.00    +0.000 A 
ATOM      4  C   UNL     1       1.205   8.942  20.422  0.00  0.00    +0.000 A 
ATOM      5  C   UNL     1       0.996   9.746  19.307  0.00  0.00    +0.000 A 
ATOM      6 CL   UNL     1       0.123  11.220  19.460  0.00  0.00    +0.000 Cl
ATOM      7  C   UNL     1       1.487   9.360  18.064  0.00  0.00    +0.000 A 
ATOM      8  C   UNL     1       2.185   8.156  17.936  0.00  0.00    +0.000 A 
ENDBRANCH   1   2
BRANCH   1   9
ATOM      9  C   UNL     1       2.278   4.803  19.526  0.00  0.00    +0.000 A 
ATOM     10  C   UNL     1       2.362   4.523  20.898  0.00  0.00    +0.000 A 
ATOM     11  C   UNL     1       1.753   3.382  21.438  0.00  0.00    +0.000 A 
ATOM     12  C   UNL     1       1.057   2.498  20.618  0.00  0.00    +0.000 A 
ATOM     13  C   UNL     1       0.882   2.803  19.273  0.00  0.00    +0.000 A 
ATOM     14  C   UNL     1       1.452   3.966  18.744  0.00  0.00    +0.000 A 
ENDBRANCH   1   9
BRANCH   1  15
ATOM     15  O   UNL     1       3.123   5.633  17.447  0.00  0.00    +0.000 OA
ATOM     16  H   UNL     1       2.852   4.698  17.389  0.00  0.00    +0.000 HD
ENDBRANCH   1  15
BRANCH   1  17
ATOM     17  C   UNL     1       4.609   6.074  19.299  0.00  0.00    +0.000 C 
BRANCH  17  18
ATOM     18  N   UNL     1       5.478   4.930  18.929  0.00  0.00    +0.000 NA
ATOM     19  H   UNL     1       5.834   4.479  19.769  0.00  0.00    +0.000 HD
BRANCH  18  20
ATOM     20  C   UNL     1       6.626   5.336  18.099  0.00  0.00    +0.000 C 
BRANCH  20  25
ATOM     21  C   UNL     1       6.005   3.465  12.585  0.00  0.00    +0.000 C 
ATOM     22  C   UNL     1       6.179   3.939  13.999  0.00  0.00    +0.000 A 
ATOM     23  C   UNL     1       7.126   4.917  14.330  0.00  0.00    +0.000 A 
ATOM     24  C   UNL     1       7.271   5.352  15.644  0.00  0.00    +0.000 A 
ATOM     25  C   UNL     1       6.469   4.821  16.681  0.00  0.00    +0.000 A 
ATOM     26  C   UNL     1       5.543   3.822  16.344  0.00  0.00    +0.000 A 
ATOM     27  C   UNL     1       5.390   3.399  15.026  0.00  0.00    +0.000 A 
ENDBRANCH  20  25
ENDBRANCH  18  20
ENDBRANCH  17  18
ENDBRANCH   1  17
TORSDOF 7
ENDMDL
MODEL 3
REMARK VINA RESULT:      -8.0      2.908      7.065
REMARK  Name = 
REMARK  8 active torsions:
REMARK  status: ('A' for Active; 'I' for Inactive)
REMARK    1  A    between atoms: C_1  and  C_2
REMARK    2  A    between atoms: C_5  and  C_6
REMARK    3  A    between atoms: C_6  and  N_7
REMARK    4  A    between atoms: N_7  and  C_8
REMARK    5  A    between atoms: C_8  and  C_9
REMARK    6  A    between atoms: C_9  and  O_10
REMARK    7  A    between atoms: C_9  and  C_11
REMARK    8  A    between atoms: C_9  and  C_17
REMARK                            x       y       z     vdW  Elec       q    Type
REMARK                         _______ _______ _______ _____ _____    ______ ____
ROOT
ATOM      1  C   UNL     1       3.840   5.877  18.568  0.00  0.00    +0.000 C 
ENDROOT
BRANCH   1   2
ATOM      2  C   UNL     1       4.576   5.366  17.313  0.00  0.00    +0.000 A 
ATOM      3  C   UNL     1       4.883   6.217  16.236  0.00  0.00    +0.000 A 
ATOM      4  C   UNL     1       5.483   5.720  15.074  0.00  0.00    +0.000 A 
ATOM      5  C   UNL     1       5.786   4.367  14.973  0.00  0.00    +0.000 A 
ATOM      6 CL   UNL     1       6.498   3.749  13.534  0.00  0.00    +0.000 Cl
ATOM      7  C   UNL     1       5.510   3.507  16.032  0.00  0.00    +0.000 A 
ATOM      8  C   UNL     1       4.919   4.006  17.195  0.00  0.00    +0.000 A 
ENDBRANCH   1   2
BRANCH   1   9
ATOM      9  C   UNL     1       2.668   4.955  18.962  0.00  0.00    +0.000 A 
ATOM     10  C   UNL     1       2.218   4.829  20.285  0.00  0.00    +0.000 A 
ATOM     11  C   UNL     1       1.264   3.863  20.632  0.00  0.00    +0.000 A 
ATOM     12  C   UNL     1       0.750   3.001  19.667  0.00  0.00    +0.000 A 
ATOM     13  C   UNL     1       1.111   3.168  18.335  0.00  0.00    +0.000 A 
ATOM     14  C   UNL     1       2.029   4.163  17.984  0.00  0.00    +0.000 A 
ENDBRANCH   1   9
BRANCH   1  15
ATOM     15  O   UNL     1       4.763   5.860  19.684  0.00  0.00    +0.000 OA
ATOM     16  H   UNL     1       4.687   6.747  20.080  0.00  0.00    +0.000 HD
ENDBRANCH   1  15
BRANCH   1  17
ATOM     17  C   UNL     1       3.479   7.422  18.364  0.00  0.00    +0.000 C 
BRANCH  17  18
ATOM     18  N   UNL     1       2.045   7.716  18.128  0.00  0.00    +0.000 NA
ATOM     19  H   UNL     1       1.769   7.382  17.207  0.00  0.00    +0.000 HD
BRANCH  18  20
ATOM     20  C   UNL     1       1.739   9.154  18.209  0.00  0.00    +0.000 C 
BRANCH  20  25
ATOM     21  C   UNL     1      -1.033  10.501  23.189  0.00  0.00    +0.000 C 
ATOM     22  C   UNL     1      -0.336  10.155  21.904  0.00  0.00    +0.000 A 
ATOM     23  C   UNL     1      -0.422  10.986  20.780  0.00  0.00    +0.000 A 
ATOM     24  C   UNL     1       0.236  10.656  19.599  0.00  0.00    +0.000 A 
ATOM     25  C   UNL     1       1.007   9.474  19.498  0.00  0.00    +0.000 A 
ATOM     26  C   UNL     1       1.063   8.634  20.621  0.00  0.00    +0.000 A 
ATOM     27  C   UNL     1       0.417   8.975  21.807  0.00  0.00    +0.000 A 
ENDBRANCH  20  25
ENDBRANCH  18  20
ENDBRANCH  17  18
ENDBRANCH   1  17
TORSDOF 7
ENDMDL
MODEL 4
REMARK VINA RESULT:      -8.0      0.480      1.732
REMARK  Name = 
REMARK  8 active torsions:
REMARK  status: ('A' for Active; 'I' for Inactive)
REMARK    1  A    between atoms: C_1  and  C_2
REMARK    2  A    between atoms: C_5  and  C_6
REMARK    3  A    between atoms: C_6  and  N_7
REMARK    4  A    between atoms: N_7  and  C_8
REMARK    5  A    between atoms: C_8  and  C_9
REMARK    6  A    between atoms: C_9  and  O_10
REMARK    7  A    between atoms: C_9  and  C_11
REMARK    8  A    between atoms: C_9  and  C_17
REMARK                            x       y       z     vdW  Elec       q    Type
REMARK                         _______ _______ _______ _____ _____    ______ ____
ROOT
ATOM      1  C   UNL     1       3.288   5.688  18.782  0.00  0.00    +0.000 C 
ENDROOT
BRANCH   1   2
ATOM      2  C   UNL     1       2.537   7.030  18.900  0.00  0.00    +0.000 A 
ATOM      3  C   UNL     1       2.475   7.942  17.830  0.00  0.00    +0.000 A 
ATOM      4  C   UNL     1       1.855   9.186  17.979  0.00  0.00    +0.000 A 
ATOM      5  C   UNL     1       1.286   9.537  19.199  0.00  0.00    +0.000 A 
ATOM      6 CL   UNL     1       0.548  11.078  19.393  0.00  0.00    +0.000 Cl
ATOM      7  C   UNL     1       1.318   8.646  20.267  0.00  0.00    +0.000 A 
ATOM      8  C   UNL     1       1.930   7.399  20.114  0.00  0.00    +0.000 A 
ENDBRANCH   1   2
BRANCH   1   9
ATOM      9  C   UNL     1       2.569   4.558  19.545  0.00  0.00    +0.000 A 
ATOM     10  C   UNL     1       1.514   3.821  18.986  0.00  0.00    +0.000 A 
ATOM     11  C   UNL     1       0.777   2.917  19.763  0.00  0.00    +0.000 A 
ATOM     12  C   UNL     1       1.074   2.739  21.111  0.00  0.00    +0.000 A 
ATOM     13  C   UNL     1       2.172   3.388  21.663  0.00  0.00    +0.000 A 
ATOM     14  C   UNL     1       2.936   4.256  20.875  0.00  0.00    +0.000 A 
ENDBRANCH   1   9
BRANCH   1  15
ATOM     15  O   UNL     1       3.306   5.290  17.390  0.00  0.00    +0.000 OA
ATOM     16  H   UNL     1       2.493   5.673  17.013  0.00  0.00    +0.000 HD
ENDBRANCH   1  15
BRANCH   1  17
ATOM     17  C   UNL     1       4.826   5.921  19.157  0.00  0.00    +0.000 C 
BRANCH  17  18
ATOM     18  N   UNL     1       5.708   4.740  18.992  0.00  0.00    +0.000 NA
ATOM     19  H   UNL     1       6.023   4.412  19.903  0.00  0.00    +0.000 HD
BRANCH  18  20
ATOM     20  C   UNL     1       6.895   5.030  18.169  0.00  0.00    +0.000 C 
BRANCH  20  25
ATOM     21  C   UNL     1       5.954   3.588  12.572  0.00  0.00    +0.000 C 
ATOM     22  C   UNL     1       6.210   3.953  14.006  0.00  0.00    +0.000 A 
ATOM     23  C   UNL     1       7.122   4.959  14.351  0.00  0.00    +0.000 A 
ATOM     24  C   UNL     1       7.344   5.292  15.684  0.00  0.00    +0.000 A 
ATOM     25  C   UNL     1       6.659   4.626  16.726  0.00  0.00    +0.000 A 
ATOM     26  C   UNL     1       5.769   3.600  16.372  0.00  0.00    +0.000 A 
ATOM     27  C   UNL     1       5.537   3.280  15.036  0.00  0.00    +0.000 A 
ENDBRANCH  20  25
ENDBRANCH  18  20
ENDBRANCH  17  18
ENDBRANCH   1  17
TORSDOF 7
ENDMDL
MODEL 5
REMARK VINA RESULT:      -8.0      3.038      7.280
REMARK  Name = 
REMARK  8 active torsions:
REMARK  status: ('A' for Active; 'I' for Inactive)
REMARK    1  A    between atoms: C_1  and  C_2
REMARK    2  A    between atoms: C_5  and  C_6
REMARK    3  A    between atoms: C_6  and  N_7
REMARK    4  A    between atoms: N_7  and  C_8
REMARK    5  A    between atoms: C_8  and  C_9
REMARK    6  A    between atoms: C_9  and  O_10
REMARK    7  A    between atoms: C_9  and  C_11
REMARK    8  A    between atoms: C_9  and  C_17
REMARK                            x       y       z     vdW  Elec       q    Type
REMARK                         _______ _______ _______ _____ _____    ______ ____
ROOT
ATOM      1  C   UNL     1       3.217   5.680  19.058  0.00  0.00    +0.000 C 
ENDROOT
BRANCH   1   2
ATOM      2  C   UNL     1       4.047   5.448  17.779  0.00  0.00    +0.000 A 
ATOM      3  C   UNL     1       4.541   4.176  17.436  0.00  0.00    +0.000 A 
ATOM      4  C   UNL     1       5.356   3.998  16.313  0.00  0.00    +0.000 A 
ATOM      5  C   UNL     1       5.687   5.088  15.517  0.00  0.00    +0.000 A 
ATOM      6 CL   UNL     1       6.711   4.878  14.151  0.00  0.00    +0.000 Cl
ATOM      7  C   UNL     1       5.196   6.354  15.823  0.00  0.00    +0.000 A 
ATOM      8  C   UNL     1       4.375   6.529  16.940  0.00  0.00    +0.000 A 
ENDBRANCH   1   2
BRANCH   1   9
ATOM      9  C   UNL     1       2.288   4.488  19.364  0.00  0.00    +0.000 A 
ATOM     10  C   UNL     1       2.199   3.908  20.639  0.00  0.00    +0.000 A 
ATOM     11  C   UNL     1       1.472   2.728  20.843  0.00  0.00    +0.000 A 
ATOM     12  C   UNL     1       0.831   2.100  19.778  0.00  0.00    +0.000 A 
ATOM     13  C   UNL     1       0.828   2.705  18.527  0.00  0.00    +0.000 A 
ATOM     14  C   UNL     1       1.516   3.908  18.335  0.00  0.00    +0.000 A 
ENDBRANCH   1   9
BRANCH   1  15
ATOM     15  O   UNL     1       4.123   5.788  20.183  0.00  0.00    +0.000 OA
ATOM     16  H   UNL     1       4.444   6.708  20.153  0.00  0.00    +0.000 HD
ENDBRANCH   1  15
BRANCH   1  17
ATOM     17  C   UNL     1       2.512   7.113  18.965  0.00  0.00    +0.000 C 
BRANCH  17  18
ATOM     18  N   UNL     1       2.292   7.800  20.261  0.00  0.00    +0.000 NA
ATOM     19  H   UNL     1       2.963   7.467  20.950  0.00  0.00    +0.000 HD
BRANCH  18  20
ATOM     20  C   UNL     1       0.936   7.584  20.794  0.00  0.00    +0.000 C 
BRANCH  20  25
ATOM     21  C   UNL     1      -1.397  12.524  22.902  0.00  0.00    +0.000 C 
ATOM     22  C   UNL     1      -0.787  11.258  22.372  0.00  0.00    +0.000 A 
ATOM     23  C   UNL     1      -0.627  10.129  23.185  0.00  0.00    +0.000 A 
ATOM     24  C   UNL     1      -0.067   8.960  22.677  0.00  0.00    +0.000 A 
ATOM     25  C   UNL     1       0.358   8.879  21.330  0.00  0.00    +0.000 A 
ATOM     26  C   UNL     1       0.219  10.025  20.532  0.00  0.00    +0.000 A 
ATOM     27  C   UNL     1      -0.356  11.188  21.039  0.00  0.00    +0.000 A 
ENDBRANCH  20  25
ENDBRANCH  18  20
ENDBRANCH  17  18
ENDBRANCH   1  17
TORSDOF 7
ENDMDL
MODEL 6
REMARK VINA RESULT:      -7.9      2.966      7.271
REMARK  Name = 
REMARK  8 active torsions:
REMARK  status: ('A' for Active; 'I' for Inactive)
REMARK    1  A    between atoms: C_1  and  C_2
REMARK    2  A    between atoms: C_5  and  C_6
REMARK    3  A    between atoms: C_6  and  N_7
REMARK    4  A    between atoms: N_7  and  C_8
REMARK    5  A    between atoms: C_8  and  C_9
REMARK    6  A    between atoms: C_9  and  O_10
REMARK    7  A    between atoms: C_9  and  C_11
REMARK    8  A    between atoms: C_9  and  C_17
REMARK                            x       y       z     vdW  Elec       q    Type
REMARK                         _______ _______ _______ _____ _____    ______ ____
ROOT
ATOM      1  C   UNL     1       3.965   5.692  18.354  0.00  0.00    +0.000 C 
ENDROOT
BRANCH   1   2
ATOM      2  C   UNL     1       4.701   5.255  17.071  0.00  0.00    +0.000 A 
ATOM      3  C   UNL     1       4.999   6.165  16.040  0.00  0.00    +0.000 A 
ATOM      4  C   UNL     1       5.599   5.736  14.852  0.00  0.00    +0.000 A 
ATOM      5  C   UNL     1       5.910   4.392  14.677  0.00  0.00    +0.000 A 
ATOM      6 CL   UNL     1       6.622   3.857  13.205  0.00  0.00    +0.000 Cl
ATOM      7  C   UNL     1       5.642   3.475  15.688  0.00  0.00    +0.000 A 
ATOM      8  C   UNL     1       5.051   3.906  16.879  0.00  0.00    +0.000 A 
ENDBRANCH   1   2
BRANCH   1   9
ATOM      9  C   UNL     1       2.934   4.641  18.811  0.00  0.00    +0.000 A 
ATOM     10  C   UNL     1       1.949   4.126  17.954  0.00  0.00    +0.000 A 
ATOM     11  C   UNL     1       0.930   3.300  18.445  0.00  0.00    +0.000 A 
ATOM     12  C   UNL     1       0.871   2.979  19.799  0.00  0.00    +0.000 A 
ATOM     13  C   UNL     1       1.887   3.401  20.648  0.00  0.00    +0.000 A 
ATOM     14  C   UNL     1       2.929   4.188  20.148  0.00  0.00    +0.000 A 
ENDBRANCH   1   9
BRANCH   1  15
ATOM     15  O   UNL     1       4.932   5.806  19.425  0.00  0.00    +0.000 OA
ATOM     16  H   UNL     1       4.974   4.913  19.815  0.00  0.00    +0.000 HD
ENDBRANCH   1  15
BRANCH   1  17
ATOM     17  C   UNL     1       3.409   7.179  18.150  0.00  0.00    +0.000 C 
BRANCH  17  18
ATOM     18  N   UNL     1       2.292   7.570  19.045  0.00  0.00    +0.000 NA
ATOM     19  H   UNL     1       1.560   6.863  19.015  0.00  0.00    +0.000 HD
BRANCH  18  20
ATOM     20  C   UNL     1       1.699   8.867  18.678  0.00  0.00    +0.000 C 
BRANCH  20  25
ATOM     21  C   UNL     1      -1.346  11.016  23.196  0.00  0.00    +0.000 C 
ATOM     22  C   UNL     1      -0.552  10.467  22.045  0.00  0.00    +0.000 A 
ATOM     23  C   UNL     1       0.190   9.285  22.169  0.00  0.00    +0.000 A 
ATOM     24  C   UNL     1       0.915   8.784  21.091  0.00  0.00    +0.000 A 
ATOM     25  C   UNL     1       0.926   9.452  19.845  0.00  0.00    +0.000 A 
ATOM     26  C   UNL     1       0.203  10.650  19.740  0.00  0.00    +0.000 A 
ATOM     27  C   UNL     1      -0.535  11.141  20.815  0.00  0.00    +0.000 A 
ENDBRANCH  20  25
ENDBRANCH  18  20
ENDBRANCH  17  18
ENDBRANCH   1  17
TORSDOF 7
ENDMDL
MODEL 7
REMARK VINA RESULT:      -7.9      1.748      2.851
REMARK  Name = 
REMARK  8 active torsions:
REMARK  status: ('A' for Active; 'I' for Inactive)
REMARK    1  A    between atoms: C_1  and  C_2
REMARK    2  A    between atoms: C_5  and  C_6
REMARK    3  A    between atoms: C_6  and  N_7
REMARK    4  A    between atoms: N_7  and  C_8
REMARK    5  A    between atoms: C_8  and  C_9
REMARK    6  A    between atoms: C_9  and  O_10
REMARK    7  A    between atoms: C_9  and  C_11
REMARK    8  A    between atoms: C_9  and  C_17
REMARK                            x       y       z     vdW  Elec       q    Type
REMARK                         _______ _______ _______ _____ _____    ______ ____
ROOT
ATOM      1  C   UNL     1       3.290   5.485  18.680  0.00  0.00    +0.000 C 
ENDROOT
BRANCH   1   2
ATOM      2  C   UNL     1       2.695   6.900  18.834  0.00  0.00    +0.000 A 
ATOM      3  C   UNL     1       2.041   7.305  20.012  0.00  0.00    +0.000 A 
ATOM      4  C   UNL     1       1.441   8.565  20.106  0.00  0.00    +0.000 A 
ATOM      5  C   UNL     1       1.488   9.438  19.025  0.00  0.00    +0.000 A 
ATOM      6 CL   UNL     1       0.727  10.977  19.128  0.00  0.00    +0.000 Cl
ATOM      7  C   UNL     1       2.144   9.069  17.856  0.00  0.00    +0.000 A 
ATOM      8  C   UNL     1       2.751   7.814  17.766  0.00  0.00    +0.000 A 
ENDBRANCH   1   2
BRANCH   1   9
ATOM      9  C   UNL     1       2.324   4.397  19.191  0.00  0.00    +0.000 A 
ATOM     10  C   UNL     1       2.251   4.027  20.543  0.00  0.00    +0.000 A 
ATOM     11  C   UNL     1       1.484   2.926  20.946  0.00  0.00    +0.000 A 
ATOM     12  C   UNL     1       0.785   2.170  20.008  0.00  0.00    +0.000 A 
ATOM     13  C   UNL     1       0.769   2.573  18.678  0.00  0.00    +0.000 A 
ATOM     14  C   UNL     1       1.497   3.700  18.284  0.00  0.00    +0.000 A 
ENDBRANCH   1   9
BRANCH   1  15
ATOM     15  O   UNL     1       3.491   5.220  17.271  0.00  0.00    +0.000 OA
ATOM     16  H   UNL     1       2.601   5.019  16.928  0.00  0.00    +0.000 HD
ENDBRANCH   1  15
BRANCH   1  17
ATOM     17  C   UNL     1       4.760   5.471  19.310  0.00  0.00    +0.000 C 
BRANCH  17  18
ATOM     18  N   UNL     1       5.564   4.257  19.025  0.00  0.00    +0.000 NA
ATOM     19  H   UNL     1       6.040   3.950  19.871  0.00  0.00    +0.000 HD
BRANCH  18  20
ATOM     20  C   UNL     1       6.576   4.480  17.979  0.00  0.00    +0.000 C 
BRANCH  20  25
ATOM     21  C   UNL     1       8.686   9.941  18.121  0.00  0.00    +0.000 C 
ATOM     22  C   UNL     1       8.131   8.546  18.087  0.00  0.00    +0.000 A 
ATOM     23  C   UNL     1       7.166   8.166  17.145  0.00  0.00    +0.000 A 
ATOM     24  C   UNL     1       6.666   6.867  17.122  0.00  0.00    +0.000 A 
ATOM     25  C   UNL     1       7.114   5.896  18.047  0.00  0.00    +0.000 A 
ATOM     26  C   UNL     1       8.060   6.294  19.005  0.00  0.00    +0.000 A 
ATOM     27  C   UNL     1       8.570   7.590  19.016  0.00  0.00    +0.000 A 
ENDBRANCH  20  25
ENDBRANCH  18  20
ENDBRANCH  17  18
ENDBRANCH   1  17
TORSDOF 7
ENDMDL
MODEL 8
REMARK VINA RESULT:      -7.9      0.645      1.495
REMARK  Name = 
REMARK  8 active torsions:
REMARK  status: ('A' for Active; 'I' for Inactive)
REMARK    1  A    between atoms: C_1  and  C_2
REMARK    2  A    between atoms: C_5  and  C_6
REMARK    3  A    between atoms: C_6  and  N_7
REMARK    4  A    between atoms: N_7  and  C_8
REMARK    5  A    between atoms: C_8  and  C_9
REMARK    6  A    between atoms: C_9  and  O_10
REMARK    7  A    between atoms: C_9  and  C_11
REMARK    8  A    between atoms: C_9  and  C_17
REMARK                            x       y       z     vdW  Elec       q    Type
REMARK                         _______ _______ _______ _____ _____    ______ ____
ROOT
ATOM      1  C   UNL     1       3.259   5.718  18.842  0.00  0.00    +0.000 C 
ENDROOT
BRANCH   1   2
ATOM      2  C   UNL     1       2.555   7.080  19.013  0.00  0.00    +0.000 A 
ATOM      3  C   UNL     1       1.935   7.447  20.222  0.00  0.00    +0.000 A 
ATOM      4  C   UNL     1       1.236   8.653  20.335  0.00  0.00    +0.000 A 
ATOM      5  C   UNL     1       1.147   9.509  19.243  0.00  0.00    +0.000 A 
ATOM      6 CL   UNL     1       0.263  10.979  19.371  0.00  0.00    +0.000 Cl
ATOM      7  C   UNL     1       1.766   9.178  18.042  0.00  0.00    +0.000 A 
ATOM      8  C   UNL     1       2.472   7.977  17.932  0.00  0.00    +0.000 A 
ENDBRANCH   1   2
BRANCH   1   9
ATOM      9  C   UNL     1       2.521   4.591  19.592  0.00  0.00    +0.000 A 
ATOM     10  C   UNL     1       1.416   3.919  19.047  0.00  0.00    +0.000 A 
ATOM     11  C   UNL     1       0.671   3.018  19.819  0.00  0.00    +0.000 A 
ATOM     12  C   UNL     1       1.009   2.779  21.149  0.00  0.00    +0.000 A 
ATOM     13  C   UNL     1       2.153   3.362  21.681  0.00  0.00    +0.000 A 
ATOM     14  C   UNL     1       2.923   4.226  20.895  0.00  0.00    +0.000 A 
ENDBRANCH   1   9
BRANCH   1  15
ATOM     15  O   UNL     1       3.232   5.358  17.440  0.00  0.00    +0.000 OA
ATOM     16  H   UNL     1       2.288   5.227  17.236  0.00  0.00    +0.000 HD
ENDBRANCH   1  15
BRANCH   1  17
ATOM     17  C   UNL     1       4.811   5.892  19.187  0.00  0.00    +0.000 C 
BRANCH  17  18
ATOM     18  N   UNL     1       5.723   4.925  18.528  0.00  0.00    +0.000 NA
ATOM     19  H   UNL     1       6.285   4.446  19.228  0.00  0.00    +0.000 HD
BRANCH  18  20
ATOM     20  C   UNL     1       6.633   5.569  17.565  0.00  0.00    +0.000 C 
BRANCH  20  25
ATOM     21  C   UNL     1       6.025   3.304  12.199  0.00  0.00    +0.000 C 
ATOM     22  C   UNL     1       6.195   3.879  13.576  0.00  0.00    +0.000 A 
ATOM     23  C   UNL     1       7.183   4.832  13.851  0.00  0.00    +0.000 A 
ATOM     24  C   UNL     1       7.324   5.362  15.131  0.00  0.00    +0.000 A 
ATOM     25  C   UNL     1       6.478   4.953  16.187  0.00  0.00    +0.000 A 
ATOM     26  C   UNL     1       5.510   3.976  15.907  0.00  0.00    +0.000 A 
ATOM     27  C   UNL     1       5.361   3.460  14.623  0.00  0.00    +0.000 A 
ENDBRANCH  20  25
ENDBRANCH  18  20
ENDBRANCH  17  18
ENDBRANCH   1  17
TORSDOF 7
ENDMDL
MODEL 9
REMARK VINA RESULT:      -7.9      0.348      1.406
REMARK  Name = 
REMARK  8 active torsions:
REMARK  status: ('A' for Active; 'I' for Inactive)
REMARK    1  A    between atoms: C_1  and  C_2
REMARK    2  A    between atoms: C_5  and  C_6
REMARK    3  A    between atoms: C_6  and  N_7
REMARK    4  A    between atoms: N_7  and  C_8
REMARK    5  A    between atoms: C_8  and  C_9
REMARK    6  A    between atoms: C_9  and  O_10
REMARK    7  A    between atoms: C_9  and  C_11
REMARK    8  A    between atoms: C_9  and  C_17
REMARK                            x       y       z     vdW  Elec       q    Type
REMARK                         _______ _______ _______ _____ _____    ______ ____
ROOT
ATOM      1  C   UNL     1       3.111   6.141  18.572  0.00  0.00    +0.000 C 
ENDROOT
BRANCH   1   2
ATOM      2  C   UNL     1       2.330   7.445  18.835  0.00  0.00    +0.000 A 
ATOM      3  C   UNL     1       2.103   8.391  17.818  0.00  0.00    +0.000 A 
ATOM      4  C   UNL     1       1.459   9.602  18.093  0.00  0.00    +0.000 A 
ATOM      5  C   UNL     1       1.031   9.884  19.385  0.00  0.00    +0.000 A 
ATOM      6 CL   UNL     1       0.264  11.384  19.731  0.00  0.00    +0.000 Cl
ATOM      7  C   UNL     1       1.226   8.956  20.404  0.00  0.00    +0.000 A 
ATOM      8  C   UNL     1       1.861   7.743  20.127  0.00  0.00    +0.000 A 
ENDBRANCH   1   2
BRANCH   1   9
ATOM      9  C   UNL     1       2.264   4.891  18.884  0.00  0.00    +0.000 A 
ATOM     10  C   UNL     1       1.701   4.656  20.148  0.00  0.00    +0.000 A 
ATOM     11  C   UNL     1       1.078   3.436  20.442  0.00  0.00    +0.000 A 
ATOM     12  C   UNL     1       1.014   2.427  19.485  0.00  0.00    +0.000 A 
ATOM     13  C   UNL     1       1.481   2.671  18.199  0.00  0.00    +0.000 A 
ATOM     14  C   UNL     1       2.062   3.906  17.893  0.00  0.00    +0.000 A 
ENDBRANCH   1   9
BRANCH   1  15
ATOM     15  O   UNL     1       3.433   6.072  17.162  0.00  0.00    +0.000 OA
ATOM     16  H   UNL     1       2.676   6.493  16.715  0.00  0.00    +0.000 HD
ENDBRANCH   1  15
BRANCH   1  17
ATOM     17  C   UNL     1       4.529   6.230  19.308  0.00  0.00    +0.000 C 
BRANCH  17  18
ATOM     18  N   UNL     1       5.310   4.969  19.341  0.00  0.00    +0.000 NA
ATOM     19  H   UNL     1       5.482   4.693  20.306  0.00  0.00    +0.000 HD
BRANCH  18  20
ATOM     20  C   UNL     1       6.607   5.088  18.655  0.00  0.00    +0.000 C 
BRANCH  20  25
ATOM     21  C   UNL     1       6.078   3.713  12.987  0.00  0.00    +0.000 C 
ATOM     22  C   UNL     1       6.229   4.062  14.440  0.00  0.00    +0.000 A 
ATOM     23  C   UNL     1       7.092   5.081  14.860  0.00  0.00    +0.000 A 
ATOM     24  C   UNL     1       7.216   5.398  16.210  0.00  0.00    +0.000 A 
ATOM     25  C   UNL     1       6.477   4.701  17.194  0.00  0.00    +0.000 A 
ATOM     26  C   UNL     1       5.636   3.662  16.765  0.00  0.00    +0.000 A 
ATOM     27  C   UNL     1       5.502   3.358  15.413  0.00  0.00    +0.000 A 
ENDBRANCH  20  25
ENDBRANCH  18  20
ENDBRANCH  17  18
ENDBRANCH   1  17
TORSDOF 7
ENDMDL
