MODEL 1
REMARK VINA RESULT:      -7.9      0.000      0.000
REMARK  Name = 
REMARK  3 active torsions:
REMARK  status: ('A' for Active; 'I' for Inactive)
REMARK    1  A    between atoms: C_2  and  C_12
REMARK    2  A    between atoms: N_3  and  C_4
REMARK    3  A    between atoms: C_4  and  C_5
REMARK                            x       y       z     vdW  Elec       q    Type
REMARK                         _______ _______ _______ _____ _____    ______ ____
ROOT
ATOM      1  C   UNL     1       1.928   7.623  19.467  0.00  0.00    +0.000 A 
ATOM      2  C   UNL     1       1.886   8.680  18.546  0.00  0.00    +0.000 A 
ATOM      3  C   UNL     1       1.263   9.894  18.855  0.00  0.00    +0.000 A 
ATOM      4  C   UNL     1       0.698  10.003  20.128  0.00  0.00    +0.000 A 
ATOM      5  C   UNL     1       0.760   8.984  21.076  0.00  0.00    +0.000 A 
ATOM      6  C   UNL     1       1.386   7.771  20.754  0.00  0.00    +0.000 A 
ATOM      7  N   UNL     1       0.147   9.363  22.249  0.00  0.00    +0.000 NA
ATOM      8  C   UNL     1      -0.290  10.590  22.041  0.00  0.00    +0.000 A 
ATOM      9  N   UNL     1       0.008  10.997  20.765  0.00  0.00    +0.000 N 
ATOM     10  C   UNL     1      -0.367  12.297  20.248  0.00  0.00    +0.000 C 
ATOM     11  C   UNL     1      -1.466  12.900  21.116  0.00  0.00    +0.000 C 
ATOM     12  O   UNL     1      -1.084  12.820  22.493  0.00  0.00    +0.000 OA
ATOM     13  C   UNL     1      -1.070  11.460  22.972  0.00  0.00    +0.000 C 
ENDROOT
BRANCH   1  15
ATOM     14  O   UNL     1       2.262   5.847  17.963  0.00  0.00    +0.000 OA
ATOM     15  C   UNL     1       2.571   6.354  19.040  0.00  0.00    +0.000 C 
ATOM     16  N   UNL     1       3.470   5.790  19.918  0.00  0.00    +0.000 N 
ATOM     17  H   UNL     1       3.571   6.167  20.849  0.00  0.00    +0.000 HD
BRANCH  16  18
ATOM     18  C   UNL     1       4.098   4.522  19.621  0.00  0.00    +0.000 C 
BRANCH  18  19
ATOM     19  C   UNL     1       5.262   4.672  18.672  0.00  0.00    +0.000 A 
ATOM     20  C   UNL     1       6.435   5.323  19.087  0.00  0.00    +0.000 A 
ATOM     21  C   UNL     1       7.511   5.489  18.211  0.00  0.00    +0.000 A 
ATOM     22  C   UNL     1       7.429   5.004  16.908  0.00  0.00    +0.000 A 
ATOM     23  C   UNL     1       6.268   4.358  16.487  0.00  0.00    +0.000 A 
ATOM     24 CL   UNL     1       6.163   3.767  14.873  0.00  0.00    +0.000 Cl
ATOM     25  C   UNL     1       5.188   4.193  17.356  0.00  0.00    +0.000 A 
ENDBRANCH  18  19
ENDBRANCH  16  18
ENDBRANCH   1  15
TORSDOF 3
ENDMDL
MODEL 2
REMARK VINA RESULT:      -7.9      1.102      1.195
REMARK  Name = 
REMARK  3 active torsions:
REMARK  status: ('A' for Active; 'I' for Inactive)
REMARK    1  A    between atoms: C_2  and  C_12
REMARK    2  A    between atoms: N_3  and  C_4
REMARK    3  A    between atoms: C_4  and  C_5
REMARK                            x       y       z     vdW  Elec       q    Type
REMARK                         _______ _______ _______ _____ _____    ______ ____
ROOT
ATOM      1  C   UNL     1       2.129   7.087  19.608  0.00  0.00    +0.000 A 
ATOM      2  C   UNL     1       2.164   7.976  18.523  0.00  0.00    +0.000 A 
ATOM      3  C   UNL     1       1.569   9.240  18.595  0.00  0.00    +0.000 A 
ATOM      4  C   UNL     1       0.950   9.575  19.803  0.00  0.00    +0.000 A 
ATOM      5  C   UNL     1       0.936   8.728  20.909  0.00  0.00    +0.000 A 
ATOM      6  C   UNL     1       1.535   7.462  20.823  0.00  0.00    +0.000 A 
ATOM      7  N   UNL     1       0.284   9.312  21.971  0.00  0.00    +0.000 NA
ATOM      8  C   UNL     1      -0.102  10.498  21.540  0.00  0.00    +0.000 A 
ATOM      9  N   UNL     1       0.266  10.678  20.230  0.00  0.00    +0.000 N 
ATOM     10  C   UNL     1      -0.041  11.883  19.488  0.00  0.00    +0.000 C 
ATOM     11  C   UNL     1      -1.157  12.650  20.187  0.00  0.00    +0.000 C 
ATOM     12  O   UNL     1      -0.840  12.791  21.576  0.00  0.00    +0.000 OA
ATOM     13  C   UNL     1      -0.894  11.531  22.274  0.00  0.00    +0.000 C 
ENDROOT
BRANCH   1  15
ATOM     14  O   UNL     1       3.187   5.146  20.408  0.00  0.00    +0.000 OA
ATOM     15  C   UNL     1       2.748   5.749  19.430  0.00  0.00    +0.000 C 
ATOM     16  N   UNL     1       2.829   5.272  18.140  0.00  0.00    +0.000 N 
ATOM     17  H   UNL     1       2.592   5.871  17.364  0.00  0.00    +0.000 HD
BRANCH  16  18
ATOM     18  C   UNL     1       3.474   4.009  17.858  0.00  0.00    +0.000 C 
BRANCH  18  19
ATOM     19  C   UNL     1       4.828   4.191  17.217  0.00  0.00    +0.000 A 
ATOM     20  C   UNL     1       5.937   4.559  17.997  0.00  0.00    +0.000 A 
ATOM     21  C   UNL     1       7.191   4.754  17.411  0.00  0.00    +0.000 A 
ATOM     22  C   UNL     1       7.353   4.581  16.039  0.00  0.00    +0.000 A 
ATOM     23  C   UNL     1       6.258   4.218  15.257  0.00  0.00    +0.000 A 
ATOM     24 CL   UNL     1       6.457   4.014  13.559  0.00  0.00    +0.000 Cl
ATOM     25  C   UNL     1       5.001   4.025  15.835  0.00  0.00    +0.000 A 
ENDBRANCH  18  19
ENDBRANCH  16  18
ENDBRANCH   1  15
TORSDOF 3
ENDMDL
MODEL 3
REMARK VINA RESULT:      -7.9      1.465      1.749
REMARK  Name = 
REMARK  3 active torsions:
REMARK  status: ('A' for Active; 'I' for Inactive)
REMARK    1  A    between atoms: C_2  and  C_12
REMARK    2  A    between atoms: N_3  and  C_4
REMARK    3  A    between atoms: C_4  and  C_5
REMARK                            x       y       z     vdW  Elec       q    Type
REMARK                         _______ _______ _______ _____ _____    ______ ____
ROOT
ATOM      1  C   UNL     1       1.964   7.382  19.690  0.00  0.00    +0.000 A 
ATOM      2  C   UNL     1       1.926   8.378  18.703  0.00  0.00    +0.000 A 
ATOM      3  C   UNL     1       1.295   9.607  18.930  0.00  0.00    +0.000 A 
ATOM      4  C   UNL     1       0.719   9.793  20.189  0.00  0.00    +0.000 A 
ATOM      5  C   UNL     1       0.777   8.837  21.200  0.00  0.00    +0.000 A 
ATOM      6  C   UNL     1       1.411   7.609  20.960  0.00  0.00    +0.000 A 
ATOM      7  N   UNL     1       0.153   9.286  22.342  0.00  0.00    +0.000 NA
ATOM      8  C   UNL     1      -0.287  10.496  22.052  0.00  0.00    +0.000 A 
ATOM      9  N   UNL     1       0.020  10.823  20.755  0.00  0.00    +0.000 N 
ATOM     10  C   UNL     1      -0.356  12.086  20.155  0.00  0.00    +0.000 C 
ATOM     11  C   UNL     1      -1.464  12.737  20.973  0.00  0.00    +0.000 C 
ATOM     12  O   UNL     1      -1.093  12.746  22.356  0.00  0.00    +0.000 OA
ATOM     13  C   UNL     1      -1.078  11.420  22.920  0.00  0.00    +0.000 C 
ENDROOT
BRANCH   1  15
ATOM     14  O   UNL     1       3.133   5.417  20.238  0.00  0.00    +0.000 OA
ATOM     15  C   UNL     1       2.616   6.092  19.349  0.00  0.00    +0.000 C 
ATOM     16  N   UNL     1       2.634   5.741  18.018  0.00  0.00    +0.000 N 
ATOM     17  H   UNL     1       2.331   6.400  17.317  0.00  0.00    +0.000 HD
BRANCH  16  18
ATOM     18  C   UNL     1       3.303   4.536  17.580  0.00  0.00    +0.000 C 
BRANCH  18  19
ATOM     19  C   UNL     1       4.652   4.824  16.967  0.00  0.00    +0.000 A 
ATOM     20  C   UNL     1       5.144   4.018  15.927  0.00  0.00    +0.000 A 
ATOM     21  C   UNL     1       6.401   4.260  15.367  0.00  0.00    +0.000 A 
ATOM     22  C   UNL     1       7.183   5.312  15.838  0.00  0.00    +0.000 A 
ATOM     23  C   UNL     1       6.704   6.115  16.872  0.00  0.00    +0.000 A 
ATOM     24 CL   UNL     1       7.674   7.409  17.461  0.00  0.00    +0.000 Cl
ATOM     25  C   UNL     1       5.450   5.877  17.438  0.00  0.00    +0.000 A 
ENDBRANCH  18  19
ENDBRANCH  16  18
ENDBRANCH   1  15
TORSDOF 3
ENDMDL
MODEL 4
REMARK VINA RESULT:      -7.9      2.622      3.978
REMARK  Name = 
REMARK  3 active torsions:
REMARK  status: ('A' for Active; 'I' for Inactive)
REMARK    1  A    between atoms: C_2  and  C_12
REMARK    2  A    between atoms: N_3  and  C_4
REMARK    3  A    between atoms: C_4  and  C_5
REMARK                            x       y       z     vdW  Elec       q    Type
REMARK                         _______ _______ _______ _____ _____    ______ ____
ROOT
ATOM      1  C   UNL     1       3.887   5.817  18.075  0.00  0.00    +0.000 A 
ATOM      2  C   UNL     1       3.320   5.530  19.326  0.00  0.00    +0.000 A 
ATOM      3  C   UNL     1       2.466   6.436  19.966  0.00  0.00    +0.000 A 
ATOM      4  C   UNL     1       2.200   7.630  19.292  0.00  0.00    +0.000 A 
ATOM      5  C   UNL     1       2.717   7.924  18.032  0.00  0.00    +0.000 A 
ATOM      6  C   UNL     1       3.573   7.008  17.402  0.00  0.00    +0.000 A 
ATOM      7  N   UNL     1       2.277   9.151  17.590  0.00  0.00    +0.000 NA
ATOM      8  C   UNL     1       1.503   9.616  18.551  0.00  0.00    +0.000 A 
ATOM      9  N   UNL     1       1.452   8.733  19.600  0.00  0.00    +0.000 N 
ATOM     10  C   UNL     1       0.691   8.988  20.805  0.00  0.00    +0.000 C 
ATOM     11  C   UNL     1       0.373  10.475  20.909  0.00  0.00    +0.000 C 
ATOM     12  O   UNL     1      -0.178  10.932  19.669  0.00  0.00    +0.000 OA
ATOM     13  C   UNL     1       0.801  10.934  18.612  0.00  0.00    +0.000 C 
ENDROOT
BRANCH   1  15
ATOM     14  O   UNL     1       4.599   3.618  17.645  0.00  0.00    +0.000 OA
ATOM     15  C   UNL     1       4.817   4.818  17.489  0.00  0.00    +0.000 C 
ATOM     16  N   UNL     1       5.915   5.313  16.820  0.00  0.00    +0.000 N 
ATOM     17  H   UNL     1       6.123   6.300  16.853  0.00  0.00    +0.000 HD
BRANCH  16  18
ATOM     18  C   UNL     1       6.911   4.420  16.272  0.00  0.00    +0.000 C 
BRANCH  18  19
ATOM     19  C   UNL     1       6.932   4.448  14.763  0.00  0.00    +0.000 A 
ATOM     20  C   UNL     1       7.871   5.240  14.082  0.00  0.00    +0.000 A 
ATOM     21  C   UNL     1       7.885   5.293  12.686  0.00  0.00    +0.000 A 
ATOM     22  C   UNL     1       6.962   4.553  11.951  0.00  0.00    +0.000 A 
ATOM     23  C   UNL     1       6.026   3.764  12.618  0.00  0.00    +0.000 A 
ATOM     24 CL   UNL     1       4.879   2.856  11.710  0.00  0.00    +0.000 Cl
ATOM     25  C   UNL     1       6.003   3.710  14.014  0.00  0.00    +0.000 A 
ENDBRANCH  18  19
ENDBRANCH  16  18
ENDBRANCH   1  15
TORSDOF 3
ENDMDL
MODEL 5
REMARK VINA RESULT:      -7.9      5.612      7.542
REMARK  Name = 
REMARK  3 active torsions:
REMARK  status: ('A' for Active; 'I' for Inactive)
REMARK    1  A    between atoms: C_2  and  C_12
REMARK    2  A    between atoms: N_3  and  C_4
REMARK    3  A    between atoms: C_4  and  C_5
REMARK                            x       y       z     vdW  Elec       q    Type
REMARK                         _______ _______ _______ _____ _____    ______ ____
ROOT
ATOM      1  C   UNL     1       6.002   6.494  17.740  0.00  0.00    +0.000 A 
ATOM      2  C   UNL     1       4.722   6.962  17.407  0.00  0.00    +0.000 A 
ATOM      3  C   UNL     1       3.567   6.296  17.832  0.00  0.00    +0.000 A 
ATOM      4  C   UNL     1       3.754   5.152  18.611  0.00  0.00    +0.000 A 
ATOM      5  C   UNL     1       5.012   4.687  18.990  0.00  0.00    +0.000 A 
ATOM      6  C   UNL     1       6.162   5.363  18.557  0.00  0.00    +0.000 A 
ATOM      7  N   UNL     1       4.907   3.561  19.774  0.00  0.00    +0.000 NA
ATOM      8  C   UNL     1       3.615   3.324  19.884  0.00  0.00    +0.000 A 
ATOM      9  N   UNL     1       2.893   4.253  19.176  0.00  0.00    +0.000 N 
ATOM     10  C   UNL     1       1.447   4.231  19.101  0.00  0.00    +0.000 C 
ATOM     11  C   UNL     1       0.930   2.855  19.501  0.00  0.00    +0.000 C 
ATOM     12  O   UNL     1       1.534   2.460  20.738  0.00  0.00    +0.000 OA
ATOM     13  C   UNL     1       2.942   2.192  20.590  0.00  0.00    +0.000 C 
ENDROOT
BRANCH   1  15
ATOM     14  O   UNL     1       7.861   6.739  16.321  0.00  0.00    +0.000 OA
ATOM     15  C   UNL     1       7.173   7.238  17.210  0.00  0.00    +0.000 C 
ATOM     16  N   UNL     1       7.446   8.457  17.791  0.00  0.00    +0.000 N 
ATOM     17  H   UNL     1       6.942   8.747  18.615  0.00  0.00    +0.000 HD
BRANCH  16  18
ATOM     18  C   UNL     1       8.603   9.225  17.389  0.00  0.00    +0.000 C 
BRANCH  18  19
ATOM     19  C   UNL     1       8.897  10.355  18.346  0.00  0.00    +0.000 A 
ATOM     20  C   UNL     1       9.213  10.083  19.687  0.00  0.00    +0.000 A 
ATOM     21  C   UNL     1       9.464  11.121  20.588  0.00  0.00    +0.000 A 
ATOM     22  C   UNL     1       9.405  12.445  20.160  0.00  0.00    +0.000 A 
ATOM     23  C   UNL     1       9.092  12.724  18.830  0.00  0.00    +0.000 A 
ATOM     24 CL   UNL     1       9.010  14.361  18.303  0.00  0.00    +0.000 Cl
ATOM     25  C   UNL     1       8.835  11.691  17.925  0.00  0.00    +0.000 A 
ENDBRANCH  18  19
ENDBRANCH  16  18
ENDBRANCH   1  15
TORSDOF 3
ENDMDL
MODEL 6
REMARK VINA RESULT:      -7.8      1.292      1.684
REMARK  Name = 
REMARK  3 active torsions:
REMARK  status: ('A' for Active; 'I' for Inactive)
REMARK    1  A    between atoms: C_2  and  C_12
REMARK    2  A    between atoms: N_3  and  C_4
REMARK    3  A    between atoms: C_4  and  C_5
REMARK                            x       y       z     vdW  Elec       q    Type
REMARK                         _______ _______ _______ _____ _____    ______ ____
ROOT
ATOM      1  C   UNL     1       2.448   6.890  18.749  0.00  0.00    +0.000 A 
ATOM      2  C   UNL     1       2.316   7.978  17.873  0.00  0.00    +0.000 A 
ATOM      3  C   UNL     1       1.721   9.176  18.283  0.00  0.00    +0.000 A 
ATOM      4  C   UNL     1       1.278   9.236  19.606  0.00  0.00    +0.000 A 
ATOM      5  C   UNL     1       1.432   8.185  20.508  0.00  0.00    +0.000 A 
ATOM      6  C   UNL     1       2.030   6.989  20.085  0.00  0.00    +0.000 A 
ATOM      7  N   UNL     1       0.932   8.518  21.746  0.00  0.00    +0.000 NA
ATOM      8  C   UNL     1       0.473   9.748  21.624  0.00  0.00    +0.000 A 
ATOM      9  N   UNL     1       0.647  10.202  20.340  0.00  0.00    +0.000 N 
ATOM     10  C   UNL     1       0.221  11.517  19.908  0.00  0.00    +0.000 C 
ATOM     11  C   UNL     1      -0.793  12.082  20.896  0.00  0.00    +0.000 C 
ATOM     12  O   UNL     1      -0.282  11.956  22.227  0.00  0.00    +0.000 OA
ATOM     13  C   UNL     1      -0.219  10.580  22.654  0.00  0.00    +0.000 C 
ENDROOT
BRANCH   1  15
ATOM     14  O   UNL     1       2.342   4.814  17.648  0.00  0.00    +0.000 OA
ATOM     15  C   UNL     1       3.053   5.641  18.218  0.00  0.00    +0.000 C 
ATOM     16  N   UNL     1       4.401   5.465  18.436  0.00  0.00    +0.000 N 
ATOM     17  H   UNL     1       4.902   6.101  19.039  0.00  0.00    +0.000 HD
BRANCH  16  18
ATOM     18  C   UNL     1       5.067   4.252  18.015  0.00  0.00    +0.000 C 
BRANCH  18  19
ATOM     19  C   UNL     1       5.740   4.408  16.673  0.00  0.00    +0.000 A 
ATOM     20  C   UNL     1       7.015   4.991  16.584  0.00  0.00    +0.000 A 
ATOM     21  C   UNL     1       7.639   5.163  15.345  0.00  0.00    +0.000 A 
ATOM     22  C   UNL     1       6.997   4.752  14.179  0.00  0.00    +0.000 A 
ATOM     23  C   UNL     1       5.731   4.174  14.258  0.00  0.00    +0.000 A 
ATOM     24 CL   UNL     1       4.934   3.675  12.816  0.00  0.00    +0.000 Cl
ATOM     25  C   UNL     1       5.100   4.003  15.493  0.00  0.00    +0.000 A 
ENDBRANCH  18  19
ENDBRANCH  16  18
ENDBRANCH   1  15
TORSDOF 3
ENDMDL
MODEL 7
REMARK VINA RESULT:      -7.8      2.465      3.494
REMARK  Name = 
REMARK  3 active torsions:
REMARK  status: ('A' for Active; 'I' for Inactive)
REMARK    1  A    between atoms: C_2  and  C_12
REMARK    2  A    between atoms: N_3  and  C_4
REMARK    3  A    between atoms: C_4  and  C_5
REMARK                            x       y       z     vdW  Elec       q    Type
REMARK                         _______ _______ _______ _____ _____    ______ ____
ROOT
ATOM      1  C   UNL     1       3.824   6.068  18.051  0.00  0.00    +0.000 A 
ATOM      2  C   UNL     1       3.671   7.228  17.276  0.00  0.00    +0.000 A 
ATOM      3  C   UNL     1       2.835   8.273  17.683  0.00  0.00    +0.000 A 
ATOM      4  C   UNL     1       2.171   8.107  18.901  0.00  0.00    +0.000 A 
ATOM      5  C   UNL     1       2.336   6.984  19.709  0.00  0.00    +0.000 A 
ATOM      6  C   UNL     1       3.176   5.943  19.290  0.00  0.00    +0.000 A 
ATOM      7  N   UNL     1       1.588   7.089  20.860  0.00  0.00    +0.000 NA
ATOM      8  C   UNL     1       0.969   8.251  20.775  0.00  0.00    +0.000 A 
ATOM      9  N   UNL     1       1.283   8.879  19.596  0.00  0.00    +0.000 N 
ATOM     10  C   UNL     1       0.734  10.166  19.223  0.00  0.00    +0.000 C 
ATOM     11  C   UNL     1      -0.508  10.459  20.056  0.00  0.00    +0.000 C 
ATOM     12  O   UNL     1      -0.216  10.241  21.440  0.00  0.00    +0.000 OA
ATOM     13  C   UNL     1      -0.010   8.846  21.736  0.00  0.00    +0.000 C 
ENDROOT
BRANCH   1  15
ATOM     14  O   UNL     1       4.428   3.814  17.762  0.00  0.00    +0.000 OA
ATOM     15  C   UNL     1       4.698   4.990  17.522  0.00  0.00    +0.000 C 
ATOM     16  N   UNL     1       5.808   5.387  16.809  0.00  0.00    +0.000 N 
ATOM     17  H   UNL     1       6.062   6.362  16.772  0.00  0.00    +0.000 HD
BRANCH  16  18
ATOM     18  C   UNL     1       6.754   4.413  16.311  0.00  0.00    +0.000 C 
BRANCH  18  19
ATOM     19  C   UNL     1       6.838   4.420  14.803  0.00  0.00    +0.000 A 
ATOM     20  C   UNL     1       7.775   5.237  14.151  0.00  0.00    +0.000 A 
ATOM     21  C   UNL     1       7.847   5.271  12.755  0.00  0.00    +0.000 A 
ATOM     22  C   UNL     1       6.984   4.486  11.994  0.00  0.00    +0.000 A 
ATOM     23  C   UNL     1       6.049   3.674  12.634  0.00  0.00    +0.000 A 
ATOM     24 CL   UNL     1       4.975   2.712  11.693  0.00  0.00    +0.000 Cl
ATOM     25  C   UNL     1       5.969   3.639  14.028  0.00  0.00    +0.000 A 
ENDBRANCH  18  19
ENDBRANCH  16  18
ENDBRANCH   1  15
TORSDOF 3
ENDMDL
MODEL 8
REMARK VINA RESULT:      -7.8      2.825      3.520
REMARK  Name = 
REMARK  3 active torsions:
REMARK  status: ('A' for Active; 'I' for Inactive)
REMARK    1  A    between atoms: C_2  and  C_12
REMARK    2  A    between atoms: N_3  and  C_4
REMARK    3  A    between atoms: C_4  and  C_5
REMARK                            x       y       z     vdW  Elec       q    Type
REMARK                         _______ _______ _______ _____ _____    ______ ____
ROOT
ATOM      1  C   UNL     1       1.129   9.352  18.877  0.00  0.00    +0.000 A 
ATOM      2  C   UNL     1       0.104   9.879  18.078  0.00  0.00    +0.000 A 
ATOM      3  C   UNL     1      -0.869  10.733  18.609  0.00  0.00    +0.000 A 
ATOM      4  C   UNL     1      -0.760  11.041  19.967  0.00  0.00    +0.000 A 
ATOM      5  C   UNL     1       0.270  10.564  20.774  0.00  0.00    +0.000 A 
ATOM      6  C   UNL     1       1.239   9.707  20.231  0.00  0.00    +0.000 A 
ATOM      7  N   UNL     1       0.151  11.040  22.060  0.00  0.00    +0.000 NA
ATOM      8  C   UNL     1      -0.929  11.797  22.059  0.00  0.00    +0.000 A 
ATOM      9  N   UNL     1      -1.513  11.802  20.818  0.00  0.00    +0.000 N 
ATOM     10  C   UNL     1      -2.727  12.535  20.525  0.00  0.00    +0.000 C 
ATOM     11  C   UNL     1      -3.448  12.880  21.822  0.00  0.00    +0.000 C 
ATOM     12  O   UNL     1      -2.522  13.473  22.739  0.00  0.00    +0.000 OA
ATOM     13  C   UNL     1      -1.546  12.522  23.211  0.00  0.00    +0.000 C 
ENDROOT
BRANCH   1  15
ATOM     14  O   UNL     1       2.624   8.723  17.174  0.00  0.00    +0.000 OA
ATOM     15  C   UNL     1       2.095   8.418  18.242  0.00  0.00    +0.000 C 
ATOM     16  N   UNL     1       2.314   7.222  18.887  0.00  0.00    +0.000 N 
ATOM     17  H   UNL     1       1.742   6.961  19.677  0.00  0.00    +0.000 HD
BRANCH  16  18
ATOM     18  C   UNL     1       3.186   6.221  18.313  0.00  0.00    +0.000 C 
BRANCH  18  19
ATOM     19  C   UNL     1       2.709   4.818  18.598  0.00  0.00    +0.000 A 
ATOM     20  C   UNL     1       2.653   3.866  17.568  0.00  0.00    +0.000 A 
ATOM     21  C   UNL     1       2.190   2.570  17.814  0.00  0.00    +0.000 A 
ATOM     22  C   UNL     1       1.778   2.209  19.094  0.00  0.00    +0.000 A 
ATOM     23  C   UNL     1       1.829   3.148  20.123  0.00  0.00    +0.000 A 
ATOM     24 CL   UNL     1       1.310   2.704  21.704  0.00  0.00    +0.000 Cl
ATOM     25  C   UNL     1       2.286   4.446  19.883  0.00  0.00    +0.000 A 
ENDBRANCH  18  19
ENDBRANCH  16  18
ENDBRANCH   1  15
TORSDOF 3
ENDMDL
MODEL 9
REMARK VINA RESULT:      -7.8      1.532      2.338
REMARK  Name = 
REMARK  3 active torsions:
REMARK  status: ('A' for Active; 'I' for Inactive)
REMARK    1  A    between atoms: C_2  and  C_12
REMARK    2  A    between atoms: N_3  and  C_4
REMARK    3  A    between atoms: C_4  and  C_5
REMARK                            x       y       z     vdW  Elec       q    Type
REMARK                         _______ _______ _______ _____ _____    ______ ____
ROOT
ATOM      1  C   UNL     1       2.245   6.891  19.526  0.00  0.00    +0.000 A 
ATOM      2  C   UNL     1       1.623   7.067  20.771  0.00  0.00    +0.000 A 
ATOM      3  C   UNL     1       1.042   8.287  21.131  0.00  0.00    +0.000 A 
ATOM      4  C   UNL     1       1.102   9.314  20.185  0.00  0.00    +0.000 A 
ATOM      5  C   UNL     1       1.677   9.154  18.926  0.00  0.00    +0.000 A 
ATOM      6  C   UNL     1       2.258   7.926  18.578  0.00  0.00    +0.000 A 
ATOM      7  N   UNL     1       1.579  10.312  18.188  0.00  0.00    +0.000 NA
ATOM      8  C   UNL     1       0.958  11.177  18.966  0.00  0.00    +0.000 A 
ATOM      9  N   UNL     1       0.675  10.613  20.184  0.00  0.00    +0.000 N 
ATOM     10  C   UNL     1       0.011  11.336  21.249  0.00  0.00    +0.000 C 
ATOM     11  C   UNL     1       0.100  12.835  20.988  0.00  0.00    +0.000 C 
ATOM     12  O   UNL     1      -0.311  13.110  19.644  0.00  0.00    +0.000 OA
ATOM     13  C   UNL     1       0.633  12.607  18.678  0.00  0.00    +0.000 C 
ENDROOT
BRANCH   1  15
ATOM     14  O   UNL     1       3.407   4.946  20.156  0.00  0.00    +0.000 OA
ATOM     15  C   UNL     1       2.875   5.575  19.243  0.00  0.00    +0.000 C 
ATOM     16  N   UNL     1       2.856   5.149  17.934  0.00  0.00    +0.000 N 
ATOM     17  H   UNL     1       2.542   5.771  17.205  0.00  0.00    +0.000 HD
BRANCH  16  18
ATOM     18  C   UNL     1       3.501   3.913  17.549  0.00  0.00    +0.000 C 
BRANCH  18  19
ATOM     19  C   UNL     1       4.847   4.148  16.909  0.00  0.00    +0.000 A 
ATOM     20  C   UNL     1       5.941   4.554  17.690  0.00  0.00    +0.000 A 
ATOM     21  C   UNL     1       7.188   4.798  17.106  0.00  0.00    +0.000 A 
ATOM     22  C   UNL     1       7.356   4.637  15.733  0.00  0.00    +0.000 A 
ATOM     23  C   UNL     1       6.275   4.236  14.949  0.00  0.00    +0.000 A 
ATOM     24 CL   UNL     1       6.481   4.047  13.250  0.00  0.00    +0.000 Cl
ATOM     25  C   UNL     1       5.026   3.995  15.526  0.00  0.00    +0.000 A 
ENDBRANCH  18  19
ENDBRANCH  16  18
ENDBRANCH   1  15
TORSDOF 3
ENDMDL
