MODEL 1
REMARK VINA RESULT:      -8.6      0.000      0.000
REMARK  Name = 
REMARK  3 active torsions:
REMARK  status: ('A' for Active; 'I' for Inactive)
REMARK    1  A    between atoms: C_2  and  C_10
REMARK    2  A    between atoms: N_3  and  C_4
REMARK    3  A    between atoms: C_14  and  C_16
REMARK                            x       y       z     vdW  Elec       q    Type
REMARK                         _______ _______ _______ _____ _____    ______ ____
ROOT
ATOM      1  C   UNL     1       7.784   5.877  18.113  0.00  0.00    +0.000 C 
ATOM      2  C   UNL     1       7.249   5.059  16.930  0.00  0.00    +0.000 C 
ATOM      3  C   UNL     1       5.735   5.202  16.770  0.00  0.00    +0.000 C 
ATOM      4  N   UNL     1       5.035   4.893  18.016  0.00  0.00    +0.000 N 
ATOM      5  C   UNL     1       3.935   4.026  17.970  0.00  0.00    +0.000 C 
ATOM      6  O   UNL     1       3.642   3.385  16.961  0.00  0.00    +0.000 OA
ATOM      7  C   UNL     1       5.508   5.619  19.197  0.00  0.00    +0.000 C 
ATOM      8  C   UNL     1       7.017   5.484  19.380  0.00  0.00    +0.000 C 
ENDROOT
BRANCH   5   9
ATOM      9  C   UNL     1       3.102   3.801  19.185  0.00  0.00    +0.000 A 
ATOM     10  C   UNL     1       3.486   2.930  20.211  0.00  0.00    +0.000 A 
ATOM     11  C   UNL     1       2.609   2.651  21.261  0.00  0.00    +0.000 A 
ATOM     12  C   UNL     1       1.388   3.317  21.344  0.00  0.00    +0.000 A 
ATOM     13  C   UNL     1       1.047   4.271  20.385  0.00  0.00    +0.000 A 
ATOM     14  C   UNL     1       1.898   4.509  19.303  0.00  0.00    +0.000 A 
ENDBRANCH   5   9
BRANCH   1  16
ATOM     15  O   UNL     1       6.912   7.889  17.115  0.00  0.00    +0.000 OA
ATOM     16  C   UNL     1       7.714   7.397  17.905  0.00  0.00    +0.000 C 
ATOM     17  N   UNL     1       8.607   8.107  18.688  0.00  0.00    +0.000 N 
ATOM     18  H   UNL     1       9.260   7.581  19.256  0.00  0.00    +0.000 HD
BRANCH  17  19
ATOM     19  C   UNL     1       8.763   9.506  18.703  0.00  0.00    +0.000 A 
ATOM     20  C   UNL     1       8.327  10.343  17.670  0.00  0.00    +0.000 A 
ATOM     21  C   UNL     1       8.530  11.723  17.743  0.00  0.00    +0.000 A 
ATOM     22  C   UNL     1       9.164  12.281  18.846  0.00  0.00    +0.000 A 
ATOM     23  C   UNL     1       9.593  11.457  19.885  0.00  0.00    +0.000 A 
ATOM     24  C   UNL     1       9.383  10.076  19.821  0.00  0.00    +0.000 A 
ENDBRANCH  17  19
ENDBRANCH   1  16
TORSDOF 3
ENDMDL
MODEL 2
REMARK VINA RESULT:      -8.5      0.124      1.009
REMARK  Name = 
REMARK  3 active torsions:
REMARK  status: ('A' for Active; 'I' for Inactive)
REMARK    1  A    between atoms: C_2  and  C_10
REMARK    2  A    between atoms: N_3  and  C_4
REMARK    3  A    between atoms: C_14  and  C_16
REMARK                            x       y       z     vdW  Elec       q    Type
REMARK                         _______ _______ _______ _____ _____    ______ ____
ROOT
ATOM      1  C   UNL     1       7.793   5.869  18.120  0.00  0.00    +0.000 C 
ATOM      2  C   UNL     1       7.280   5.048  16.929  0.00  0.00    +0.000 C 
ATOM      3  C   UNL     1       5.772   5.202  16.732  0.00  0.00    +0.000 C 
ATOM      4  N   UNL     1       5.039   4.907  17.962  0.00  0.00    +0.000 N 
ATOM      5  C   UNL     1       3.933   4.049  17.894  0.00  0.00    +0.000 C 
ATOM      6  O   UNL     1       3.660   3.404  16.883  0.00  0.00    +0.000 OA
ATOM      7  C   UNL     1       5.489   5.637  19.149  0.00  0.00    +0.000 C 
ATOM      8  C   UNL     1       6.991   5.490  19.370  0.00  0.00    +0.000 C 
ENDROOT
BRANCH   5   9
ATOM      9  C   UNL     1       3.069   3.839  19.090  0.00  0.00    +0.000 A 
ATOM     10  C   UNL     1       1.934   4.618  19.346  0.00  0.00    +0.000 A 
ATOM     11  C   UNL     1       1.237   4.471  20.546  0.00  0.00    +0.000 A 
ATOM     12  C   UNL     1       1.609   3.477  21.450  0.00  0.00    +0.000 A 
ATOM     13  C   UNL     1       2.669   2.623  21.150  0.00  0.00    +0.000 A 
ATOM     14  C   UNL     1       3.403   2.806  19.976  0.00  0.00    +0.000 A 
ENDBRANCH   5   9
BRANCH   1  16
ATOM     15  O   UNL     1       6.972   7.881  17.078  0.00  0.00    +0.000 OA
ATOM     16  C   UNL     1       7.740   7.388  17.901  0.00  0.00    +0.000 C 
ATOM     17  N   UNL     1       8.608   8.097  18.713  0.00  0.00    +0.000 N 
ATOM     18  H   UNL     1       9.236   7.570  19.308  0.00  0.00    +0.000 HD
BRANCH  17  19
ATOM     19  C   UNL     1       8.773   9.495  18.726  0.00  0.00    +0.000 A 
ATOM     20  C   UNL     1       8.381  10.329  17.673  0.00  0.00    +0.000 A 
ATOM     21  C   UNL     1       8.590  11.708  17.746  0.00  0.00    +0.000 A 
ATOM     22  C   UNL     1       9.187  12.268  18.868  0.00  0.00    +0.000 A 
ATOM     23  C   UNL     1       9.572  11.448  19.927  0.00  0.00    +0.000 A 
ATOM     24  C   UNL     1       9.355  10.068  19.862  0.00  0.00    +0.000 A 
ENDBRANCH  17  19
ENDBRANCH   1  16
TORSDOF 3
ENDMDL
MODEL 3
REMARK VINA RESULT:      -8.5      1.424      1.889
REMARK  Name = 
REMARK  3 active torsions:
REMARK  status: ('A' for Active; 'I' for Inactive)
REMARK    1  A    between atoms: C_2  and  C_10
REMARK    2  A    between atoms: N_3  and  C_4
REMARK    3  A    between atoms: C_14  and  C_16
REMARK                            x       y       z     vdW  Elec       q    Type
REMARK                         _______ _______ _______ _____ _____    ______ ____
ROOT
ATOM      1  C   UNL     1       6.835   6.054  17.035  0.00  0.00    +0.000 C 
ATOM      2  C   UNL     1       5.611   6.680  16.353  0.00  0.00    +0.000 C 
ATOM      3  C   UNL     1       4.519   7.049  17.357  0.00  0.00    +0.000 C 
ATOM      4  N   UNL     1       4.158   5.907  18.196  0.00  0.00    +0.000 N 
ATOM      5  C   UNL     1       2.801   5.606  18.372  0.00  0.00    +0.000 C 
ATOM      6  O   UNL     1       1.914   6.153  17.718  0.00  0.00    +0.000 OA
ATOM      7  C   UNL     1       5.279   5.241  18.863  0.00  0.00    +0.000 C 
ATOM      8  C   UNL     1       6.379   4.857  17.877  0.00  0.00    +0.000 C 
ENDROOT
BRANCH   5   9
ATOM      9  C   UNL     1       2.383   4.549  19.335  0.00  0.00    +0.000 A 
ATOM     10  C   UNL     1       2.313   4.770  20.715  0.00  0.00    +0.000 A 
ATOM     11  C   UNL     1       2.047   3.712  21.585  0.00  0.00    +0.000 A 
ATOM     12  C   UNL     1       1.751   2.449  21.075  0.00  0.00    +0.000 A 
ATOM     13  C   UNL     1       1.708   2.247  19.696  0.00  0.00    +0.000 A 
ATOM     14  C   UNL     1       2.029   3.292  18.826  0.00  0.00    +0.000 A 
ENDBRANCH   5   9
BRANCH   1  16
ATOM     15  O   UNL     1       8.218   6.651  18.916  0.00  0.00    +0.000 OA
ATOM     16  C   UNL     1       7.637   7.034  17.904  0.00  0.00    +0.000 C 
ATOM     17  N   UNL     1       7.637   8.332  17.422  0.00  0.00    +0.000 N 
ATOM     18  H   UNL     1       7.068   8.534  16.609  0.00  0.00    +0.000 HD
BRANCH  17  19
ATOM     19  C   UNL     1       8.285   9.433  18.013  0.00  0.00    +0.000 A 
ATOM     20  C   UNL     1       9.047   9.344  19.183  0.00  0.00    +0.000 A 
ATOM     21  C   UNL     1       9.649  10.483  19.724  0.00  0.00    +0.000 A 
ATOM     22  C   UNL     1       9.501  11.717  19.103  0.00  0.00    +0.000 A 
ATOM     23  C   UNL     1       8.752  11.814  17.932  0.00  0.00    +0.000 A 
ATOM     24  C   UNL     1       8.156  10.675  17.382  0.00  0.00    +0.000 A 
ENDBRANCH  17  19
ENDBRANCH   1  16
TORSDOF 3
ENDMDL
MODEL 4
REMARK VINA RESULT:      -8.4      1.418      1.861
REMARK  Name = 
REMARK  3 active torsions:
REMARK  status: ('A' for Active; 'I' for Inactive)
REMARK    1  A    between atoms: C_2  and  C_10
REMARK    2  A    between atoms: N_3  and  C_4
REMARK    3  A    between atoms: C_14  and  C_16
REMARK                            x       y       z     vdW  Elec       q    Type
REMARK                         _______ _______ _______ _____ _____    ______ ____
ROOT
ATOM      1  C   UNL     1       6.850   6.129  16.978  0.00  0.00    +0.000 C 
ATOM      2  C   UNL     1       5.600   6.750  16.339  0.00  0.00    +0.000 C 
ATOM      3  C   UNL     1       4.519   7.059  17.374  0.00  0.00    +0.000 C 
ATOM      4  N   UNL     1       4.199   5.881  18.179  0.00  0.00    +0.000 N 
ATOM      5  C   UNL     1       2.852   5.544  18.368  0.00  0.00    +0.000 C 
ATOM      6  O   UNL     1       1.941   6.093  17.748  0.00  0.00    +0.000 OA
ATOM      7  C   UNL     1       5.346   5.218  18.803  0.00  0.00    +0.000 C 
ATOM      8  C   UNL     1       6.436   4.894  17.785  0.00  0.00    +0.000 C 
ENDROOT
BRANCH   5   9
ATOM      9  C   UNL     1       2.474   4.445  19.300  0.00  0.00    +0.000 A 
ATOM     10  C   UNL     1       2.160   3.155  18.857  0.00  0.00    +0.000 A 
ATOM     11  C   UNL     1       1.682   2.200  19.756  0.00  0.00    +0.000 A 
ATOM     12  C   UNL     1       1.611   2.497  21.116  0.00  0.00    +0.000 A 
ATOM     13  C   UNL     1       2.030   3.744  21.579  0.00  0.00    +0.000 A 
ATOM     14  C   UNL     1       2.455   4.720  20.674  0.00  0.00    +0.000 A 
ENDBRANCH   5   9
BRANCH   1  16
ATOM     15  O   UNL     1       8.218   6.699  18.878  0.00  0.00    +0.000 OA
ATOM     16  C   UNL     1       7.646   7.096  17.865  0.00  0.00    +0.000 C 
ATOM     17  N   UNL     1       7.651   8.400  17.401  0.00  0.00    +0.000 N 
ATOM     18  H   UNL     1       7.089   8.614  16.587  0.00  0.00    +0.000 HD
BRANCH  17  19
ATOM     19  C   UNL     1       8.295   9.493  18.012  0.00  0.00    +0.000 A 
ATOM     20  C   UNL     1       9.038   9.390  19.193  0.00  0.00    +0.000 A 
ATOM     21  C   UNL     1       9.637  10.520  19.754  0.00  0.00    +0.000 A 
ATOM     22  C   UNL     1       9.504  11.761  19.142  0.00  0.00    +0.000 A 
ATOM     23  C   UNL     1       8.774  11.872  17.960  0.00  0.00    +0.000 A 
ATOM     24  C   UNL     1       8.182  10.741  17.390  0.00  0.00    +0.000 A 
ENDBRANCH  17  19
ENDBRANCH   1  16
TORSDOF 3
ENDMDL
MODEL 5
REMARK VINA RESULT:      -8.4      0.141      1.010
REMARK  Name = 
REMARK  3 active torsions:
REMARK  status: ('A' for Active; 'I' for Inactive)
REMARK    1  A    between atoms: C_2  and  C_10
REMARK    2  A    between atoms: N_3  and  C_4
REMARK    3  A    between atoms: C_14  and  C_16
REMARK                            x       y       z     vdW  Elec       q    Type
REMARK                         _______ _______ _______ _____ _____    ______ ____
ROOT
ATOM      1  C   UNL     1       7.783   5.776  18.176  0.00  0.00    +0.000 C 
ATOM      2  C   UNL     1       7.261   4.943  16.997  0.00  0.00    +0.000 C 
ATOM      3  C   UNL     1       5.752   5.096  16.808  0.00  0.00    +0.000 C 
ATOM      4  N   UNL     1       5.028   4.813  18.046  0.00  0.00    +0.000 N 
ATOM      5  C   UNL     1       3.922   3.955  17.994  0.00  0.00    +0.000 C 
ATOM      6  O   UNL     1       3.641   3.300  16.991  0.00  0.00    +0.000 OA
ATOM      7  C   UNL     1       5.486   5.554  19.223  0.00  0.00    +0.000 C 
ATOM      8  C   UNL     1       6.991   5.409  19.435  0.00  0.00    +0.000 C 
ENDROOT
BRANCH   5   9
ATOM      9  C   UNL     1       3.066   3.755  19.198  0.00  0.00    +0.000 A 
ATOM     10  C   UNL     1       3.437   2.919  20.257  0.00  0.00    +0.000 A 
ATOM     11  C   UNL     1       2.542   2.661  21.296  0.00  0.00    +0.000 A 
ATOM     12  C   UNL     1       1.312   3.315  21.334  0.00  0.00    +0.000 A 
ATOM     13  C   UNL     1       0.981   4.237  20.341  0.00  0.00    +0.000 A 
ATOM     14  C   UNL     1       1.852   4.453  19.270  0.00  0.00    +0.000 A 
ENDBRANCH   5   9
BRANCH   1  16
ATOM     15  O   UNL     1       6.961   7.777  17.115  0.00  0.00    +0.000 OA
ATOM     16  C   UNL     1       7.729   7.293  17.943  0.00  0.00    +0.000 C 
ATOM     17  N   UNL     1       8.596   8.010  18.749  0.00  0.00    +0.000 N 
ATOM     18  H   UNL     1       9.224   7.489  19.349  0.00  0.00    +0.000 HD
BRANCH  17  19
ATOM     19  C   UNL     1       8.759   9.408  18.749  0.00  0.00    +0.000 A 
ATOM     20  C   UNL     1       9.440  10.107  19.751  0.00  0.00    +0.000 A 
ATOM     21  C   UNL     1       9.549  11.498  19.696  0.00  0.00    +0.000 A 
ATOM     22  C   UNL     1       8.985  12.205  18.641  0.00  0.00    +0.000 A 
ATOM     23  C   UNL     1       8.312  11.517  17.632  0.00  0.00    +0.000 A 
ATOM     24  C   UNL     1       8.209  10.123  17.678  0.00  0.00    +0.000 A 
ENDBRANCH  17  19
ENDBRANCH   1  16
TORSDOF 3
ENDMDL
MODEL 6
REMARK VINA RESULT:      -8.3      0.320      1.442
REMARK  Name = 
REMARK  3 active torsions:
REMARK  status: ('A' for Active; 'I' for Inactive)
REMARK    1  A    between atoms: C_2  and  C_10
REMARK    2  A    between atoms: N_3  and  C_4
REMARK    3  A    between atoms: C_14  and  C_16
REMARK                            x       y       z     vdW  Elec       q    Type
REMARK                         _______ _______ _______ _____ _____    ______ ____
ROOT
ATOM      1  C   UNL     1       7.825   6.076  18.061  0.00  0.00    +0.000 C 
ATOM      2  C   UNL     1       7.257   5.374  16.820  0.00  0.00    +0.000 C 
ATOM      3  C   UNL     1       5.746   5.563  16.694  0.00  0.00    +0.000 C 
ATOM      4  N   UNL     1       5.054   5.163  17.918  0.00  0.00    +0.000 N 
ATOM      5  C   UNL     1       3.934   4.328  17.813  0.00  0.00    +0.000 C 
ATOM      6  O   UNL     1       3.615   3.782  16.757  0.00  0.00    +0.000 OA
ATOM      7  C   UNL     1       5.557   5.776  19.150  0.00  0.00    +0.000 C 
ATOM      8  C   UNL     1       7.064   5.593  19.300  0.00  0.00    +0.000 C 
ENDROOT
BRANCH   5   9
ATOM      9  C   UNL     1       3.110   4.018  19.016  0.00  0.00    +0.000 A 
ATOM     10  C   UNL     1       1.941   4.719  19.330  0.00  0.00    +0.000 A 
ATOM     11  C   UNL     1       1.281   4.481  20.536  0.00  0.00    +0.000 A 
ATOM     12  C   UNL     1       1.728   3.472  21.387  0.00  0.00    +0.000 A 
ATOM     13  C   UNL     1       2.827   2.692  21.027  0.00  0.00    +0.000 A 
ATOM     14  C   UNL     1       3.522   2.968  19.847  0.00  0.00    +0.000 A 
ENDBRANCH   5   9
BRANCH   1  16
ATOM     15  O   UNL     1       6.980   8.185  17.258  0.00  0.00    +0.000 OA
ATOM     16  C   UNL     1       7.787   7.609  17.984  0.00  0.00    +0.000 C 
ATOM     17  N   UNL     1       8.714   8.230  18.803  0.00  0.00    +0.000 N 
ATOM     18  H   UNL     1       9.367   7.644  19.307  0.00  0.00    +0.000 HD
BRANCH  17  19
ATOM     19  C   UNL     1       8.904   9.620  18.932  0.00  0.00    +0.000 A 
ATOM     20  C   UNL     1       9.254  10.243  20.134  0.00  0.00    +0.000 A 
ATOM     21  C   UNL     1       9.410  11.630  20.193  0.00  0.00    +0.000 A 
ATOM     22  C   UNL     1       9.222  12.406  19.057  0.00  0.00    +0.000 A 
ATOM     23  C   UNL     1       8.883  11.793  17.852  0.00  0.00    +0.000 A 
ATOM     24  C   UNL     1       8.736  10.405  17.785  0.00  0.00    +0.000 A 
ENDBRANCH  17  19
ENDBRANCH   1  16
TORSDOF 3
ENDMDL
MODEL 7
REMARK VINA RESULT:      -8.3      1.390      1.573
REMARK  Name = 
REMARK  3 active torsions:
REMARK  status: ('A' for Active; 'I' for Inactive)
REMARK    1  A    between atoms: C_2  and  C_10
REMARK    2  A    between atoms: N_3  and  C_4
REMARK    3  A    between atoms: C_14  and  C_16
REMARK                            x       y       z     vdW  Elec       q    Type
REMARK                         _______ _______ _______ _____ _____    ______ ____
ROOT
ATOM      1  C   UNL     1       6.900   6.094  17.011  0.00  0.00    +0.000 C 
ATOM      2  C   UNL     1       5.651   6.671  16.331  0.00  0.00    +0.000 C 
ATOM      3  C   UNL     1       4.546   6.995  17.337  0.00  0.00    +0.000 C 
ATOM      4  N   UNL     1       4.233   5.839  18.176  0.00  0.00    +0.000 N 
ATOM      5  C   UNL     1       2.889   5.484  18.353  0.00  0.00    +0.000 C 
ATOM      6  O   UNL     1       1.980   5.996  17.700  0.00  0.00    +0.000 OA
ATOM      7  C   UNL     1       5.380   5.218  18.840  0.00  0.00    +0.000 C 
ATOM      8  C   UNL     1       6.493   4.880  17.853  0.00  0.00    +0.000 C 
ENDROOT
BRANCH   5   9
ATOM      9  C   UNL     1       2.514   4.410  19.315  0.00  0.00    +0.000 A 
ATOM     10  C   UNL     1       2.248   3.097  18.913  0.00  0.00    +0.000 A 
ATOM     11  C   UNL     1       1.770   2.162  19.833  0.00  0.00    +0.000 A 
ATOM     12  C   UNL     1       1.652   2.507  21.178  0.00  0.00    +0.000 A 
ATOM     13  C   UNL     1       2.024   3.782  21.606  0.00  0.00    +0.000 A 
ATOM     14  C   UNL     1       2.448   4.735  20.677  0.00  0.00    +0.000 A 
ENDBRANCH   5   9
BRANCH   1  16
ATOM     15  O   UNL     1       8.226   6.751  18.913  0.00  0.00    +0.000 OA
ATOM     16  C   UNL     1       7.663   7.105  17.879  0.00  0.00    +0.000 C 
ATOM     17  N   UNL     1       7.653   8.393  17.372  0.00  0.00    +0.000 N 
ATOM     18  H   UNL     1       7.100   8.569  16.543  0.00  0.00    +0.000 HD
BRANCH  17  19
ATOM     19  C   UNL     1       8.267   9.517  17.958  0.00  0.00    +0.000 A 
ATOM     20  C   UNL     1       8.192  10.806  17.419  0.00  0.00    +0.000 A 
ATOM     21  C   UNL     1       8.841  11.872  18.045  0.00  0.00    +0.000 A 
ATOM     22  C   UNL     1       9.564  11.666  19.213  0.00  0.00    +0.000 A 
ATOM     23  C   UNL     1       9.637  10.388  19.762  0.00  0.00    +0.000 A 
ATOM     24  C   UNL     1       8.981   9.318  19.145  0.00  0.00    +0.000 A 
ENDBRANCH  17  19
ENDBRANCH   1  16
TORSDOF 3
ENDMDL
MODEL 8
REMARK VINA RESULT:      -8.3      1.400      1.630
REMARK  Name = 
REMARK  3 active torsions:
REMARK  status: ('A' for Active; 'I' for Inactive)
REMARK    1  A    between atoms: C_2  and  C_10
REMARK    2  A    between atoms: N_3  and  C_4
REMARK    3  A    between atoms: C_14  and  C_16
REMARK                            x       y       z     vdW  Elec       q    Type
REMARK                         _______ _______ _______ _____ _____    ______ ____
ROOT
ATOM      1  C   UNL     1       6.861   6.050  17.051  0.00  0.00    +0.000 C 
ATOM      2  C   UNL     1       5.629   6.636  16.347  0.00  0.00    +0.000 C 
ATOM      3  C   UNL     1       4.522   7.002  17.335  0.00  0.00    +0.000 C 
ATOM      4  N   UNL     1       4.179   5.871  18.196  0.00  0.00    +0.000 N 
ATOM      5  C   UNL     1       2.827   5.545  18.368  0.00  0.00    +0.000 C 
ATOM      6  O   UNL     1       1.934   6.059  17.696  0.00  0.00    +0.000 OA
ATOM      7  C   UNL     1       5.309   5.243  18.885  0.00  0.00    +0.000 C 
ATOM      8  C   UNL     1       6.424   4.862  17.915  0.00  0.00    +0.000 C 
ENDROOT
BRANCH   5   9
ATOM      9  C   UNL     1       2.424   4.500  19.350  0.00  0.00    +0.000 A 
ATOM     10  C   UNL     1       2.317   4.755  20.722  0.00  0.00    +0.000 A 
ATOM     11  C   UNL     1       2.068   3.711  21.615  0.00  0.00    +0.000 A 
ATOM     12  C   UNL     1       1.825   2.426  21.133  0.00  0.00    +0.000 A 
ATOM     13  C   UNL     1       1.818   2.187  19.759  0.00  0.00    +0.000 A 
ATOM     14  C   UNL     1       2.124   3.219  18.868  0.00  0.00    +0.000 A 
ENDBRANCH   5   9
BRANCH   1  16
ATOM     15  O   UNL     1       8.205   6.718  18.936  0.00  0.00    +0.000 OA
ATOM     16  C   UNL     1       7.635   7.065  17.904  0.00  0.00    +0.000 C 
ATOM     17  N   UNL     1       7.626   8.349  17.386  0.00  0.00    +0.000 N 
ATOM     18  H   UNL     1       7.068   8.520  16.559  0.00  0.00    +0.000 HD
BRANCH  17  19
ATOM     19  C   UNL     1       8.250   9.475  17.957  0.00  0.00    +0.000 A 
ATOM     20  C   UNL     1       8.171  10.761  17.411  0.00  0.00    +0.000 A 
ATOM     21  C   UNL     1       8.829  11.830  18.022  0.00  0.00    +0.000 A 
ATOM     22  C   UNL     1       9.567  11.630  19.182  0.00  0.00    +0.000 A 
ATOM     23  C   UNL     1       9.643  10.355  19.739  0.00  0.00    +0.000 A 
ATOM     24  C   UNL     1       8.978   9.283  19.136  0.00  0.00    +0.000 A 
ENDBRANCH  17  19
ENDBRANCH   1  16
TORSDOF 3
ENDMDL
MODEL 9
REMARK VINA RESULT:      -8.3      3.674      6.797
REMARK  Name = 
REMARK  3 active torsions:
REMARK  status: ('A' for Active; 'I' for Inactive)
REMARK    1  A    between atoms: C_2  and  C_10
REMARK    2  A    between atoms: N_3  and  C_4
REMARK    3  A    between atoms: C_14  and  C_16
REMARK                            x       y       z     vdW  Elec       q    Type
REMARK                         _______ _______ _______ _____ _____    ______ ____
ROOT
ATOM      1  C   UNL     1       4.078   4.296  19.059  0.00  0.00    +0.000 C 
ATOM      2  C   UNL     1       5.412   5.035  19.231  0.00  0.00    +0.000 C 
ATOM      3  C   UNL     1       5.711   5.964  18.055  0.00  0.00    +0.000 C 
ATOM      4  N   UNL     1       5.636   5.252  16.780  0.00  0.00    +0.000 N 
ATOM      5  C   UNL     1       6.678   5.416  15.858  0.00  0.00    +0.000 C 
ATOM      6  O   UNL     1       7.727   5.992  16.144  0.00  0.00    +0.000 OA
ATOM      7  C   UNL     1       4.399   4.502  16.553  0.00  0.00    +0.000 C 
ATOM      8  C   UNL     1       4.085   3.562  17.714  0.00  0.00    +0.000 C 
ENDROOT
BRANCH   5   9
ATOM      9  C   UNL     1       6.574   4.832  14.491  0.00  0.00    +0.000 A 
ATOM     10  C   UNL     1       5.532   3.976  14.115  0.00  0.00    +0.000 A 
ATOM     11  C   UNL     1       5.553   3.349  12.868  0.00  0.00    +0.000 A 
ATOM     12  C   UNL     1       6.561   3.652  11.953  0.00  0.00    +0.000 A 
ATOM     13  C   UNL     1       7.540   4.590  12.279  0.00  0.00    +0.000 A 
ATOM     14  C   UNL     1       7.552   5.175  13.548  0.00  0.00    +0.000 A 
ENDBRANCH   5   9
BRANCH   1  16
ATOM     15  O   UNL     1       1.729   4.790  18.844  0.00  0.00    +0.000 OA
ATOM     16  C   UNL     1       2.843   5.203  19.158  0.00  0.00    +0.000 C 
ATOM     17  N   UNL     1       3.122   6.472  19.634  0.00  0.00    +0.000 N 
ATOM     18  H   UNL     1       4.092   6.712  19.799  0.00  0.00    +0.000 HD
BRANCH  17  19
ATOM     19  C   UNL     1       2.188   7.508  19.824  0.00  0.00    +0.000 A 
ATOM     20  C   UNL     1       1.437   7.666  20.994  0.00  0.00    +0.000 A 
ATOM     21  C   UNL     1       0.515   8.709  21.108  0.00  0.00    +0.000 A 
ATOM     22  C   UNL     1       0.335   9.604  20.060  0.00  0.00    +0.000 A 
ATOM     23  C   UNL     1       1.084   9.460  18.895  0.00  0.00    +0.000 A 
ATOM     24  C   UNL     1       2.016   8.424  18.780  0.00  0.00    +0.000 A 
ENDBRANCH  17  19
ENDBRANCH   1  16
TORSDOF 3
ENDMDL
