MODEL 1
REMARK VINA RESULT:      -7.4      0.000      0.000
REMARK  Name = 
REMARK  5 active torsions:
REMARK  status: ('A' for Active; 'I' for Inactive)
REMARK    1  A    between atoms: C_2  and  C_3
REMARK    2  A    between atoms: C_10  and  N_11
REMARK    3  A    between atoms: N_11  and  C_12
REMARK    4  A    between atoms: C_14  and  N_15
REMARK    5  A    between atoms: C_24  and  C_25
REMARK                            x       y       z     vdW  Elec       q    Type
REMARK                         _______ _______ _______ _____ _____    ______ ____
ROOT
ATOM      1  C   UNL     1      -0.528  12.287  21.763  0.00  0.00    +0.000 A 
ATOM      2  C   UNL     1      -1.700  11.901  22.420  0.00  0.00    +0.000 A 
ATOM      3  C   UNL     1      -2.417  12.798  23.199  0.00  0.00    +0.000 A 
ATOM      4  N   UNL     1      -2.007  14.067  23.372  0.00  0.00    +0.000 NA
ATOM      5  C   UNL     1      -0.837  14.429  22.799  0.00  0.00    +0.000 A 
ATOM      6  C   UNL     1      -0.050  13.586  22.025  0.00  0.00    +0.000 A 
ENDROOT
BRANCH   3   7
ATOM      7  N   UNL     1      -3.614  12.348  23.772  0.00  0.00    +0.000 N 
ATOM      8  C   UNL     1      -4.889  12.731  23.361  0.00  0.00    +0.000 A 
ATOM      9  C   UNL     1      -5.208  12.900  22.010  0.00  0.00    +0.000 A 
ATOM     10  N   UNL     1      -6.441  13.242  21.563  0.00  0.00    +0.000 NA
ATOM     11  C   UNL     1      -7.359  13.415  22.536  0.00  0.00    +0.000 A 
ATOM     12  C   UNL     1      -7.064  13.228  23.875  0.00  0.00    +0.000 A 
ATOM     13  N   UNL     1      -5.835  12.870  24.317  0.00  0.00    +0.000 NA
ATOM     14  H   UNL     1      -3.575  12.295  24.782  0.00  0.00    +0.000 HD
ENDBRANCH   3   7
BRANCH   6  15
ATOM     15  C   UNL     1       1.209  14.106  21.433  0.00  0.00    +0.000 C 
ATOM     16  N   UNL     1       1.171  14.579  20.147  0.00  0.00    +0.000 N 
ATOM     17  O   UNL     1       2.254  14.127  22.076  0.00  0.00    +0.000 OA
ATOM     18  H   UNL     1       0.316  14.793  19.653  0.00  0.00    +0.000 HD
ATOM     19  H   UNL     1       2.022  15.002  19.796  0.00  0.00    +0.000 HD
ENDBRANCH   6  15
BRANCH   1  20
ATOM     20  N   UNL     1       0.206  11.368  20.983  0.00  0.00    +0.000 N 
ATOM     21  H   UNL     1       0.677  11.888  20.226  0.00  0.00    +0.000 HD
BRANCH  20  29
ATOM     22  C   UNL     1       3.118   4.709  18.462  0.00  0.00    +0.000 A 
ATOM     23  C   UNL     1       3.539   5.855  17.803  0.00  0.00    +0.000 A 
ATOM     24  C   UNL     1       3.079   7.097  18.240  0.00  0.00    +0.000 A 
ATOM     25  C   UNL     1       2.214   7.188  19.331  0.00  0.00    +0.000 A 
ATOM     26  N   UNL     1       1.771   8.410  19.780  0.00  0.00    +0.000 N 
ATOM     27  C   UNL     1       1.437   8.576  21.187  0.00  0.00    +0.000 C 
ATOM     28  C   UNL     1      -0.039   8.900  21.339  0.00  0.00    +0.000 C 
ATOM     29  C   UNL     1      -0.437  10.125  20.503  0.00  0.00    +0.000 C 
ATOM     30  C   UNL     1      -0.057   9.870  19.038  0.00  0.00    +0.000 C 
ATOM     31  C   UNL     1       1.417   9.498  18.875  0.00  0.00    +0.000 C 
ATOM     32  N   UNL     1       1.825   6.070  19.984  0.00  0.00    +0.000 NA
ATOM     33  C   UNL     1       2.266   4.867  19.540  0.00  0.00    +0.000 A 
BRANCH  22  35
ATOM     34  N   UNL     1       3.901   2.361  17.717  0.00  0.00    +0.000 NA
ATOM     35  C   UNL     1       3.548   3.414  18.054  0.00  0.00    +0.000 C 
ENDBRANCH  22  35
ENDBRANCH  20  29
ENDBRANCH   1  20
TORSDOF 5
ENDMDL
MODEL 2
REMARK VINA RESULT:      -7.4      1.175      1.296
REMARK  Name = 
REMARK  5 active torsions:
REMARK  status: ('A' for Active; 'I' for Inactive)
REMARK    1  A    between atoms: C_2  and  C_3
REMARK    2  A    between atoms: C_10  and  N_11
REMARK    3  A    between atoms: N_11  and  C_12
REMARK    4  A    between atoms: C_14  and  N_15
REMARK    5  A    between atoms: C_24  and  C_25
REMARK                            x       y       z     vdW  Elec       q    Type
REMARK                         _______ _______ _______ _____ _____    ______ ____
ROOT
ATOM      1  C   UNL     1       0.396  12.071  20.856  0.00  0.00    +0.000 A 
ATOM      2  C   UNL     1      -0.661  11.669  21.678  0.00  0.00    +0.000 A 
ATOM      3  C   UNL     1      -1.207  12.528  22.621  0.00  0.00    +0.000 A 
ATOM      4  N   UNL     1      -0.731  13.773  22.799  0.00  0.00    +0.000 NA
ATOM      5  C   UNL     1       0.336  14.146  22.059  0.00  0.00    +0.000 A 
ATOM      6  C   UNL     1       0.953  13.339  21.112  0.00  0.00    +0.000 A 
ENDROOT
BRANCH   3   7
ATOM      7  N   UNL     1      -2.303  12.067  23.362  0.00  0.00    +0.000 N 
ATOM      8  C   UNL     1      -3.625  12.462  23.160  0.00  0.00    +0.000 A 
ATOM      9  C   UNL     1      -4.146  12.662  21.878  0.00  0.00    +0.000 A 
ATOM     10  N   UNL     1      -5.431  13.016  21.633  0.00  0.00    +0.000 NA
ATOM     11  C   UNL     1      -6.188  13.169  22.738  0.00  0.00    +0.000 A 
ATOM     12  C   UNL     1      -5.692  12.952  24.012  0.00  0.00    +0.000 A 
ATOM     13  N   UNL     1      -4.412  12.581  24.252  0.00  0.00    +0.000 NA
ATOM     14  H   UNL     1      -2.110  11.991  24.352  0.00  0.00    +0.000 HD
ENDBRANCH   3   7
BRANCH   6  15
ATOM     15  C   UNL     1       2.111  13.869  20.346  0.00  0.00    +0.000 C 
ATOM     16  N   UNL     1       3.180  14.361  21.051  0.00  0.00    +0.000 N 
ATOM     17  O   UNL     1       2.124  13.856  19.120  0.00  0.00    +0.000 OA
ATOM     18  H   UNL     1       3.325  14.198  22.038  0.00  0.00    +0.000 HD
ATOM     19  H   UNL     1       3.988  14.641  20.508  0.00  0.00    +0.000 HD
ENDBRANCH   6  15
BRANCH   1  20
ATOM     20  N   UNL     1       0.956  11.190  19.907  0.00  0.00    +0.000 N 
ATOM     21  H   UNL     1       1.314  11.748  19.116  0.00  0.00    +0.000 HD
BRANCH  20  29
ATOM     22  C   UNL     1       3.132   3.963  18.418  0.00  0.00    +0.000 A 
ATOM     23  C   UNL     1       3.792   4.962  17.718  0.00  0.00    +0.000 A 
ATOM     24  C   UNL     1       3.472   6.295  17.974  0.00  0.00    +0.000 A 
ATOM     25  C   UNL     1       2.508   6.621  18.928  0.00  0.00    +0.000 A 
ATOM     26  N   UNL     1       2.200   7.934  19.200  0.00  0.00    +0.000 N 
ATOM     27  C   UNL     1       1.730   8.297  20.529  0.00  0.00    +0.000 C 
ATOM     28  C   UNL     1       0.311   8.831  20.454  0.00  0.00    +0.000 C 
ATOM     29  C   UNL     1       0.199   9.999  19.463  0.00  0.00    +0.000 C 
ATOM     30  C   UNL     1       0.706   9.536  18.091  0.00  0.00    +0.000 C 
ATOM     31  C   UNL     1       2.118   8.953  18.159  0.00  0.00    +0.000 C 
ATOM     32  N   UNL     1       1.884   5.644  19.624  0.00  0.00    +0.000 NA
ATOM     33  C   UNL     1       2.193   4.352  19.356  0.00  0.00    +0.000 A 
BRANCH  22  35
ATOM     34  N   UNL     1       3.645   1.463  18.008  0.00  0.00    +0.000 NA
ATOM     35  C   UNL     1       3.413   2.585  18.192  0.00  0.00    +0.000 C 
ENDBRANCH  22  35
ENDBRANCH  20  29
ENDBRANCH   1  20
TORSDOF 5
ENDMDL
MODEL 3
REMARK VINA RESULT:      -7.4      1.770      2.493
REMARK  Name = 
REMARK  5 active torsions:
REMARK  status: ('A' for Active; 'I' for Inactive)
REMARK    1  A    between atoms: C_2  and  C_3
REMARK    2  A    between atoms: C_10  and  N_11
REMARK    3  A    between atoms: N_11  and  C_12
REMARK    4  A    between atoms: C_14  and  N_15
REMARK    5  A    between atoms: C_24  and  C_25
REMARK                            x       y       z     vdW  Elec       q    Type
REMARK                         _______ _______ _______ _____ _____    ______ ____
ROOT
ATOM      1  C   UNL     1       0.361  12.492  19.710  0.00  0.00    +0.000 A 
ATOM      2  C   UNL     1      -0.916  12.783  20.202  0.00  0.00    +0.000 A 
ATOM      3  C   UNL     1      -1.474  14.044  20.053  0.00  0.00    +0.000 A 
ATOM      4  N   UNL     1      -0.808  15.044  19.450  0.00  0.00    +0.000 NA
ATOM      5  C   UNL     1       0.454  14.793  19.035  0.00  0.00    +0.000 A 
ATOM      6  C   UNL     1       1.092  13.566  19.167  0.00  0.00    +0.000 A 
ENDROOT
BRANCH   3   7
ATOM      7  N   UNL     1      -2.782  14.234  20.520  0.00  0.00    +0.000 N 
ATOM      8  C   UNL     1      -3.207  13.985  21.824  0.00  0.00    +0.000 A 
ATOM      9  C   UNL     1      -2.408  14.290  22.930  0.00  0.00    +0.000 A 
ATOM     10  N   UNL     1      -2.792  14.093  24.215  0.00  0.00    +0.000 NA
ATOM     11  C   UNL     1      -4.026  13.567  24.354  0.00  0.00    +0.000 A 
ATOM     12  C   UNL     1      -4.837  13.282  23.269  0.00  0.00    +0.000 A 
ATOM     13  N   UNL     1      -4.457  13.497  21.987  0.00  0.00    +0.000 NA
ATOM     14  H   UNL     1      -3.487  13.932  19.860  0.00  0.00    +0.000 HD
ENDBRANCH   3   7
BRANCH   6  15
ATOM     15  C   UNL     1       2.478  13.408  18.654  0.00  0.00    +0.000 C 
ATOM     16  N   UNL     1       2.654  12.756  17.461  0.00  0.00    +0.000 N 
ATOM     17  O   UNL     1       3.439  13.857  19.269  0.00  0.00    +0.000 OA
ATOM     18  H   UNL     1       1.906  12.565  16.810  0.00  0.00    +0.000 HD
ATOM     19  H   UNL     1       3.599  12.733  17.095  0.00  0.00    +0.000 HD
ENDBRANCH   6  15
BRANCH   1  20
ATOM     20  N   UNL     1       0.931  11.212  19.874  0.00  0.00    +0.000 N 
ATOM     21  H   UNL     1       1.881  11.224  19.471  0.00  0.00    +0.000 HD
BRANCH  20  29
ATOM     22  C   UNL     1       3.107   3.967  18.481  0.00  0.00    +0.000 A 
ATOM     23  C   UNL     1       3.733   4.953  17.733  0.00  0.00    +0.000 A 
ATOM     24  C   UNL     1       3.412   6.290  17.968  0.00  0.00    +0.000 A 
ATOM     25  C   UNL     1       2.481   6.632  18.949  0.00  0.00    +0.000 A 
ATOM     26  N   UNL     1       2.173   7.949  19.200  0.00  0.00    +0.000 N 
ATOM     27  C   UNL     1       1.749   8.341  20.537  0.00  0.00    +0.000 C 
ATOM     28  C   UNL     1       0.324   8.863  20.501  0.00  0.00    +0.000 C 
ATOM     29  C   UNL     1       0.167  10.006  19.487  0.00  0.00    +0.000 C 
ATOM     30  C   UNL     1       0.627   9.513  18.109  0.00  0.00    +0.000 C 
ATOM     31  C   UNL     1       2.045   8.942  18.139  0.00  0.00    +0.000 C 
ATOM     32  N   UNL     1       1.891   5.668  19.691  0.00  0.00    +0.000 NA
ATOM     33  C   UNL     1       2.200   4.371  19.442  0.00  0.00    +0.000 A 
BRANCH  22  35
ATOM     34  N   UNL     1       3.624   1.461  18.109  0.00  0.00    +0.000 NA
ATOM     35  C   UNL     1       3.390   2.585  18.277  0.00  0.00    +0.000 C 
ENDBRANCH  22  35
ENDBRANCH  20  29
ENDBRANCH   1  20
TORSDOF 5
ENDMDL
MODEL 4
REMARK VINA RESULT:      -7.3      2.022      2.290
REMARK  Name = 
REMARK  5 active torsions:
REMARK  status: ('A' for Active; 'I' for Inactive)
REMARK    1  A    between atoms: C_2  and  C_3
REMARK    2  A    between atoms: C_10  and  N_11
REMARK    3  A    between atoms: N_11  and  C_12
REMARK    4  A    between atoms: C_14  and  N_15
REMARK    5  A    between atoms: C_24  and  C_25
REMARK                            x       y       z     vdW  Elec       q    Type
REMARK                         _______ _______ _______ _____ _____    ______ ____
ROOT
ATOM      1  C   UNL     1      -0.317  12.744  21.095  0.00  0.00    +0.000 A 
ATOM      2  C   UNL     1      -0.777  13.257  22.312  0.00  0.00    +0.000 A 
ATOM      3  C   UNL     1      -1.433  14.478  22.375  0.00  0.00    +0.000 A 
ATOM      4  N   UNL     1      -1.637  15.228  21.278  0.00  0.00    +0.000 NA
ATOM      5  C   UNL     1      -1.133  14.773  20.109  0.00  0.00    +0.000 A 
ATOM      6  C   UNL     1      -0.446  13.575  19.965  0.00  0.00    +0.000 A 
ENDROOT
BRANCH   3   7
ATOM      7  N   UNL     1      -1.916  14.891  23.624  0.00  0.00    +0.000 N 
ATOM      8  C   UNL     1      -3.185  15.421  23.854  0.00  0.00    +0.000 A 
ATOM      9  C   UNL     1      -4.319  14.925  23.203  0.00  0.00    +0.000 A 
ATOM     10  N   UNL     1      -5.574  15.389  23.417  0.00  0.00    +0.000 NA
ATOM     11  C   UNL     1      -5.654  16.388  24.319  0.00  0.00    +0.000 A 
ATOM     12  C   UNL     1      -4.543  16.872  24.989  0.00  0.00    +0.000 A 
ATOM     13  N   UNL     1      -3.293  16.394  24.785  0.00  0.00    +0.000 NA
ATOM     14  H   UNL     1      -1.226  15.390  24.172  0.00  0.00    +0.000 HD
ENDBRANCH   3   7
BRANCH   6  15
ATOM     15  C   UNL     1       0.046  13.174  18.622  0.00  0.00    +0.000 C 
ATOM     16  N   UNL     1      -0.878  12.977  17.629  0.00  0.00    +0.000 N 
ATOM     17  O   UNL     1       1.244  13.036  18.397  0.00  0.00    +0.000 OA
ATOM     18  H   UNL     1      -1.839  13.285  17.686  0.00  0.00    +0.000 HD
ATOM     19  H   UNL     1      -0.512  12.784  16.704  0.00  0.00    +0.000 HD
ENDBRANCH   6  15
BRANCH   1  20
ATOM     20  N   UNL     1       0.362  11.509  21.036  0.00  0.00    +0.000 N 
ATOM     21  H   UNL     1       1.187  11.619  20.426  0.00  0.00    +0.000 HD
BRANCH  20  29
ATOM     22  C   UNL     1       2.679   4.383  19.293  0.00  0.00    +0.000 A 
ATOM     23  C   UNL     1       3.139   5.400  18.469  0.00  0.00    +0.000 A 
ATOM     24  C   UNL     1       2.788   6.719  18.757  0.00  0.00    +0.000 A 
ATOM     25  C   UNL     1       1.993   7.013  19.865  0.00  0.00    +0.000 A 
ATOM     26  N   UNL     1       1.658   8.313  20.167  0.00  0.00    +0.000 N 
ATOM     27  C   UNL     1       1.413   8.684  21.554  0.00  0.00    +0.000 C 
ATOM     28  C   UNL     1      -0.027   9.132  21.728  0.00  0.00    +0.000 C 
ATOM     29  C   UNL     1      -0.388  10.264  20.756  0.00  0.00    +0.000 C 
ATOM     30  C   UNL     1      -0.108   9.794  19.322  0.00  0.00    +0.000 C 
ATOM     31  C   UNL     1       1.327   9.297  19.143  0.00  0.00    +0.000 C 
ATOM     32  N   UNL     1       1.566   6.021  20.678  0.00  0.00    +0.000 NA
ATOM     33  C   UNL     1       1.901   4.741  20.379  0.00  0.00    +0.000 A 
BRANCH  22  35
ATOM     34  N   UNL     1       3.264   1.907  18.839  0.00  0.00    +0.000 NA
ATOM     35  C   UNL     1       2.999   3.018  19.042  0.00  0.00    +0.000 C 
ENDBRANCH  22  35
ENDBRANCH  20  29
ENDBRANCH   1  20
TORSDOF 5
ENDMDL
MODEL 5
REMARK VINA RESULT:      -7.3      3.824     11.234
REMARK  Name = 
REMARK  5 active torsions:
REMARK  status: ('A' for Active; 'I' for Inactive)
REMARK    1  A    between atoms: C_2  and  C_3
REMARK    2  A    between atoms: C_10  and  N_11
REMARK    3  A    between atoms: N_11  and  C_12
REMARK    4  A    between atoms: C_14  and  N_15
REMARK    5  A    between atoms: C_24  and  C_25
REMARK                            x       y       z     vdW  Elec       q    Type
REMARK                         _______ _______ _______ _____ _____    ______ ____
ROOT
ATOM      1  C   UNL     1       2.674   4.661  18.512  0.00  0.00    +0.000 A 
ATOM      2  C   UNL     1       3.558   4.339  17.477  0.00  0.00    +0.000 A 
ATOM      3  C   UNL     1       4.176   3.098  17.418  0.00  0.00    +0.000 A 
ATOM      4  N   UNL     1       3.969   2.162  18.360  0.00  0.00    +0.000 NA
ATOM      5  C   UNL     1       3.173   2.489  19.402  0.00  0.00    +0.000 A 
ATOM      6  C   UNL     1       2.537   3.715  19.547  0.00  0.00    +0.000 A 
ENDROOT
BRANCH   3   7
ATOM      7  N   UNL     1       4.999   2.835  16.314  0.00  0.00    +0.000 N 
ATOM      8  C   UNL     1       5.846   3.763  15.712  0.00  0.00    +0.000 A 
ATOM      9  C   UNL     1       6.578   4.688  16.463  0.00  0.00    +0.000 A 
ATOM     10  N   UNL     1       7.435   5.588  15.923  0.00  0.00    +0.000 NA
ATOM     11  C   UNL     1       7.533   5.529  14.579  0.00  0.00    +0.000 A 
ATOM     12  C   UNL     1       6.833   4.603  13.825  0.00  0.00    +0.000 A 
ATOM     13  N   UNL     1       5.990   3.694  14.370  0.00  0.00    +0.000 NA
ATOM     14  H   UNL     1       4.548   2.266  15.609  0.00  0.00    +0.000 HD
ENDBRANCH   3   7
BRANCH   6  15
ATOM     15  C   UNL     1       1.670   3.951  20.731  0.00  0.00    +0.000 C 
ATOM     16  N   UNL     1       2.069   3.433  21.936  0.00  0.00    +0.000 N 
ATOM     17  O   UNL     1       0.634   4.601  20.642  0.00  0.00    +0.000 OA
ATOM     18  H   UNL     1       3.001   3.088  22.118  0.00  0.00    +0.000 HD
ATOM     19  H   UNL     1       1.504   3.676  22.741  0.00  0.00    +0.000 HD
ENDBRANCH   6  15
BRANCH   1  20
ATOM     20  N   UNL     1       2.058   5.928  18.576  0.00  0.00    +0.000 N 
ATOM     21  H   UNL     1       1.575   6.101  17.680  0.00  0.00    +0.000 HD
BRANCH  20  29
ATOM     22  C   UNL     1      -0.040  13.159  20.153  0.00  0.00    +0.000 A 
ATOM     23  C   UNL     1      -0.350  12.690  18.885  0.00  0.00    +0.000 A 
ATOM     24  C   UNL     1      -0.033  11.373  18.552  0.00  0.00    +0.000 A 
ATOM     25  C   UNL     1       0.579  10.535  19.484  0.00  0.00    +0.000 A 
ATOM     26  N   UNL     1       0.878   9.230  19.171  0.00  0.00    +0.000 N 
ATOM     27  C   UNL     1       0.902   8.229  20.227  0.00  0.00    +0.000 C 
ATOM     28  C   UNL     1       2.301   7.657  20.373  0.00  0.00    +0.000 C 
ATOM     29  C   UNL     1       2.827   7.103  19.041  0.00  0.00    +0.000 C 
ATOM     30  C   UNL     1       2.774   8.217  17.986  0.00  0.00    +0.000 C 
ATOM     31  C   UNL     1       1.380   8.833  17.860  0.00  0.00    +0.000 C 
ATOM     32  N   UNL     1       0.858  10.991  20.727  0.00  0.00    +0.000 NA
ATOM     33  C   UNL     1       0.559  12.277  21.034  0.00  0.00    +0.000 A 
BRANCH  22  35
ATOM     34  N   UNL     1      -0.567  15.589  20.862  0.00  0.00    +0.000 NA
ATOM     35  C   UNL     1      -0.333  14.498  20.545  0.00  0.00    +0.000 C 
ENDBRANCH  22  35
ENDBRANCH  20  29
ENDBRANCH   1  20
TORSDOF 5
ENDMDL
MODEL 6
REMARK VINA RESULT:      -7.3      1.324      1.408
REMARK  Name = 
REMARK  5 active torsions:
REMARK  status: ('A' for Active; 'I' for Inactive)
REMARK    1  A    between atoms: C_2  and  C_3
REMARK    2  A    between atoms: C_10  and  N_11
REMARK    3  A    between atoms: N_11  and  C_12
REMARK    4  A    between atoms: C_14  and  N_15
REMARK    5  A    between atoms: C_24  and  C_25
REMARK                            x       y       z     vdW  Elec       q    Type
REMARK                         _______ _______ _______ _____ _____    ______ ____
ROOT
ATOM      1  C   UNL     1      -0.451  12.601  21.480  0.00  0.00    +0.000 A 
ATOM      2  C   UNL     1      -1.373  13.014  22.447  0.00  0.00    +0.000 A 
ATOM      3  C   UNL     1      -2.032  14.231  22.340  0.00  0.00    +0.000 A 
ATOM      4  N   UNL     1      -1.798  15.072  21.318  0.00  0.00    +0.000 NA
ATOM      5  C   UNL     1      -0.856  14.713  20.417  0.00  0.00    +0.000 A 
ATOM      6  C   UNL     1      -0.138  13.525  20.465  0.00  0.00    +0.000 A 
ENDROOT
BRANCH   3   7
ATOM      7  N   UNL     1      -2.985  14.541  23.319  0.00  0.00    +0.000 N 
ATOM      8  C   UNL     1      -4.335  14.200  23.254  0.00  0.00    +0.000 A 
ATOM      9  C   UNL     1      -4.760  12.966  22.751  0.00  0.00    +0.000 A 
ATOM     10  N   UNL     1      -6.058  12.581  22.696  0.00  0.00    +0.000 NA
ATOM     11  C   UNL     1      -6.931  13.493  23.168  0.00  0.00    +0.000 A 
ATOM     12  C   UNL     1      -6.524  14.709  23.690  0.00  0.00    +0.000 A 
ATOM     13  N   UNL     1      -5.224  15.083  23.759  0.00  0.00    +0.000 NA
ATOM     14  H   UNL     1      -2.880  15.475  23.694  0.00  0.00    +0.000 HD
ENDBRANCH   3   7
BRANCH   6  15
ATOM     15  C   UNL     1       0.862  13.234  19.405  0.00  0.00    +0.000 C 
ATOM     16  N   UNL     1       0.410  13.059  18.123  0.00  0.00    +0.000 N 
ATOM     17  O   UNL     1       2.060  13.166  19.660  0.00  0.00    +0.000 OA
ATOM     18  H   UNL     1      -0.516  13.318  17.813  0.00  0.00    +0.000 HD
ATOM     19  H   UNL     1       1.118  12.943  17.407  0.00  0.00    +0.000 HD
ENDBRANCH   6  15
BRANCH   1  20
ATOM     20  N   UNL     1       0.226  11.369  21.599  0.00  0.00    +0.000 N 
ATOM     21  H   UNL     1       1.139  11.452  21.126  0.00  0.00    +0.000 HD
BRANCH  20  29
ATOM     22  C   UNL     1       2.779   4.640  18.881  0.00  0.00    +0.000 A 
ATOM     23  C   UNL     1       3.080   5.764  18.126  0.00  0.00    +0.000 A 
ATOM     24  C   UNL     1       2.680   7.019  18.587  0.00  0.00    +0.000 A 
ATOM     25  C   UNL     1       1.996   7.143  19.796  0.00  0.00    +0.000 A 
ATOM     26  N   UNL     1       1.615   8.378  20.267  0.00  0.00    +0.000 N 
ATOM     27  C   UNL     1       1.504   8.592  21.703  0.00  0.00    +0.000 C 
ATOM     28  C   UNL     1       0.067   8.913  22.073  0.00  0.00    +0.000 C 
ATOM     29  C   UNL     1      -0.471  10.106  21.269  0.00  0.00    +0.000 C 
ATOM     30  C   UNL     1      -0.322   9.801  19.772  0.00  0.00    +0.000 C 
ATOM     31  C   UNL     1       1.112   9.431  19.393  0.00  0.00    +0.000 C 
ATOM     32  N   UNL     1       1.726   6.047  20.540  0.00  0.00    +0.000 NA
ATOM     33  C   UNL     1       2.105   4.831  20.074  0.00  0.00    +0.000 A 
BRANCH  22  35
ATOM     34  N   UNL     1       3.464   2.272  18.105  0.00  0.00    +0.000 NA
ATOM     35  C   UNL     1       3.154   3.334  18.455  0.00  0.00    +0.000 C 
ENDBRANCH  22  35
ENDBRANCH  20  29
ENDBRANCH   1  20
TORSDOF 5
ENDMDL
MODEL 7
REMARK VINA RESULT:      -7.2      2.462      9.926
REMARK  Name = 
REMARK  5 active torsions:
REMARK  status: ('A' for Active; 'I' for Inactive)
REMARK    1  A    between atoms: C_2  and  C_3
REMARK    2  A    between atoms: C_10  and  N_11
REMARK    3  A    between atoms: N_11  and  C_12
REMARK    4  A    between atoms: C_14  and  N_15
REMARK    5  A    between atoms: C_24  and  C_25
REMARK                            x       y       z     vdW  Elec       q    Type
REMARK                         _______ _______ _______ _____ _____    ______ ____
ROOT
ATOM      1  C   UNL     1       0.533   9.315  20.348  0.00  0.00    +0.000 A 
ATOM      2  C   UNL     1       0.970   8.090  20.860  0.00  0.00    +0.000 A 
ATOM      3  C   UNL     1       1.902   7.318  20.181  0.00  0.00    +0.000 A 
ATOM      4  N   UNL     1       2.408   7.702  18.996  0.00  0.00    +0.000 NA
ATOM      5  C   UNL     1       1.938   8.850  18.459  0.00  0.00    +0.000 A 
ATOM      6  C   UNL     1       0.991   9.667  19.063  0.00  0.00    +0.000 A 
ENDROOT
BRANCH   3   7
ATOM      7  N   UNL     1       2.333   6.133  20.793  0.00  0.00    +0.000 N 
ATOM      8  C   UNL     1       1.978   4.849  20.383  0.00  0.00    +0.000 A 
ATOM      9  C   UNL     1       1.875   4.510  19.031  0.00  0.00    +0.000 A 
ATOM     10  N   UNL     1       1.562   3.268  18.586  0.00  0.00    +0.000 NA
ATOM     11  C   UNL     1       1.349   2.363  19.563  0.00  0.00    +0.000 A 
ATOM     12  C   UNL     1       1.471   2.679  20.906  0.00  0.00    +0.000 A 
ATOM     13  N   UNL     1       1.801   3.916  21.345  0.00  0.00    +0.000 NA
ATOM     14  H   UNL     1       2.338   6.187  21.803  0.00  0.00    +0.000 HD
ENDBRANCH   3   7
BRANCH   6  15
ATOM     15  C   UNL     1       0.565  10.916  18.381  0.00  0.00    +0.000 C 
ATOM     16  N   UNL     1       1.537  11.790  17.969  0.00  0.00    +0.000 N 
ATOM     17  O   UNL     1      -0.620  11.158  18.175  0.00  0.00    +0.000 OA
ATOM     18  H   UNL     1       2.518  11.552  17.908  0.00  0.00    +0.000 HD
ATOM     19  H   UNL     1       1.226  12.594  17.436  0.00  0.00    +0.000 HD
ENDBRANCH   6  15
BRANCH   1  20
ATOM     20  N   UNL     1      -0.425  10.091  21.034  0.00  0.00    +0.000 N 
ATOM     21  H   UNL     1      -1.055  10.521  20.339  0.00  0.00    +0.000 HD
BRANCH  20  29
ATOM     22  C   UNL     1      -3.962  16.094  24.294  0.00  0.00    +0.000 A 
ATOM     23  C   UNL     1      -3.862  16.115  22.910  0.00  0.00    +0.000 A 
ATOM     24  C   UNL     1      -3.268  15.035  22.257  0.00  0.00    +0.000 A 
ATOM     25  C   UNL     1      -2.790  13.944  22.983  0.00  0.00    +0.000 A 
ATOM     26  N   UNL     1      -2.220  12.867  22.345  0.00  0.00    +0.000 N 
ATOM     27  C   UNL     1      -2.308  11.548  22.954  0.00  0.00    +0.000 C 
ATOM     28  C   UNL     1      -0.920  11.039  23.300  0.00  0.00    +0.000 C 
ATOM     29  C   UNL     1       0.007  11.048  22.076  0.00  0.00    +0.000 C 
ATOM     30  C   UNL     1       0.049  12.470  21.498  0.00  0.00    +0.000 C 
ATOM     31  C   UNL     1      -1.346  13.013  21.187  0.00  0.00    +0.000 C 
ATOM     32  N   UNL     1      -2.910  13.919  24.330  0.00  0.00    +0.000 NA
ATOM     33  C   UNL     1      -3.475  14.982  24.955  0.00  0.00    +0.000 A 
BRANCH  22  35
ATOM     34  N   UNL     1      -5.028  18.051  25.605  0.00  0.00    +0.000 NA
ATOM     35  C   UNL     1      -4.551  17.174  25.014  0.00  0.00    +0.000 C 
ENDBRANCH  22  35
ENDBRANCH  20  29
ENDBRANCH   1  20
TORSDOF 5
ENDMDL
MODEL 8
REMARK VINA RESULT:      -7.2      3.136     11.067
REMARK  Name = 
REMARK  5 active torsions:
REMARK  status: ('A' for Active; 'I' for Inactive)
REMARK    1  A    between atoms: C_2  and  C_3
REMARK    2  A    between atoms: C_10  and  N_11
REMARK    3  A    between atoms: N_11  and  C_12
REMARK    4  A    between atoms: C_14  and  N_15
REMARK    5  A    between atoms: C_24  and  C_25
REMARK                            x       y       z     vdW  Elec       q    Type
REMARK                         _______ _______ _______ _____ _____    ______ ____
ROOT
ATOM      1  C   UNL     1       2.690   6.046  19.247  0.00  0.00    +0.000 A 
ATOM      2  C   UNL     1       3.705   6.451  18.374  0.00  0.00    +0.000 A 
ATOM      3  C   UNL     1       4.699   5.573  17.969  0.00  0.00    +0.000 A 
ATOM      4  N   UNL     1       4.743   4.304  18.412  0.00  0.00    +0.000 NA
ATOM      5  C   UNL     1       3.808   3.924  19.312  0.00  0.00    +0.000 A 
ATOM      6  C   UNL     1       2.795   4.748  19.784  0.00  0.00    +0.000 A 
ENDROOT
BRANCH   3   7
ATOM      7  N   UNL     1       5.642   6.041  17.045  0.00  0.00    +0.000 N 
ATOM      8  C   UNL     1       5.991   5.392  15.862  0.00  0.00    +0.000 A 
ATOM      9  C   UNL     1       5.038   4.744  15.070  0.00  0.00    +0.000 A 
ATOM     10  N   UNL     1       5.326   4.126  13.898  0.00  0.00    +0.000 NA
ATOM     11  C   UNL     1       6.627   4.178  13.544  0.00  0.00    +0.000 A 
ATOM     12  C   UNL     1       7.576   4.837  14.307  0.00  0.00    +0.000 A 
ATOM     13  N   UNL     1       7.281   5.468  15.468  0.00  0.00    +0.000 NA
ATOM     14  H   UNL     1       6.466   6.433  17.482  0.00  0.00    +0.000 HD
ENDBRANCH   3   7
BRANCH   6  15
ATOM     15  C   UNL     1       1.813   4.209  20.761  0.00  0.00    +0.000 C 
ATOM     16  N   UNL     1       2.295   3.612  21.897  0.00  0.00    +0.000 N 
ATOM     17  O   UNL     1       0.606   4.306  20.570  0.00  0.00    +0.000 OA
ATOM     18  H   UNL     1       3.251   3.697  22.215  0.00  0.00    +0.000 HD
ATOM     19  H   UNL     1       1.607   3.326  22.583  0.00  0.00    +0.000 HD
ENDBRANCH   6  15
BRANCH   1  20
ATOM     20  N   UNL     1       1.689   6.946  19.667  0.00  0.00    +0.000 N 
ATOM     21  H   UNL     1       1.000   7.046  18.905  0.00  0.00    +0.000 HD
BRANCH  20  29
ATOM     22  C   UNL     1      -2.429  13.227  21.335  0.00  0.00    +0.000 A 
ATOM     23  C   UNL     1      -2.482  12.786  20.021  0.00  0.00    +0.000 A 
ATOM     24  C   UNL     1      -1.790  11.628  19.665  0.00  0.00    +0.000 A 
ATOM     25  C   UNL     1      -1.062  10.917  20.618  0.00  0.00    +0.000 A 
ATOM     26  N   UNL     1      -0.393   9.764  20.280  0.00  0.00    +0.000 N 
ATOM     27  C   UNL     1      -0.195   8.731  21.286  0.00  0.00    +0.000 C 
ATOM     28  C   UNL     1       1.287   8.543  21.556  0.00  0.00    +0.000 C 
ATOM     29  C   UNL     1       2.064   8.246  20.265  0.00  0.00    +0.000 C 
ATOM     30  C   UNL     1       1.807   9.379  19.262  0.00  0.00    +0.000 C 
ATOM     31  C   UNL     1       0.316   9.611  19.015  0.00  0.00    +0.000 C 
ATOM     32  N   UNL     1      -1.032  11.339  21.903  0.00  0.00    +0.000 NA
ATOM     33  C   UNL     1      -1.696  12.474  22.234  0.00  0.00    +0.000 A 
BRANCH  22  35
ATOM     34  N   UNL     1      -3.657  15.371  22.095  0.00  0.00    +0.000 NA
ATOM     35  C   UNL     1      -3.108  14.408  21.753  0.00  0.00    +0.000 C 
ENDBRANCH  22  35
ENDBRANCH  20  29
ENDBRANCH   1  20
TORSDOF 5
ENDMDL
MODEL 9
REMARK VINA RESULT:      -7.2      1.274      1.659
REMARK  Name = 
REMARK  5 active torsions:
REMARK  status: ('A' for Active; 'I' for Inactive)
REMARK    1  A    between atoms: C_2  and  C_3
REMARK    2  A    between atoms: C_10  and  N_11
REMARK    3  A    between atoms: N_11  and  C_12
REMARK    4  A    between atoms: C_14  and  N_15
REMARK    5  A    between atoms: C_24  and  C_25
REMARK                            x       y       z     vdW  Elec       q    Type
REMARK                         _______ _______ _______ _____ _____    ______ ____
ROOT
ATOM      1  C   UNL     1      -0.216  12.566  20.543  0.00  0.00    +0.000 A 
ATOM      2  C   UNL     1      -1.611  12.660  20.542  0.00  0.00    +0.000 A 
ATOM      3  C   UNL     1      -2.250  13.888  20.446  0.00  0.00    +0.000 A 
ATOM      4  N   UNL     1      -1.560  15.039  20.371  0.00  0.00    +0.000 NA
ATOM      5  C   UNL     1      -0.212  14.964  20.443  0.00  0.00    +0.000 A 
ATOM      6  C   UNL     1       0.502  13.778  20.562  0.00  0.00    +0.000 A 
ENDROOT
BRANCH   3   7
ATOM      7  N   UNL     1      -3.651  13.888  20.391  0.00  0.00    +0.000 N 
ATOM      8  C   UNL     1      -4.491  13.569  21.456  0.00  0.00    +0.000 A 
ATOM      9  C   UNL     1      -4.207  13.972  22.764  0.00  0.00    +0.000 A 
ATOM     10  N   UNL     1      -5.009  13.711  23.825  0.00  0.00    +0.000 NA
ATOM     11  C   UNL     1      -6.125  13.016  23.523  0.00  0.00    +0.000 A 
ATOM     12  C   UNL     1      -6.431  12.631  22.229  0.00  0.00    +0.000 A 
ATOM     13  N   UNL     1      -5.635  12.909  21.169  0.00  0.00    +0.000 NA
ATOM     14  H   UNL     1      -4.014  13.497  19.531  0.00  0.00    +0.000 HD
ENDBRANCH   3   7
BRANCH   6  15
ATOM     15  C   UNL     1       1.986  13.823  20.614  0.00  0.00    +0.000 C 
ATOM     16  N   UNL     1       2.650  14.435  19.582  0.00  0.00    +0.000 N 
ATOM     17  O   UNL     1       2.605  13.342  21.557  0.00  0.00    +0.000 OA
ATOM     18  H   UNL     1       2.202  15.034  18.902  0.00  0.00    +0.000 HD
ATOM     19  H   UNL     1       3.654  14.523  19.681  0.00  0.00    +0.000 HD
ENDBRANCH   6  15
BRANCH   1  20
ATOM     20  N   UNL     1       0.430  11.317  20.653  0.00  0.00    +0.000 N 
ATOM     21  H   UNL     1       1.364  11.394  20.219  0.00  0.00    +0.000 HD
BRANCH  20  29
ATOM     22  C   UNL     1       2.977   4.315  18.738  0.00  0.00    +0.000 A 
ATOM     23  C   UNL     1       3.479   5.377  17.999  0.00  0.00    +0.000 A 
ATOM     24  C   UNL     1       3.087   6.676  18.325  0.00  0.00    +0.000 A 
ATOM     25  C   UNL     1       2.210   6.906  19.385  0.00  0.00    +0.000 A 
ATOM     26  N   UNL     1       1.834   8.184  19.725  0.00  0.00    +0.000 N 
ATOM     27  C   UNL     1       1.486   8.483  21.107  0.00  0.00    +0.000 C 
ATOM     28  C   UNL     1       0.030   8.905  21.199  0.00  0.00    +0.000 C 
ATOM     29  C   UNL     1      -0.278  10.079  20.259  0.00  0.00    +0.000 C 
ATOM     30  C   UNL     1       0.112   9.684  18.828  0.00  0.00    +0.000 C 
ATOM     31  C   UNL     1       1.563   9.214  18.729  0.00  0.00    +0.000 C 
ATOM     32  N   UNL     1       1.742   5.869  20.117  0.00  0.00    +0.000 NA
ATOM     33  C   UNL     1       2.118   4.610  19.780  0.00  0.00    +0.000 A 
BRANCH  22  35
ATOM     34  N   UNL     1       3.628   1.872  18.199  0.00  0.00    +0.000 NA
ATOM     35  C   UNL     1       3.335   2.968  18.444  0.00  0.00    +0.000 C 
ENDBRANCH  22  35
ENDBRANCH  20  29
ENDBRANCH   1  20
TORSDOF 5
ENDMDL
