MODEL 1
REMARK VINA RESULT:      -8.0      0.000      0.000
REMARK  Name = 
REMARK  7 active torsions:
REMARK  status: ('A' for Active; 'I' for Inactive)
REMARK    1  A    between atoms: C_1  and  C_2
REMARK    2  A    between atoms: N_6  and  C_7
REMARK    3  A    between atoms: C_7  and  C_8
REMARK    4  A    between atoms: C_8  and  N_9
REMARK    5  A    between atoms: C_10  and  C_12
REMARK    6  A    between atoms: C_12  and  C_13
REMARK    7  A    between atoms: C_20  and  C_21
REMARK                            x       y       z     vdW  Elec       q    Type
REMARK                         _______ _______ _______ _____ _____    ______ ____
ROOT
ATOM      1  C   UNL     1       4.872   4.944  17.909  0.00  0.00    +0.000 C 
ATOM      2  C   UNL     1       5.435   5.455  19.300  0.00  0.00    +0.000 C 
ATOM      3  C   UNL     1       3.630   5.839  17.689  0.00  0.00    +0.000 C 
ATOM      4  O   UNL     1       4.040   7.253  17.677  0.00  0.00    +0.000 OA
ATOM      5  C   UNL     1       5.114   7.619  16.763  0.00  0.00    +0.000 C 
ATOM      6  C   UNL     1       6.084   6.526  16.659  0.00  0.00    +0.000 A 
ATOM      7  N   UNL     1       7.393   6.357  16.745  0.00  0.00    +0.000 NA
ATOM      8  N   UNL     1       7.623   5.012  16.375  0.00  0.00    +0.000 NA
ATOM      9  C   UNL     1       6.482   4.653  15.781  0.00  0.00    +0.000 A 
ATOM     10  N   UNL     1       5.584   5.254  16.644  0.00  0.00    +0.000 N 
ENDROOT
BRANCH   9  11
ATOM     11  C   UNL     1       6.418   4.727  14.206  0.00  0.00    +0.000 C 
ATOM     12  C   UNL     1       7.675   4.962  13.345  0.00  0.00    +0.000 C 
ATOM     13  C   UNL     1       7.245   4.527  11.924  0.00  0.00    +0.000 C 
ATOM     14  C   UNL     1       6.257   3.387  12.115  0.00  0.00    +0.000 C 
ATOM     15  C   UNL     1       5.925   3.381  13.602  0.00  0.00    +0.000 C 
ENDBRANCH   9  11
BRANCH   1  17
ATOM     16  N   UNL     1       5.127   3.068  19.448  0.00  0.00    +0.000 N 
ATOM     17  C   UNL     1       4.700   3.450  18.174  0.00  0.00    +0.000 C 
ATOM     18  O   UNL     1       4.098   2.698  17.415  0.00  0.00    +0.000 OA
ATOM     19  H   UNL     1       5.598   3.770  20.017  0.00  0.00    +0.000 HD
BRANCH  16  20
ATOM     20  C   UNL     1       4.632   1.904  20.183  0.00  0.00    +0.000 C 
BRANCH  20  21
ATOM     21  C   UNL     1       3.425   2.240  21.063  0.00  0.00    +0.000 C 
BRANCH  21  27
ATOM     22  C   UNL     1       2.105   5.038  20.999  0.00  0.00    +0.000 C 
ATOM     23  C   UNL     1       1.668   3.851  20.216  0.00  0.00    +0.000 A 
ATOM     24  N   UNL     1       0.715   3.850  19.310  0.00  0.00    +0.000 NA
ATOM     25  C   UNL     1       0.670   2.577  18.808  0.00  0.00    +0.000 A 
ATOM     26  C   UNL     1       1.591   1.780  19.432  0.00  0.00    +0.000 A 
ATOM     27  N   UNL     1       2.242   2.605  20.312  0.00  0.00    +0.000 N 
ENDBRANCH  21  27
ENDBRANCH  20  21
ENDBRANCH  16  20
ENDBRANCH   1  17
TORSDOF 5
ENDMDL
MODEL 2
REMARK VINA RESULT:      -7.8      0.363      1.221
REMARK  Name = 
REMARK  7 active torsions:
REMARK  status: ('A' for Active; 'I' for Inactive)
REMARK    1  A    between atoms: C_1  and  C_2
REMARK    2  A    between atoms: N_6  and  C_7
REMARK    3  A    between atoms: C_7  and  C_8
REMARK    4  A    between atoms: C_8  and  N_9
REMARK    5  A    between atoms: C_10  and  C_12
REMARK    6  A    between atoms: C_12  and  C_13
REMARK    7  A    between atoms: C_20  and  C_21
REMARK                            x       y       z     vdW  Elec       q    Type
REMARK                         _______ _______ _______ _____ _____    ______ ____
ROOT
ATOM      1  C   UNL     1       4.840   4.897  17.906  0.00  0.00    +0.000 C 
ATOM      2  C   UNL     1       5.398   5.377  19.309  0.00  0.00    +0.000 C 
ATOM      3  C   UNL     1       3.608   5.807  17.693  0.00  0.00    +0.000 C 
ATOM      4  O   UNL     1       4.031   7.217  17.710  0.00  0.00    +0.000 OA
ATOM      5  C   UNL     1       5.115   7.589  16.811  0.00  0.00    +0.000 C 
ATOM      6  C   UNL     1       6.076   6.490  16.693  0.00  0.00    +0.000 A 
ATOM      7  N   UNL     1       7.382   6.307  16.785  0.00  0.00    +0.000 NA
ATOM      8  N   UNL     1       7.603   4.967  16.393  0.00  0.00    +0.000 NA
ATOM      9  C   UNL     1       6.463   4.630  15.785  0.00  0.00    +0.000 A 
ATOM     10  N   UNL     1       5.564   5.223  16.652  0.00  0.00    +0.000 N 
ENDROOT
BRANCH   9  11
ATOM     11  C   UNL     1       6.411   4.733  14.210  0.00  0.00    +0.000 C 
ATOM     12  C   UNL     1       7.677   4.960  13.362  0.00  0.00    +0.000 C 
ATOM     13  C   UNL     1       7.249   4.558  11.930  0.00  0.00    +0.000 C 
ATOM     14  C   UNL     1       6.240   3.433  12.094  0.00  0.00    +0.000 C 
ATOM     15  C   UNL     1       5.897   3.406  13.580  0.00  0.00    +0.000 C 
ENDBRANCH   9  11
BRANCH   1  17
ATOM     16  N   UNL     1       4.986   3.006  19.440  0.00  0.00    +0.000 N 
ATOM     17  C   UNL     1       4.653   3.400  18.142  0.00  0.00    +0.000 C 
ATOM     18  O   UNL     1       4.110   2.655  17.333  0.00  0.00    +0.000 OA
ATOM     19  H   UNL     1       5.413   3.702  20.049  0.00  0.00    +0.000 HD
BRANCH  16  20
ATOM     20  C   UNL     1       4.442   1.833  20.125  0.00  0.00    +0.000 C 
BRANCH  20  21
ATOM     21  C   UNL     1       3.354   2.202  21.137  0.00  0.00    +0.000 C 
BRANCH  21  27
ATOM     22  C   UNL     1       1.109   2.031  19.015  0.00  0.00    +0.000 C 
ATOM     23  C   UNL     1       1.463   3.236  19.813  0.00  0.00    +0.000 A 
ATOM     24  N   UNL     1       0.806   4.374  19.798  0.00  0.00    +0.000 NA
ATOM     25  C   UNL     1       1.436   5.188  20.701  0.00  0.00    +0.000 A 
ATOM     26  C   UNL     1       2.509   4.549  21.260  0.00  0.00    +0.000 A 
ATOM     27  N   UNL     1       2.506   3.294  20.707  0.00  0.00    +0.000 N 
ENDBRANCH  21  27
ENDBRANCH  20  21
ENDBRANCH  16  20
ENDBRANCH   1  17
TORSDOF 5
ENDMDL
MODEL 3
REMARK VINA RESULT:      -7.5      2.163      6.430
REMARK  Name = 
REMARK  7 active torsions:
REMARK  status: ('A' for Active; 'I' for Inactive)
REMARK    1  A    between atoms: C_1  and  C_2
REMARK    2  A    between atoms: N_6  and  C_7
REMARK    3  A    between atoms: C_7  and  C_8
REMARK    4  A    between atoms: C_8  and  N_9
REMARK    5  A    between atoms: C_10  and  C_12
REMARK    6  A    between atoms: C_12  and  C_13
REMARK    7  A    between atoms: C_20  and  C_21
REMARK                            x       y       z     vdW  Elec       q    Type
REMARK                         _______ _______ _______ _____ _____    ______ ____
ROOT
ATOM      1  C   UNL     1       3.975   3.885  18.834  0.00  0.00    +0.000 C 
ATOM      2  C   UNL     1       4.138   2.442  19.469  0.00  0.00    +0.000 C 
ATOM      3  C   UNL     1       3.558   3.577  17.377  0.00  0.00    +0.000 C 
ATOM      4  O   UNL     1       2.315   2.787  17.378  0.00  0.00    +0.000 OA
ATOM      5  C   UNL     1       1.195   3.326  18.138  0.00  0.00    +0.000 C 
ATOM      6  C   UNL     1       1.680   4.016  19.336  0.00  0.00    +0.000 A 
ATOM      7  N   UNL     1       1.437   4.027  20.635  0.00  0.00    +0.000 NA
ATOM      8  N   UNL     1       2.215   5.086  21.155  0.00  0.00    +0.000 NA
ATOM      9  C   UNL     1       2.545   5.790  20.070  0.00  0.00    +0.000 A 
ATOM     10  N   UNL     1       2.827   4.749  19.206  0.00  0.00    +0.000 N 
ENDROOT
BRANCH   9  11
ATOM     11  C   UNL     1       1.664   7.052  19.718  0.00  0.00    +0.000 C 
ATOM     12  C   UNL     1       1.464   8.215  20.710  0.00  0.00    +0.000 C 
ATOM     13  C   UNL     1       0.942   9.375  19.830  0.00  0.00    +0.000 C 
ATOM     14  C   UNL     1       1.610   9.208  18.474  0.00  0.00    +0.000 C 
ATOM     15  C   UNL     1       2.259   7.829  18.507  0.00  0.00    +0.000 C 
ENDBRANCH   9  11
BRANCH   1  17
ATOM     16  N   UNL     1       6.377   3.903  18.412  0.00  0.00    +0.000 N 
ATOM     17  C   UNL     1       5.339   4.508  19.123  0.00  0.00    +0.000 C 
ATOM     18  O   UNL     1       5.483   5.534  19.778  0.00  0.00    +0.000 OA
ATOM     19  H   UNL     1       6.156   3.065  17.875  0.00  0.00    +0.000 HD
BRANCH  16  20
ATOM     20  C   UNL     1       7.636   4.555  18.051  0.00  0.00    +0.000 C 
BRANCH  20  21
ATOM     21  C   UNL     1       7.456   5.598  16.944  0.00  0.00    +0.000 C 
BRANCH  21  27
ATOM     22  C   UNL     1       4.784   6.839  16.001  0.00  0.00    +0.000 C 
ATOM     23  C   UNL     1       5.491   5.702  15.355  0.00  0.00    +0.000 A 
ATOM     24  N   UNL     1       5.129   5.124  14.231  0.00  0.00    +0.000 NA
ATOM     25  C   UNL     1       6.071   4.163  13.977  0.00  0.00    +0.000 A 
ATOM     26  C   UNL     1       7.011   4.135  14.971  0.00  0.00    +0.000 A 
ATOM     27  N   UNL     1       6.649   5.137  15.835  0.00  0.00    +0.000 N 
ENDBRANCH  21  27
ENDBRANCH  20  21
ENDBRANCH  16  20
ENDBRANCH   1  17
TORSDOF 5
ENDMDL
MODEL 4
REMARK VINA RESULT:      -7.4      2.558      4.388
REMARK  Name = 
REMARK  7 active torsions:
REMARK  status: ('A' for Active; 'I' for Inactive)
REMARK    1  A    between atoms: C_1  and  C_2
REMARK    2  A    between atoms: N_6  and  C_7
REMARK    3  A    between atoms: C_7  and  C_8
REMARK    4  A    between atoms: C_8  and  N_9
REMARK    5  A    between atoms: C_10  and  C_12
REMARK    6  A    between atoms: C_12  and  C_13
REMARK    7  A    between atoms: C_20  and  C_21
REMARK                            x       y       z     vdW  Elec       q    Type
REMARK                         _______ _______ _______ _____ _____    ______ ____
ROOT
ATOM      1  C   UNL     1       6.133   4.991  18.328  0.00  0.00    +0.000 C 
ATOM      2  C   UNL     1       7.028   4.294  17.221  0.00  0.00    +0.000 C 
ATOM      3  C   UNL     1       7.182   5.620  19.275  0.00  0.00    +0.000 C 
ATOM      4  O   UNL     1       8.024   6.561  18.518  0.00  0.00    +0.000 OA
ATOM      5  C   UNL     1       7.335   7.587  17.748  0.00  0.00    +0.000 C 
ATOM      6  C   UNL     1       6.080   7.059  17.208  0.00  0.00    +0.000 A 
ATOM      7  N   UNL     1       5.454   6.998  16.046  0.00  0.00    +0.000 NA
ATOM      8  N   UNL     1       4.183   6.450  16.330  0.00  0.00    +0.000 NA
ATOM      9  C   UNL     1       4.078   6.581  17.656  0.00  0.00    +0.000 A 
ATOM     10  N   UNL     1       5.363   6.221  18.016  0.00  0.00    +0.000 N 
ENDROOT
BRANCH   9  11
ATOM     11  C   UNL     1       3.294   7.833  18.211  0.00  0.00    +0.000 C 
ATOM     12  C   UNL     1       2.200   8.545  17.392  0.00  0.00    +0.000 C 
ATOM     13  C   UNL     1       1.428   9.380  18.440  0.00  0.00    +0.000 C 
ATOM     14  C   UNL     1       1.468   8.576  19.730  0.00  0.00    +0.000 C 
ATOM     15  C   UNL     1       2.481   7.464  19.485  0.00  0.00    +0.000 C 
ENDBRANCH   9  11
BRANCH   1  17
ATOM     16  N   UNL     1       4.510   3.252  17.789  0.00  0.00    +0.000 N 
ATOM     17  C   UNL     1       5.271   3.825  18.810  0.00  0.00    +0.000 C 
ATOM     18  O   UNL     1       5.364   3.340  19.932  0.00  0.00    +0.000 OA
ATOM     19  H   UNL     1       4.513   3.715  16.881  0.00  0.00    +0.000 HD
BRANCH  16  20
ATOM     20  C   UNL     1       4.029   1.870  17.778  0.00  0.00    +0.000 C 
BRANCH  20  21
ATOM     21  C   UNL     1       2.517   1.777  17.997  0.00  0.00    +0.000 C 
BRANCH  21  27
ATOM     22  C   UNL     1       1.204   4.561  17.689  0.00  0.00    +0.000 C 
ATOM     23  C   UNL     1       1.392   3.824  18.967  0.00  0.00    +0.000 A 
ATOM     24  N   UNL     1       0.938   4.211  20.138  0.00  0.00    +0.000 NA
ATOM     25  C   UNL     1       1.292   3.231  21.026  0.00  0.00    +0.000 A 
ATOM     26  C   UNL     1       1.994   2.240  20.395  0.00  0.00    +0.000 A 
ATOM     27  N   UNL     1       2.033   2.613  19.075  0.00  0.00    +0.000 N 
ENDBRANCH  21  27
ENDBRANCH  20  21
ENDBRANCH  16  20
ENDBRANCH   1  17
TORSDOF 5
ENDMDL
MODEL 5
REMARK VINA RESULT:      -7.4      2.232      6.797
REMARK  Name = 
REMARK  7 active torsions:
REMARK  status: ('A' for Active; 'I' for Inactive)
REMARK    1  A    between atoms: C_1  and  C_2
REMARK    2  A    between atoms: N_6  and  C_7
REMARK    3  A    between atoms: C_7  and  C_8
REMARK    4  A    between atoms: C_8  and  N_9
REMARK    5  A    between atoms: C_10  and  C_12
REMARK    6  A    between atoms: C_12  and  C_13
REMARK    7  A    between atoms: C_20  and  C_21
REMARK                            x       y       z     vdW  Elec       q    Type
REMARK                         _______ _______ _______ _____ _____    ______ ____
ROOT
ATOM      1  C   UNL     1       3.773   3.368  18.530  0.00  0.00    +0.000 C 
ATOM      2  C   UNL     1       3.967   2.126  19.495  0.00  0.00    +0.000 C 
ATOM      3  C   UNL     1       2.954   2.774  17.360  0.00  0.00    +0.000 C 
ATOM      4  O   UNL     1       1.690   2.223  17.877  0.00  0.00    +0.000 OA
ATOM      5  C   UNL     1       0.869   3.111  18.689  0.00  0.00    +0.000 C 
ATOM      6  C   UNL     1       1.720   3.994  19.492  0.00  0.00    +0.000 A 
ATOM      7  N   UNL     1       1.837   4.372  20.754  0.00  0.00    +0.000 NA
ATOM      8  N   UNL     1       2.820   5.387  20.753  0.00  0.00    +0.000 NA
ATOM      9  C   UNL     1       2.910   5.731  19.466  0.00  0.00    +0.000 A 
ATOM     10  N   UNL     1       2.852   4.473  18.895  0.00  0.00    +0.000 N 
ENDROOT
BRANCH   9  11
ATOM     11  C   UNL     1       2.088   6.988  18.982  0.00  0.00    +0.000 C 
ATOM     12  C   UNL     1       1.694   8.129  19.941  0.00  0.00    +0.000 C 
ATOM     13  C   UNL     1       1.321   9.300  19.001  0.00  0.00    +0.000 C 
ATOM     14  C   UNL     1       2.225   9.167  17.786  0.00  0.00    +0.000 C 
ATOM     15  C   UNL     1       2.878   7.795  17.912  0.00  0.00    +0.000 C 
ENDBRANCH   9  11
BRANCH   1  17
ATOM     16  N   UNL     1       5.634   3.660  16.979  0.00  0.00    +0.000 N 
ATOM     17  C   UNL     1       5.217   3.814  18.303  0.00  0.00    +0.000 C 
ATOM     18  O   UNL     1       5.881   4.398  19.152  0.00  0.00    +0.000 OA
ATOM     19  H   UNL     1       5.002   3.181  16.338  0.00  0.00    +0.000 HD
BRANCH  16  20
ATOM     20  C   UNL     1       6.691   4.443  16.338  0.00  0.00    +0.000 C 
BRANCH  20  21
ATOM     21  C   UNL     1       6.163   5.298  15.182  0.00  0.00    +0.000 C 
BRANCH  21  27
ATOM     22  C   UNL     1       8.372   5.741  13.061  0.00  0.00    +0.000 C 
ATOM     23  C   UNL     1       7.245   4.776  12.955  0.00  0.00    +0.000 A 
ATOM     24  N   UNL     1       7.083   3.905  11.985  0.00  0.00    +0.000 NA
ATOM     25  C   UNL     1       5.955   3.194  12.298  0.00  0.00    +0.000 A 
ATOM     26  C   UNL     1       5.405   3.652  13.464  0.00  0.00    +0.000 A 
ATOM     27  N   UNL     1       6.246   4.646  13.892  0.00  0.00    +0.000 N 
ENDBRANCH  21  27
ENDBRANCH  20  21
ENDBRANCH  16  20
ENDBRANCH   1  17
TORSDOF 5
ENDMDL
MODEL 6
REMARK VINA RESULT:      -7.1      2.153      6.406
REMARK  Name = 
REMARK  7 active torsions:
REMARK  status: ('A' for Active; 'I' for Inactive)
REMARK    1  A    between atoms: C_1  and  C_2
REMARK    2  A    between atoms: N_6  and  C_7
REMARK    3  A    between atoms: C_7  and  C_8
REMARK    4  A    between atoms: C_8  and  N_9
REMARK    5  A    between atoms: C_10  and  C_12
REMARK    6  A    between atoms: C_12  and  C_13
REMARK    7  A    between atoms: C_20  and  C_21
REMARK                            x       y       z     vdW  Elec       q    Type
REMARK                         _______ _______ _______ _____ _____    ______ ____
ROOT
ATOM      1  C   UNL     1       3.898   3.885  18.831  0.00  0.00    +0.000 C 
ATOM      2  C   UNL     1       3.976   2.473  19.547  0.00  0.00    +0.000 C 
ATOM      3  C   UNL     1       3.542   3.514  17.373  0.00  0.00    +0.000 C 
ATOM      4  O   UNL     1       2.272   2.769  17.351  0.00  0.00    +0.000 OA
ATOM      5  C   UNL     1       1.137   3.386  18.024  0.00  0.00    +0.000 C 
ATOM      6  C   UNL     1       1.588   4.122  19.207  0.00  0.00    +0.000 A 
ATOM      7  N   UNL     1       1.281   4.210  20.490  0.00  0.00    +0.000 NA
ATOM      8  N   UNL     1       2.072   5.268  20.994  0.00  0.00    +0.000 NA
ATOM      9  C   UNL     1       2.481   5.902  19.892  0.00  0.00    +0.000 A 
ATOM     10  N   UNL     1       2.766   4.806  19.098  0.00  0.00    +0.000 N 
ENDROOT
BRANCH   9  11
ATOM     11  C   UNL     1       1.666   7.173  19.430  0.00  0.00    +0.000 C 
ATOM     12  C   UNL     1       1.520   8.421  20.322  0.00  0.00    +0.000 C 
ATOM     13  C   UNL     1       1.061   9.530  19.346  0.00  0.00    +0.000 C 
ATOM     14  C   UNL     1       1.725   9.219  18.014  0.00  0.00    +0.000 C 
ATOM     15  C   UNL     1       2.304   7.817  18.165  0.00  0.00    +0.000 C 
ENDBRANCH   9  11
BRANCH   1  17
ATOM     16  N   UNL     1       6.313   3.826  18.497  0.00  0.00    +0.000 N 
ATOM     17  C   UNL     1       5.268   4.475  19.157  0.00  0.00    +0.000 C 
ATOM     18  O   UNL     1       5.419   5.511  19.796  0.00  0.00    +0.000 OA
ATOM     19  H   UNL     1       6.087   2.983  17.970  0.00  0.00    +0.000 HD
BRANCH  16  20
ATOM     20  C   UNL     1       7.603   4.434  18.168  0.00  0.00    +0.000 C 
BRANCH  20  21
ATOM     21  C   UNL     1       7.754   4.708  16.670  0.00  0.00    +0.000 C 
BRANCH  21  27
ATOM     22  C   UNL     1       6.051   4.092  14.161  0.00  0.00    +0.000 C 
ATOM     23  C   UNL     1       5.895   5.274  15.049  0.00  0.00    +0.000 A 
ATOM     24  N   UNL     1       4.946   6.178  14.949  0.00  0.00    +0.000 NA
ATOM     25  C   UNL     1       5.147   7.057  15.980  0.00  0.00    +0.000 A 
ATOM     26  C   UNL     1       6.250   6.701  16.708  0.00  0.00    +0.000 A 
ATOM     27  N   UNL     1       6.709   5.548  16.124  0.00  0.00    +0.000 N 
ENDBRANCH  21  27
ENDBRANCH  20  21
ENDBRANCH  16  20
ENDBRANCH   1  17
TORSDOF 5
ENDMDL
MODEL 7
REMARK VINA RESULT:      -6.9      3.652      5.865
REMARK  Name = 
REMARK  7 active torsions:
REMARK  status: ('A' for Active; 'I' for Inactive)
REMARK    1  A    between atoms: C_1  and  C_2
REMARK    2  A    between atoms: N_6  and  C_7
REMARK    3  A    between atoms: C_7  and  C_8
REMARK    4  A    between atoms: C_8  and  N_9
REMARK    5  A    between atoms: C_10  and  C_12
REMARK    6  A    between atoms: C_12  and  C_13
REMARK    7  A    between atoms: C_20  and  C_21
REMARK                            x       y       z     vdW  Elec       q    Type
REMARK                         _______ _______ _______ _____ _____    ______ ____
ROOT
ATOM      1  C   UNL     1       2.367   4.656  19.882  0.00  0.00    +0.000 C 
ATOM      2  C   UNL     1       0.874   4.211  20.175  0.00  0.00    +0.000 C 
ATOM      3  C   UNL     1       3.150   4.038  21.063  0.00  0.00    +0.000 C 
ATOM      4  O   UNL     1       2.959   2.578  21.070  0.00  0.00    +0.000 OA
ATOM      5  C   UNL     1       3.246   1.872  19.828  0.00  0.00    +0.000 C 
ATOM      6  C   UNL     1       2.878   2.701  18.677  0.00  0.00    +0.000 A 
ATOM      7  N   UNL     1       2.178   2.585  17.562  0.00  0.00    +0.000 NA
ATOM      8  N   UNL     1       2.398   3.788  16.853  0.00  0.00    +0.000 NA
ATOM      9  C   UNL     1       3.467   4.314  17.458  0.00  0.00    +0.000 A 
ATOM     10  N   UNL     1       3.136   4.040  18.772  0.00  0.00    +0.000 N 
ENDROOT
BRANCH   9  11
ATOM     11  C   UNL     1       4.880   4.059  16.803  0.00  0.00    +0.000 C 
ATOM     12  C   UNL     1       5.323   4.766  15.508  0.00  0.00    +0.000 C 
ATOM     13  C   UNL     1       6.859   4.582  15.484  0.00  0.00    +0.000 C 
ATOM     14  C   UNL     1       7.307   4.597  16.937  0.00  0.00    +0.000 C 
ATOM     15  C   UNL     1       6.027   4.501  17.759  0.00  0.00    +0.000 C 
ENDBRANCH   9  11
BRANCH   1  17
ATOM     16  N   UNL     1       1.482   6.729  20.815  0.00  0.00    +0.000 N 
ATOM     17  C   UNL     1       2.223   6.172  19.770  0.00  0.00    +0.000 C 
ATOM     18  O   UNL     1       2.832   6.846  18.946  0.00  0.00    +0.000 OA
ATOM     19  H   UNL     1       1.030   6.088  21.466  0.00  0.00    +0.000 HD
BRANCH  16  20
ATOM     20  C   UNL     1       1.607   8.108  21.289  0.00  0.00    +0.000 C 
BRANCH  20  21
ATOM     21  C   UNL     1       0.423   8.980  20.863  0.00  0.00    +0.000 C 
BRANCH  21  27
ATOM     22  C   UNL     1       1.134   9.487  17.894  0.00  0.00    +0.000 C 
ATOM     23  C   UNL     1       1.076  10.519  18.964  0.00  0.00    +0.000 A 
ATOM     24  N   UNL     1       1.225  11.811  18.778  0.00  0.00    +0.000 NA
ATOM     25  C   UNL     1       1.056  12.394  20.006  0.00  0.00    +0.000 A 
ATOM     26  C   UNL     1       0.824  11.443  20.963  0.00  0.00    +0.000 A 
ATOM     27  N   UNL     1       0.814  10.249  20.287  0.00  0.00    +0.000 N 
ENDBRANCH  21  27
ENDBRANCH  20  21
ENDBRANCH  16  20
ENDBRANCH   1  17
TORSDOF 5
ENDMDL
MODEL 8
REMARK VINA RESULT:      -6.9      3.824      5.809
REMARK  Name = 
REMARK  7 active torsions:
REMARK  status: ('A' for Active; 'I' for Inactive)
REMARK    1  A    between atoms: C_1  and  C_2
REMARK    2  A    between atoms: N_6  and  C_7
REMARK    3  A    between atoms: C_7  and  C_8
REMARK    4  A    between atoms: C_8  and  N_9
REMARK    5  A    between atoms: C_10  and  C_12
REMARK    6  A    between atoms: C_12  and  C_13
REMARK    7  A    between atoms: C_20  and  C_21
REMARK                            x       y       z     vdW  Elec       q    Type
REMARK                         _______ _______ _______ _____ _____    ______ ____
ROOT
ATOM      1  C   UNL     1       2.386   4.591  19.822  0.00  0.00    +0.000 C 
ATOM      2  C   UNL     1       0.918   4.088  20.144  0.00  0.00    +0.000 C 
ATOM      3  C   UNL     1       3.211   4.033  21.005  0.00  0.00    +0.000 C 
ATOM      4  O   UNL     1       3.084   2.567  21.044  0.00  0.00    +0.000 OA
ATOM      5  C   UNL     1       3.386   1.848  19.813  0.00  0.00    +0.000 C 
ATOM      6  C   UNL     1       2.968   2.636  18.651  0.00  0.00    +0.000 A 
ATOM      7  N   UNL     1       2.259   2.467  17.547  0.00  0.00    +0.000 NA
ATOM      8  N   UNL     1       2.418   3.663  16.811  0.00  0.00    +0.000 NA
ATOM      9  C   UNL     1       3.470   4.247  17.391  0.00  0.00    +0.000 A 
ATOM     10  N   UNL     1       3.167   3.987  18.715  0.00  0.00    +0.000 N 
ENDROOT
BRANCH   9  11
ATOM     11  C   UNL     1       4.885   4.041  16.723  0.00  0.00    +0.000 C 
ATOM     12  C   UNL     1       5.301   4.784  15.439  0.00  0.00    +0.000 C 
ATOM     13  C   UNL     1       6.841   4.638  15.402  0.00  0.00    +0.000 C 
ATOM     14  C   UNL     1       7.298   4.637  16.852  0.00  0.00    +0.000 C 
ATOM     15  C   UNL     1       6.026   4.493  17.679  0.00  0.00    +0.000 C 
ENDBRANCH   9  11
BRANCH   1  17
ATOM     16  N   UNL     1       1.467   6.652  20.751  0.00  0.00    +0.000 N 
ATOM     17  C   UNL     1       2.174   6.097  19.681  0.00  0.00    +0.000 C 
ATOM     18  O   UNL     1       2.711   6.773  18.810  0.00  0.00    +0.000 OA
ATOM     19  H   UNL     1       1.076   6.011  21.440  0.00  0.00    +0.000 HD
BRANCH  16  20
ATOM     20  C   UNL     1       1.561   8.046  21.183  0.00  0.00    +0.000 C 
BRANCH  20  21
ATOM     21  C   UNL     1       0.191   8.650  21.505  0.00  0.00    +0.000 C 
BRANCH  21  27
ATOM     22  C   UNL     1      -1.012  11.220  22.738  0.00  0.00    +0.000 C 
ATOM     23  C   UNL     1      -0.557  11.060  21.331  0.00  0.00    +0.000 A 
ATOM     24  N   UNL     1      -0.512  12.021  20.435  0.00  0.00    +0.000 NA
ATOM     25  C   UNL     1       0.003  11.458  19.299  0.00  0.00    +0.000 A 
ATOM     26  C   UNL     1       0.256  10.127  19.492  0.00  0.00    +0.000 A 
ATOM     27  N   UNL     1      -0.081   9.884  20.799  0.00  0.00    +0.000 N 
ENDBRANCH  21  27
ENDBRANCH  20  21
ENDBRANCH  16  20
ENDBRANCH   1  17
TORSDOF 5
ENDMDL
MODEL 9
REMARK VINA RESULT:      -6.9      3.896      5.931
REMARK  Name = 
REMARK  7 active torsions:
REMARK  status: ('A' for Active; 'I' for Inactive)
REMARK    1  A    between atoms: C_1  and  C_2
REMARK    2  A    between atoms: N_6  and  C_7
REMARK    3  A    between atoms: C_7  and  C_8
REMARK    4  A    between atoms: C_8  and  N_9
REMARK    5  A    between atoms: C_10  and  C_12
REMARK    6  A    between atoms: C_12  and  C_13
REMARK    7  A    between atoms: C_20  and  C_21
REMARK                            x       y       z     vdW  Elec       q    Type
REMARK                         _______ _______ _______ _____ _____    ______ ____
ROOT
ATOM      1  C   UNL     1       2.373   4.696  19.883  0.00  0.00    +0.000 C 
ATOM      2  C   UNL     1       0.880   4.265  20.196  0.00  0.00    +0.000 C 
ATOM      3  C   UNL     1       3.164   4.084  21.063  0.00  0.00    +0.000 C 
ATOM      4  O   UNL     1       2.962   2.626  21.085  0.00  0.00    +0.000 OA
ATOM      5  C   UNL     1       3.231   1.906  19.848  0.00  0.00    +0.000 C 
ATOM      6  C   UNL     1       2.857   2.726  18.693  0.00  0.00    +0.000 A 
ATOM      7  N   UNL     1       2.145   2.605  17.586  0.00  0.00    +0.000 NA
ATOM      8  N   UNL     1       2.367   3.799  16.863  0.00  0.00    +0.000 NA
ATOM      9  C   UNL     1       3.445   4.322  17.452  0.00  0.00    +0.000 A 
ATOM     10  N   UNL     1       3.126   4.064  18.772  0.00  0.00    +0.000 N 
ENDROOT
BRANCH   9  11
ATOM     11  C   UNL     1       4.851   4.051  16.786  0.00  0.00    +0.000 C 
ATOM     12  C   UNL     1       5.269   4.709  15.457  0.00  0.00    +0.000 C 
ATOM     13  C   UNL     1       6.805   4.533  15.416  0.00  0.00    +0.000 C 
ATOM     14  C   UNL     1       7.275   4.608  16.860  0.00  0.00    +0.000 C 
ATOM     15  C   UNL     1       6.008   4.536  17.705  0.00  0.00    +0.000 C 
ENDBRANCH   9  11
BRANCH   1  17
ATOM     16  N   UNL     1       1.498   6.783  20.795  0.00  0.00    +0.000 N 
ATOM     17  C   UNL     1       2.239   6.213  19.758  0.00  0.00    +0.000 C 
ATOM     18  O   UNL     1       2.856   6.875  18.931  0.00  0.00    +0.000 OA
ATOM     19  H   UNL     1       1.039   6.151  21.450  0.00  0.00    +0.000 HD
BRANCH  16  20
ATOM     20  C   UNL     1       1.630   8.165  21.258  0.00  0.00    +0.000 C 
BRANCH  20  21
ATOM     21  C   UNL     1       0.690   9.120  20.517  0.00  0.00    +0.000 C 
BRANCH  21  27
ATOM     22  C   UNL     1      -0.792  11.693  19.647  0.00  0.00    +0.000 C 
ATOM     23  C   UNL     1      -0.744  11.140  21.027  0.00  0.00    +0.000 A 
ATOM     24  N   UNL     1      -1.408  11.616  22.057  0.00  0.00    +0.000 NA
ATOM     25  C   UNL     1      -1.114  10.793  23.112  0.00  0.00    +0.000 A 
ATOM     26  C   UNL     1      -0.240   9.812  22.729  0.00  0.00    +0.000 A 
ATOM     27  N   UNL     1      -0.027  10.024  21.391  0.00  0.00    +0.000 N 
ENDBRANCH  21  27
ENDBRANCH  20  21
ENDBRANCH  16  20
ENDBRANCH   1  17
TORSDOF 5
ENDMDL
