MODEL 1
REMARK VINA RESULT:      -6.9      0.000      0.000
REMARK  Name = 
REMARK  1 active torsions:
REMARK  status: ('A' for Active; 'I' for Inactive)
REMARK    1  A    between atoms: N_5  and  C_6
REMARK                            x       y       z     vdW  Elec       q    Type
REMARK                         _______ _______ _______ _____ _____    ______ ____
ROOT
ATOM      1  S   UNL     1       1.381   2.667  21.272  0.00  0.00    +0.000 S 
ATOM      2  C   UNL     1       2.591   3.570  20.560  0.00  0.00    +0.000 A 
ATOM      3  S   UNL     1       4.118   2.886  20.046  0.00  0.00    +0.000 S 
ATOM      4  C   UNL     1       4.776   4.153  19.004  0.00  0.00    +0.000 A 
ATOM      5  N   UNL     1       5.873   3.709  18.302  0.00  0.00    +0.000 N 
ATOM      6  N   UNL     1       4.338   5.374  18.904  0.00  0.00    +0.000 NA
ATOM      7  C   UNL     1       3.262   5.723  19.621  0.00  0.00    +0.000 A 
ATOM      8  N   UNL     1       2.812   7.010  19.675  0.00  0.00    +0.000 N 
ATOM      9  N   UNL     1       1.694   7.157  20.410  0.00  0.00    +0.000 NA
ATOM     10  C   UNL     1       1.440   5.916  20.837  0.00  0.00    +0.000 A 
ATOM     11  C   UNL     1       2.400   4.978  20.386  0.00  0.00    +0.000 A 
ATOM     12  H   UNL     1       6.137   2.750  18.488  0.00  0.00    +0.000 HD
ATOM     13  H   UNL     1       3.226   7.822  19.232  0.00  0.00    +0.000 HD
ENDROOT
BRANCH   5  14
ATOM     14  C   UNL     1       6.163   4.091  16.974  0.00  0.00    +0.000 A 
ATOM     15  C   UNL     1       7.329   4.826  16.722  0.00  0.00    +0.000 A 
ATOM     16  C   UNL     1       7.678   5.186  15.416  0.00  0.00    +0.000 A 
ATOM     17  C   UNL     1       6.874   4.791  14.350  0.00  0.00    +0.000 A 
ATOM     18 CL   UNL     1       7.324   5.197  12.741  0.00  0.00    +0.000 Cl
ATOM     19  C   UNL     1       5.714   4.059  14.581  0.00  0.00    +0.000 A 
ATOM     20  C   UNL     1       5.358   3.714  15.889  0.00  0.00    +0.000 A 
ENDBRANCH   5  14
TORSDOF 1
ENDMDL
MODEL 2
REMARK VINA RESULT:      -6.7      4.610      6.391
REMARK  Name = 
REMARK  1 active torsions:
REMARK  status: ('A' for Active; 'I' for Inactive)
REMARK    1  A    between atoms: N_5  and  C_6
REMARK                            x       y       z     vdW  Elec       q    Type
REMARK                         _______ _______ _______ _____ _____    ______ ____
ROOT
ATOM      1  S   UNL     1      -1.268  11.244  22.822  0.00  0.00    +0.000 S 
ATOM      2  C   UNL     1      -0.304  10.491  21.687  0.00  0.00    +0.000 A 
ATOM      3  S   UNL     1       1.012   9.417  22.111  0.00  0.00    +0.000 S 
ATOM      4  C   UNL     1       1.356   8.605  20.581  0.00  0.00    +0.000 A 
ATOM      5  N   UNL     1       2.209   7.539  20.755  0.00  0.00    +0.000 N 
ATOM      6  N   UNL     1       0.914   8.952  19.407  0.00  0.00    +0.000 NA
ATOM      7  C   UNL     1       0.085  10.001  19.326  0.00  0.00    +0.000 A 
ATOM      8  N   UNL     1      -0.325  10.510  18.128  0.00  0.00    +0.000 N 
ATOM      9  N   UNL     1      -1.189  11.535  18.249  0.00  0.00    +0.000 NA
ATOM     10  C   UNL     1      -1.318  11.675  19.572  0.00  0.00    +0.000 A 
ATOM     11  C   UNL     1      -0.529  10.750  20.297  0.00  0.00    +0.000 A 
ATOM     12  H   UNL     1       2.510   7.388  21.710  0.00  0.00    +0.000 HD
ATOM     13  H   UNL     1      -0.048  10.200  17.204  0.00  0.00    +0.000 HD
ENDROOT
BRANCH   5  14
ATOM     14  C   UNL     1       2.114   6.331  20.032  0.00  0.00    +0.000 A 
ATOM     15  C   UNL     1       2.714   6.251  18.768  0.00  0.00    +0.000 A 
ATOM     16  C   UNL     1       2.684   5.060  18.036  0.00  0.00    +0.000 A 
ATOM     17  C   UNL     1       2.073   3.930  18.576  0.00  0.00    +0.000 A 
ATOM     18 CL   UNL     1       2.071   2.454  17.695  0.00  0.00    +0.000 Cl
ATOM     19  C   UNL     1       1.474   3.990  19.830  0.00  0.00    +0.000 A 
ATOM     20  C   UNL     1       1.491   5.187  20.552  0.00  0.00    +0.000 A 
ENDBRANCH   5  14
TORSDOF 1
ENDMDL
MODEL 3
REMARK VINA RESULT:      -6.5      4.657      6.497
REMARK  Name = 
REMARK  1 active torsions:
REMARK  status: ('A' for Active; 'I' for Inactive)
REMARK    1  A    between atoms: N_5  and  C_6
REMARK                            x       y       z     vdW  Elec       q    Type
REMARK                         _______ _______ _______ _____ _____    ______ ____
ROOT
ATOM      1  S   UNL     1      -1.284  11.265  22.788  0.00  0.00    +0.000 S 
ATOM      2  C   UNL     1      -0.326  10.504  21.653  0.00  0.00    +0.000 A 
ATOM      3  S   UNL     1       1.028   9.480  22.077  0.00  0.00    +0.000 S 
ATOM      4  C   UNL     1       1.358   8.631  20.563  0.00  0.00    +0.000 A 
ATOM      5  N   UNL     1       2.244   7.594  20.749  0.00  0.00    +0.000 N 
ATOM      6  N   UNL     1       0.881   8.931  19.391  0.00  0.00    +0.000 NA
ATOM      7  C   UNL     1       0.022   9.955  19.299  0.00  0.00    +0.000 A 
ATOM      8  N   UNL     1      -0.429  10.417  18.096  0.00  0.00    +0.000 N 
ATOM      9  N   UNL     1      -1.318  11.422  18.208  0.00  0.00    +0.000 NA
ATOM     10  C   UNL     1      -1.421  11.598  19.529  0.00  0.00    +0.000 A 
ATOM     11  C   UNL     1      -0.590  10.716  20.261  0.00  0.00    +0.000 A 
ATOM     12  H   UNL     1       2.570   7.480  21.701  0.00  0.00    +0.000 HD
ATOM     13  H   UNL     1      -0.165  10.087  17.175  0.00  0.00    +0.000 HD
ENDROOT
BRANCH   5  14
ATOM     14  C   UNL     1       2.165   6.362  20.064  0.00  0.00    +0.000 A 
ATOM     15  C   UNL     1       1.546   5.275  20.695  0.00  0.00    +0.000 A 
ATOM     16  C   UNL     1       1.406   4.051  20.036  0.00  0.00    +0.000 A 
ATOM     17  C   UNL     1       1.864   3.911  18.728  0.00  0.00    +0.000 A 
ATOM     18 CL   UNL     1       1.655   2.418  17.902  0.00  0.00    +0.000 Cl
ATOM     19  C   UNL     1       2.480   4.979  18.084  0.00  0.00    +0.000 A 
ATOM     20  C   UNL     1       2.633   6.198  18.751  0.00  0.00    +0.000 A 
ENDBRANCH   5  14
TORSDOF 1
ENDMDL
MODEL 4
REMARK VINA RESULT:      -6.5      0.149      1.146
REMARK  Name = 
REMARK  1 active torsions:
REMARK  status: ('A' for Active; 'I' for Inactive)
REMARK    1  A    between atoms: N_5  and  C_6
REMARK                            x       y       z     vdW  Elec       q    Type
REMARK                         _______ _______ _______ _____ _____    ______ ____
ROOT
ATOM      1  S   UNL     1       1.378   2.749  21.357  0.00  0.00    +0.000 S 
ATOM      2  C   UNL     1       2.600   3.633  20.644  0.00  0.00    +0.000 A 
ATOM      3  S   UNL     1       4.146   2.942  20.200  0.00  0.00    +0.000 S 
ATOM      4  C   UNL     1       4.823   4.171  19.126  0.00  0.00    +0.000 A 
ATOM      5  N   UNL     1       5.944   3.709  18.474  0.00  0.00    +0.000 N 
ATOM      6  N   UNL     1       4.380   5.384  18.964  0.00  0.00    +0.000 NA
ATOM      7  C   UNL     1       3.281   5.752  19.636  0.00  0.00    +0.000 A 
ATOM      8  N   UNL     1       2.819   7.036  19.625  0.00  0.00    +0.000 N 
ATOM      9  N   UNL     1       1.680   7.203  20.322  0.00  0.00    +0.000 NA
ATOM     10  C   UNL     1       1.424   5.977  20.792  0.00  0.00    +0.000 A 
ATOM     11  C   UNL     1       2.404   5.031  20.406  0.00  0.00    +0.000 A 
ATOM     12  H   UNL     1       6.210   2.761  18.706  0.00  0.00    +0.000 HD
ATOM     13  H   UNL     1       3.240   7.833  19.162  0.00  0.00    +0.000 HD
ENDROOT
BRANCH   5  14
ATOM     14  C   UNL     1       6.268   4.040  17.140  0.00  0.00    +0.000 A 
ATOM     15  C   UNL     1       5.405   3.632  16.114  0.00  0.00    +0.000 A 
ATOM     16  C   UNL     1       5.664   3.976  14.784  0.00  0.00    +0.000 A 
ATOM     17  C   UNL     1       6.776   4.753  14.473  0.00  0.00    +0.000 A 
ATOM     18 CL   UNL     1       7.073   5.211  12.842  0.00  0.00    +0.000 Cl
ATOM     19  C   UNL     1       7.643   5.169  15.478  0.00  0.00    +0.000 A 
ATOM     20  C   UNL     1       7.392   4.810  16.806  0.00  0.00    +0.000 A 
ENDBRANCH   5  14
TORSDOF 1
ENDMDL
MODEL 5
REMARK VINA RESULT:      -6.3      4.492      6.883
REMARK  Name = 
REMARK  1 active torsions:
REMARK  status: ('A' for Active; 'I' for Inactive)
REMARK    1  A    between atoms: N_5  and  C_6
REMARK                            x       y       z     vdW  Elec       q    Type
REMARK                         _______ _______ _______ _____ _____    ______ ____
ROOT
ATOM      1  S   UNL     1       4.454   3.258  17.283  0.00  0.00    +0.000 S 
ATOM      2  C   UNL     1       3.498   4.031  18.411  0.00  0.00    +0.000 A 
ATOM      3  S   UNL     1       3.978   5.507  19.222  0.00  0.00    +0.000 S 
ATOM      4  C   UNL     1       2.458   6.076  19.919  0.00  0.00    +0.000 A 
ATOM      5  N   UNL     1       2.573   7.359  20.402  0.00  0.00    +0.000 N 
ATOM      6  N   UNL     1       1.353   5.396  20.020  0.00  0.00    +0.000 NA
ATOM      7  C   UNL     1       1.326   4.153  19.521  0.00  0.00    +0.000 A 
ATOM      8  N   UNL     1       0.254   3.325  19.695  0.00  0.00    +0.000 N 
ATOM      9  N   UNL     1       0.394   2.133  19.085  0.00  0.00    +0.000 NA
ATOM     10  C   UNL     1       1.600   2.218  18.514  0.00  0.00    +0.000 A 
ATOM     11  C   UNL     1       2.236   3.456  18.769  0.00  0.00    +0.000 A 
ATOM     12  H   UNL     1       3.491   7.772  20.294  0.00  0.00    +0.000 HD
ATOM     13  H   UNL     1      -0.592   3.520  20.217  0.00  0.00    +0.000 HD
ENDROOT
BRANCH   5  14
ATOM     14  C   UNL     1       1.545   8.323  20.324  0.00  0.00    +0.000 A 
ATOM     15  C   UNL     1       0.795   8.606  21.473  0.00  0.00    +0.000 A 
ATOM     16  C   UNL     1      -0.203   9.586  21.451  0.00  0.00    +0.000 A 
ATOM     17  C   UNL     1      -0.440  10.308  20.285  0.00  0.00    +0.000 A 
ATOM     18 CL   UNL     1      -1.638  11.542  20.269  0.00  0.00    +0.000 Cl
ATOM     19  C   UNL     1       0.295  10.043  19.135  0.00  0.00    +0.000 A 
ATOM     20  C   UNL     1       1.281   9.051  19.153  0.00  0.00    +0.000 A 
ENDBRANCH   5  14
TORSDOF 1
ENDMDL
MODEL 6
REMARK VINA RESULT:      -6.2      6.782      8.697
REMARK  Name = 
REMARK  1 active torsions:
REMARK  status: ('A' for Active; 'I' for Inactive)
REMARK    1  A    between atoms: N_5  and  C_6
REMARK                            x       y       z     vdW  Elec       q    Type
REMARK                         _______ _______ _______ _____ _____    ______ ____
ROOT
ATOM      1  S   UNL     1      -5.028  12.370  19.549  0.00  0.00    +0.000 S 
ATOM      2  C   UNL     1      -3.566  11.915  18.885  0.00  0.00    +0.000 A 
ATOM      3  S   UNL     1      -2.036  12.126  19.708  0.00  0.00    +0.000 S 
ATOM      4  C   UNL     1      -0.949  11.098  18.770  0.00  0.00    +0.000 A 
ATOM      5  N   UNL     1       0.263  10.936  19.401  0.00  0.00    +0.000 N 
ATOM      6  N   UNL     1      -1.200  10.567  17.609  0.00  0.00    +0.000 NA
ATOM      7  C   UNL     1      -2.407  10.772  17.065  0.00  0.00    +0.000 A 
ATOM      8  N   UNL     1      -2.712  10.361  15.800  0.00  0.00    +0.000 N 
ATOM      9  N   UNL     1      -3.985  10.617  15.446  0.00  0.00    +0.000 NA
ATOM     10  C   UNL     1      -4.492  11.217  16.528  0.00  0.00    +0.000 A 
ATOM     11  C   UNL     1      -3.541  11.355  17.568  0.00  0.00    +0.000 A 
ATOM     12  H   UNL     1       0.351  11.424  20.284  0.00  0.00    +0.000 HD
ATOM     13  H   UNL     1      -2.094   9.904  15.139  0.00  0.00    +0.000 HD
ENDROOT
BRANCH   5  14
ATOM     14  C   UNL     1       1.003   9.734  19.384  0.00  0.00    +0.000 A 
ATOM     15  C   UNL     1       0.989   8.915  20.521  0.00  0.00    +0.000 A 
ATOM     16  C   UNL     1       1.670   7.694  20.532  0.00  0.00    +0.000 A 
ATOM     17  C   UNL     1       2.353   7.272  19.394  0.00  0.00    +0.000 A 
ATOM     18 CL   UNL     1       3.157   5.752  19.391  0.00  0.00    +0.000 Cl
ATOM     19  C   UNL     1       2.377   8.070  18.255  0.00  0.00    +0.000 A 
ATOM     20  C   UNL     1       1.708   9.298  18.252  0.00  0.00    +0.000 A 
ENDBRANCH   5  14
TORSDOF 1
ENDMDL
MODEL 7
REMARK VINA RESULT:      -6.1      4.488      6.885
REMARK  Name = 
REMARK  1 active torsions:
REMARK  status: ('A' for Active; 'I' for Inactive)
REMARK    1  A    between atoms: N_5  and  C_6
REMARK                            x       y       z     vdW  Elec       q    Type
REMARK                         _______ _______ _______ _____ _____    ______ ____
ROOT
ATOM      1  S   UNL     1       4.290   3.366  17.046  0.00  0.00    +0.000 S 
ATOM      2  C   UNL     1       3.420   4.121  18.253  0.00  0.00    +0.000 A 
ATOM      3  S   UNL     1       3.958   5.584  19.048  0.00  0.00    +0.000 S 
ATOM      4  C   UNL     1       2.493   6.140  19.864  0.00  0.00    +0.000 A 
ATOM      5  N   UNL     1       2.643   7.416  20.357  0.00  0.00    +0.000 N 
ATOM      6  N   UNL     1       1.399   5.457  20.037  0.00  0.00    +0.000 NA
ATOM      7  C   UNL     1       1.335   4.222  19.523  0.00  0.00    +0.000 A 
ATOM      8  N   UNL     1       0.280   3.390  19.762  0.00  0.00    +0.000 N 
ATOM      9  N   UNL     1       0.374   2.208  19.126  0.00  0.00    +0.000 NA
ATOM     10  C   UNL     1       1.535   2.302  18.469  0.00  0.00    +0.000 A 
ATOM     11  C   UNL     1       2.188   3.538  18.695  0.00  0.00    +0.000 A 
ATOM     12  H   UNL     1       3.550   7.833  20.188  0.00  0.00    +0.000 HD
ATOM     13  H   UNL     1      -0.526   3.576  20.348  0.00  0.00    +0.000 HD
ENDROOT
BRANCH   5  14
ATOM     14  C   UNL     1       1.611   8.380  20.369  0.00  0.00    +0.000 A 
ATOM     15  C   UNL     1       1.370   9.127  19.208  0.00  0.00    +0.000 A 
ATOM     16  C   UNL     1       0.330  10.060  19.162  0.00  0.00    +0.000 A 
ATOM     17  C   UNL     1      -0.495  10.234  20.271  0.00  0.00    +0.000 A 
ATOM     18 CL   UNL     1      -1.800  11.351  20.200  0.00  0.00    +0.000 Cl
ATOM     19  C   UNL     1      -0.273   9.501  21.431  0.00  0.00    +0.000 A 
ATOM     20  C   UNL     1       0.779   8.580  21.481  0.00  0.00    +0.000 A 
ENDBRANCH   5  14
TORSDOF 1
ENDMDL
MODEL 8
REMARK VINA RESULT:      -6.0      4.532      6.760
REMARK  Name = 
REMARK  1 active torsions:
REMARK  status: ('A' for Active; 'I' for Inactive)
REMARK    1  A    between atoms: N_5  and  C_6
REMARK                            x       y       z     vdW  Elec       q    Type
REMARK                         _______ _______ _______ _____ _____    ______ ____
ROOT
ATOM      1  S   UNL     1       5.116   3.941  16.018  0.00  0.00    +0.000 S 
ATOM      2  C   UNL     1       4.134   4.609  17.191  0.00  0.00    +0.000 A 
ATOM      3  S   UNL     1       4.433   6.178  17.908  0.00  0.00    +0.000 S 
ATOM      4  C   UNL     1       2.897   6.537  18.703  0.00  0.00    +0.000 A 
ATOM      5  N   UNL     1       2.843   7.844  19.130  0.00  0.00    +0.000 N 
ATOM      6  N   UNL     1       1.924   5.700  18.915  0.00  0.00    +0.000 NA
ATOM      7  C   UNL     1       2.057   4.445  18.464  0.00  0.00    +0.000 A 
ATOM      8  N   UNL     1       1.145   3.471  18.751  0.00  0.00    +0.000 N 
ATOM      9  N   UNL     1       1.426   2.288  18.174  0.00  0.00    +0.000 NA
ATOM     10  C   UNL     1       2.559   2.530  17.507  0.00  0.00    +0.000 A 
ATOM     11  C   UNL     1       3.009   3.863  17.667  0.00  0.00    +0.000 A 
ATOM     12  H   UNL     1       3.674   8.389  18.935  0.00  0.00    +0.000 HD
ATOM     13  H   UNL     1       0.319   3.558  19.331  0.00  0.00    +0.000 HD
ENDROOT
BRANCH   5  14
ATOM     14  C   UNL     1       1.673   8.633  19.099  0.00  0.00    +0.000 A 
ATOM     15  C   UNL     1       1.028   8.933  20.307  0.00  0.00    +0.000 A 
ATOM     16  C   UNL     1      -0.108   9.748  20.327  0.00  0.00    +0.000 A 
ATOM     17  C   UNL     1      -0.593  10.290  19.139  0.00  0.00    +0.000 A 
ATOM     18 CL   UNL     1      -1.965  11.326  19.168  0.00  0.00    +0.000 Cl
ATOM     19  C   UNL     1       0.034  10.005  17.931  0.00  0.00    +0.000 A 
ATOM     20  C   UNL     1       1.161   9.176  17.911  0.00  0.00    +0.000 A 
ENDBRANCH   5  14
TORSDOF 1
ENDMDL
MODEL 9
REMARK VINA RESULT:      -6.0      4.873      7.015
REMARK  Name = 
REMARK  1 active torsions:
REMARK  status: ('A' for Active; 'I' for Inactive)
REMARK    1  A    between atoms: N_5  and  C_6
REMARK                            x       y       z     vdW  Elec       q    Type
REMARK                         _______ _______ _______ _____ _____    ______ ____
ROOT
ATOM      1  S   UNL     1       4.133   4.007  16.967  0.00  0.00    +0.000 S 
ATOM      2  C   UNL     1       3.587   5.254  17.933  0.00  0.00    +0.000 A 
ATOM      3  S   UNL     1       3.681   6.938  17.465  0.00  0.00    +0.000 S 
ATOM      4  C   UNL     1       2.593   7.719  18.617  0.00  0.00    +0.000 A 
ATOM      5  N   UNL     1       2.339   9.025  18.266  0.00  0.00    +0.000 N 
ATOM      6  N   UNL     1       2.096   7.184  19.694  0.00  0.00    +0.000 NA
ATOM      7  C   UNL     1       2.392   5.905  19.961  0.00  0.00    +0.000 A 
ATOM      8  N   UNL     1       2.020   5.303  21.128  0.00  0.00    +0.000 N 
ATOM      9  N   UNL     1       2.368   4.005  21.196  0.00  0.00    +0.000 NA
ATOM     10  C   UNL     1       2.987   3.790  20.030  0.00  0.00    +0.000 A 
ATOM     11  C   UNL     1       3.045   4.951  19.223  0.00  0.00    +0.000 A 
ATOM     12  H   UNL     1       2.808   9.337  17.424  0.00  0.00    +0.000 HD
ATOM     13  H   UNL     1       1.530   5.728  21.907  0.00  0.00    +0.000 HD
ENDROOT
BRANCH   5  14
ATOM     14  C   UNL     1       1.089   9.657  18.442  0.00  0.00    +0.000 A 
ATOM     15  C   UNL     1       0.964  10.644  19.429  0.00  0.00    +0.000 A 
ATOM     16  C   UNL     1      -0.243  11.328  19.607  0.00  0.00    +0.000 A 
ATOM     17  C   UNL     1      -1.327  11.045  18.781  0.00  0.00    +0.000 A 
ATOM     18 CL   UNL     1      -2.799  11.914  18.972  0.00  0.00    +0.000 Cl
ATOM     19  C   UNL     1      -1.222  10.070  17.795  0.00  0.00    +0.000 A 
ATOM     20  C   UNL     1      -0.019   9.377  17.629  0.00  0.00    +0.000 A 
ENDBRANCH   5  14
TORSDOF 1
ENDMDL
