MODEL 1
REMARK VINA RESULT:      -7.8      0.000      0.000
REMARK  Name = 
REMARK  10 active torsions:
REMARK  status: ('A' for Active; 'I' for Inactive)
REMARK    1  A    between atoms: C_1  and  C_2
REMARK    2  A    between atoms: C_2  and  O_3
REMARK    3  A    between atoms: O_3  and  C_4
REMARK    4  A    between atoms: C_7  and  C_8
REMARK    5  A    between atoms: C_8  and  N_9
REMARK    6  A    between atoms: N_9  and  S_10
REMARK    7  A    between atoms: S_10  and  C_13
REMARK    8  A    between atoms: C_16  and  C_17
REMARK    9  A    between atoms: C_26  and  O_27
REMARK   10  A    between atoms: O_27  and  C_28
REMARK                            x       y       z     vdW  Elec       q    Type
REMARK                         _______ _______ _______ _____ _____    ______ ____
ROOT
ATOM      1  S   UNL     1       7.260   6.582  17.324  0.00  0.00    +0.000 S 
ATOM      2  O   UNL     1       7.587   6.229  15.962  0.00  0.00    +0.000 OA
ATOM      3  O   UNL     1       7.830   5.879  18.448  0.00  0.00    +0.000 OA
ENDROOT
BRANCH   1   4
ATOM      4  C   UNL     1       5.501   6.370  17.489  0.00  0.00    +0.000 A 
ATOM      5  C   UNL     1       4.484   7.297  17.567  0.00  0.00    +0.000 A 
ATOM      6  C   UNL     1       3.208   6.687  17.697  0.00  0.00    +0.000 A 
ATOM      7  C   UNL     1       3.292   5.313  17.805  0.00  0.00    +0.000 A 
ATOM      8  S   UNL     1       4.899   4.771  17.555  0.00  0.00    +0.000 S 
BRANCH   7   9
ATOM      9  C   UNL     1       2.231   4.336  18.067  0.00  0.00    +0.000 C 
ATOM     10  O   UNL     1       1.626   3.757  17.163  0.00  0.00    +0.000 OA
ATOM     11  N   UNL     1       1.928   4.058  19.400  0.00  0.00    +0.000 N 
ATOM     12  C   UNL     1       2.644   4.498  20.587  0.00  0.00    +0.000 C 
ATOM     13  C   UNL     1       2.474   3.352  21.565  0.00  0.00    +0.000 C 
ATOM     14  C   UNL     1       1.082   2.824  21.245  0.00  0.00    +0.000 C 
ATOM     15  C   UNL     1       0.905   3.089  19.751  0.00  0.00    +0.000 C 
ENDBRANCH   7   9
ENDBRANCH   1   4
BRANCH   1  16
ATOM     16  N   UNL     1       7.631   8.217  17.515  0.00  0.00    +0.000 NA
ATOM     17  H   UNL     1       7.865   8.611  16.604  0.00  0.00    +0.000 HD
BRANCH  16  18
ATOM     18  C   UNL     1       8.646   8.520  18.536  0.00  0.00    +0.000 C 
BRANCH  18  22
ATOM     19  C   UNL     1       9.152  12.788  19.117  0.00  0.00    +0.000 A 
ATOM     20  C   UNL     1       8.863  12.270  17.844  0.00  0.00    +0.000 A 
ATOM     21  C   UNL     1       8.706  10.898  17.638  0.00  0.00    +0.000 A 
ATOM     22  C   UNL     1       8.900  10.001  18.688  0.00  0.00    +0.000 A 
ATOM     23  C   UNL     1       9.268  10.515  19.939  0.00  0.00    +0.000 A 
ATOM     24  C   UNL     1       9.398  11.896  20.171  0.00  0.00    +0.000 A 
BRANCH  24  25
ATOM     25  O   UNL     1       9.741  12.159  21.470  0.00  0.00    +0.000 OA
ATOM     26  C   UNL     1       8.747  12.085  22.477  0.00  0.00    +0.000 C 
ENDBRANCH  24  25
BRANCH  19  27
ATOM     27  O   UNL     1       9.195  14.140  19.346  0.00  0.00    +0.000 OA
BRANCH  27  29
ATOM     28  C   UNL     1       7.084  14.768  20.304  0.00  0.00    +0.000 C 
ATOM     29  C   UNL     1       7.977  14.846  19.081  0.00  0.00    +0.000 C 
ENDBRANCH  27  29
ENDBRANCH  19  27
ENDBRANCH  18  22
ENDBRANCH  16  18
ENDBRANCH   1  16
TORSDOF 8
ENDMDL
MODEL 2
REMARK VINA RESULT:      -7.8      0.952      1.832
REMARK  Name = 
REMARK  10 active torsions:
REMARK  status: ('A' for Active; 'I' for Inactive)
REMARK    1  A    between atoms: C_1  and  C_2
REMARK    2  A    between atoms: C_2  and  O_3
REMARK    3  A    between atoms: O_3  and  C_4
REMARK    4  A    between atoms: C_7  and  C_8
REMARK    5  A    between atoms: C_8  and  N_9
REMARK    6  A    between atoms: N_9  and  S_10
REMARK    7  A    between atoms: S_10  and  C_13
REMARK    8  A    between atoms: C_16  and  C_17
REMARK    9  A    between atoms: C_26  and  O_27
REMARK   10  A    between atoms: O_27  and  C_28
REMARK                            x       y       z     vdW  Elec       q    Type
REMARK                         _______ _______ _______ _____ _____    ______ ____
ROOT
ATOM      1  S   UNL     1       7.307   6.034  17.469  0.00  0.00    +0.000 S 
ATOM      2  O   UNL     1       7.607   6.212  16.067  0.00  0.00    +0.000 OA
ATOM      3  O   UNL     1       7.744   4.865  18.195  0.00  0.00    +0.000 OA
ENDROOT
BRANCH   1   4
ATOM      4  C   UNL     1       5.534   6.029  17.607  0.00  0.00    +0.000 A 
ATOM      5  C   UNL     1       4.625   7.065  17.596  0.00  0.00    +0.000 A 
ATOM      6  C   UNL     1       3.287   6.610  17.738  0.00  0.00    +0.000 A 
ATOM      7  C   UNL     1       3.215   5.247  17.944  0.00  0.00    +0.000 A 
ATOM      8  S   UNL     1       4.756   4.514  17.770  0.00  0.00    +0.000 S 
BRANCH   7   9
ATOM      9  C   UNL     1       2.049   4.414  18.248  0.00  0.00    +0.000 C 
ATOM     10  O   UNL     1       1.256   4.041  17.381  0.00  0.00    +0.000 OA
ATOM     11  N   UNL     1       1.862   4.029  19.576  0.00  0.00    +0.000 N 
ATOM     12  C   UNL     1       2.773   4.216  20.693  0.00  0.00    +0.000 C 
ATOM     13  C   UNL     1       2.535   3.001  21.569  0.00  0.00    +0.000 C 
ATOM     14  C   UNL     1       1.048   2.727  21.388  0.00  0.00    +0.000 C 
ATOM     15  C   UNL     1       0.744   3.189  19.964  0.00  0.00    +0.000 C 
ENDBRANCH   7   9
ENDBRANCH   1   4
BRANCH   1  16
ATOM     16  N   UNL     1       7.912   7.383  18.281  0.00  0.00    +0.000 NA
ATOM     17  H   UNL     1       7.413   7.489  19.164  0.00  0.00    +0.000 HD
BRANCH  16  18
ATOM     18  C   UNL     1       7.944   8.630  17.500  0.00  0.00    +0.000 C 
BRANCH  18  22
ATOM     19  C   UNL     1       9.751  11.989  19.564  0.00  0.00    +0.000 A 
ATOM     20  C   UNL     1       9.712  10.719  20.163  0.00  0.00    +0.000 A 
ATOM     21  C   UNL     1       9.127   9.630  19.516  0.00  0.00    +0.000 A 
ATOM     22  C   UNL     1       8.504   9.796  18.280  0.00  0.00    +0.000 A 
ATOM     23  C   UNL     1       8.472  11.081  17.721  0.00  0.00    +0.000 A 
ATOM     24  C   UNL     1       9.087  12.182  18.344  0.00  0.00    +0.000 A 
BRANCH  24  25
ATOM     25  O   UNL     1       8.946  13.324  17.603  0.00  0.00    +0.000 OA
ATOM     26  C   UNL     1       7.798  14.135  17.793  0.00  0.00    +0.000 C 
ENDBRANCH  24  25
BRANCH  19  27
ATOM     27  O   UNL     1      10.424  13.034  20.145  0.00  0.00    +0.000 OA
BRANCH  27  29
ATOM     28  C   UNL     1       8.710  14.137  21.418  0.00  0.00    +0.000 C 
ATOM     29  C   UNL     1      10.012  13.362  21.478  0.00  0.00    +0.000 C 
ENDBRANCH  27  29
ENDBRANCH  19  27
ENDBRANCH  18  22
ENDBRANCH  16  18
ENDBRANCH   1  16
TORSDOF 8
ENDMDL
MODEL 3
REMARK VINA RESULT:      -7.5      3.827      7.073
REMARK  Name = 
REMARK  10 active torsions:
REMARK  status: ('A' for Active; 'I' for Inactive)
REMARK    1  A    between atoms: C_1  and  C_2
REMARK    2  A    between atoms: C_2  and  O_3
REMARK    3  A    between atoms: O_3  and  C_4
REMARK    4  A    between atoms: C_7  and  C_8
REMARK    5  A    between atoms: C_8  and  N_9
REMARK    6  A    between atoms: N_9  and  S_10
REMARK    7  A    between atoms: S_10  and  C_13
REMARK    8  A    between atoms: C_16  and  C_17
REMARK    9  A    between atoms: C_26  and  O_27
REMARK   10  A    between atoms: O_27  and  C_28
REMARK                            x       y       z     vdW  Elec       q    Type
REMARK                         _______ _______ _______ _____ _____    ______ ____
ROOT
ATOM      1  S   UNL     1       1.870   3.194  19.207  0.00  0.00    +0.000 S 
ATOM      2  O   UNL     1       1.243   3.028  17.916  0.00  0.00    +0.000 OA
ATOM      3  O   UNL     1       1.288   2.643  20.408  0.00  0.00    +0.000 OA
ENDROOT
BRANCH   1   4
ATOM      4  C   UNL     1       1.962   4.946  19.499  0.00  0.00    +0.000 A 
ATOM      5  C   UNL     1       1.983   5.664  20.676  0.00  0.00    +0.000 A 
ATOM      6  C   UNL     1       2.061   7.065  20.451  0.00  0.00    +0.000 A 
ATOM      7  C   UNL     1       2.009   7.384  19.108  0.00  0.00    +0.000 A 
ATOM      8  S   UNL     1       2.058   5.973  18.135  0.00  0.00    +0.000 S 
BRANCH   7   9
ATOM      9  C   UNL     1       1.945   8.701  18.469  0.00  0.00    +0.000 C 
ATOM     10  O   UNL     1       2.488   8.941  17.389  0.00  0.00    +0.000 OA
ATOM     11  N   UNL     1       1.221   9.699  19.122  0.00  0.00    +0.000 N 
ATOM     12  C   UNL     1       0.373   9.560  20.296  0.00  0.00    +0.000 C 
ATOM     13  C   UNL     1      -0.724  10.584  20.080  0.00  0.00    +0.000 C 
ATOM     14  C   UNL     1      -0.007  11.718  19.361  0.00  0.00    +0.000 C 
ATOM     15  C   UNL     1       1.089  11.027  18.552  0.00  0.00    +0.000 C 
ENDBRANCH   7   9
ENDBRANCH   1   4
BRANCH   1  16
ATOM     16  N   UNL     1       3.436   2.580  19.081  0.00  0.00    +0.000 NA
ATOM     17  H   UNL     1       4.022   3.021  19.790  0.00  0.00    +0.000 HD
BRANCH  16  18
ATOM     18  C   UNL     1       4.034   2.642  17.738  0.00  0.00    +0.000 C 
BRANCH  18  22
ATOM     19  C   UNL     1       6.792   5.935  17.138  0.00  0.00    +0.000 A 
ATOM     20  C   UNL     1       6.282   5.654  18.416  0.00  0.00    +0.000 A 
ATOM     21  C   UNL     1       5.387   4.604  18.625  0.00  0.00    +0.000 A 
ATOM     22  C   UNL     1       4.925   3.847  17.549  0.00  0.00    +0.000 A 
ATOM     23  C   UNL     1       5.373   4.181  16.263  0.00  0.00    +0.000 A 
ATOM     24  C   UNL     1       6.300   5.214  16.041  0.00  0.00    +0.000 A 
BRANCH  24  25
ATOM     25  O   UNL     1       6.605   5.340  14.712  0.00  0.00    +0.000 OA
ATOM     26  C   UNL     1       6.354   4.253  13.838  0.00  0.00    +0.000 C 
ENDBRANCH  24  25
BRANCH  19  27
ATOM     27  O   UNL     1       7.757   6.891  16.948  0.00  0.00    +0.000 OA
BRANCH  27  29
ATOM     28  C   UNL     1       8.049   9.125  17.783  0.00  0.00    +0.000 C 
ATOM     29  C   UNL     1       8.110   7.646  18.113  0.00  0.00    +0.000 C 
ENDBRANCH  27  29
ENDBRANCH  19  27
ENDBRANCH  18  22
ENDBRANCH  16  18
ENDBRANCH   1  16
TORSDOF 8
ENDMDL
MODEL 4
REMARK VINA RESULT:      -7.2      1.331      1.661
REMARK  Name = 
REMARK  10 active torsions:
REMARK  status: ('A' for Active; 'I' for Inactive)
REMARK    1  A    between atoms: C_1  and  C_2
REMARK    2  A    between atoms: C_2  and  O_3
REMARK    3  A    between atoms: O_3  and  C_4
REMARK    4  A    between atoms: C_7  and  C_8
REMARK    5  A    between atoms: C_8  and  N_9
REMARK    6  A    between atoms: N_9  and  S_10
REMARK    7  A    between atoms: S_10  and  C_13
REMARK    8  A    between atoms: C_16  and  C_17
REMARK    9  A    between atoms: C_26  and  O_27
REMARK   10  A    between atoms: O_27  and  C_28
REMARK                            x       y       z     vdW  Elec       q    Type
REMARK                         _______ _______ _______ _____ _____    ______ ____
ROOT
ATOM      1  S   UNL     1       7.420   6.813  17.594  0.00  0.00    +0.000 S 
ATOM      2  O   UNL     1       7.690   6.457  16.220  0.00  0.00    +0.000 OA
ATOM      3  O   UNL     1       8.011   6.089  18.695  0.00  0.00    +0.000 OA
ENDROOT
BRANCH   1   4
ATOM      4  C   UNL     1       5.664   6.647  17.820  0.00  0.00    +0.000 A 
ATOM      5  C   UNL     1       4.609   7.165  17.101  0.00  0.00    +0.000 A 
ATOM      6  C   UNL     1       3.350   6.780  17.636  0.00  0.00    +0.000 A 
ATOM      7  C   UNL     1       3.477   6.051  18.802  0.00  0.00    +0.000 A 
ATOM      8  S   UNL     1       5.121   5.683  19.124  0.00  0.00    +0.000 S 
BRANCH   7   9
ATOM      9  C   UNL     1       2.436   5.571  19.714  0.00  0.00    +0.000 C 
ATOM     10  O   UNL     1       1.888   6.305  20.539  0.00  0.00    +0.000 OA
ATOM     11  N   UNL     1       2.057   4.232  19.613  0.00  0.00    +0.000 N 
ATOM     12  C   UNL     1       2.453   3.270  18.597  0.00  0.00    +0.000 C 
ATOM     13  C   UNL     1       1.240   2.373  18.446  0.00  0.00    +0.000 C 
ATOM     14  C   UNL     1       0.669   2.321  19.857  0.00  0.00    +0.000 C 
ATOM     15  C   UNL     1       1.021   3.678  20.464  0.00  0.00    +0.000 C 
ENDBRANCH   7   9
ENDBRANCH   1   4
BRANCH   1  16
ATOM     16  N   UNL     1       7.841   8.436  17.778  0.00  0.00    +0.000 NA
ATOM     17  H   UNL     1       8.167   8.797  16.881  0.00  0.00    +0.000 HD
BRANCH  16  18
ATOM     18  C   UNL     1       8.779   8.726  18.874  0.00  0.00    +0.000 C 
BRANCH  18  22
ATOM     19  C   UNL     1       9.615  12.971  19.182  0.00  0.00    +0.000 A 
ATOM     20  C   UNL     1       9.563  12.342  17.927  0.00  0.00    +0.000 A 
ATOM     21  C   UNL     1       9.304  10.976  17.811  0.00  0.00    +0.000 A 
ATOM     22  C   UNL     1       9.156  10.187  18.951  0.00  0.00    +0.000 A 
ATOM     23  C   UNL     1       9.290  10.802  20.204  0.00  0.00    +0.000 A 
ATOM     24  C   UNL     1       9.517  12.183  20.338  0.00  0.00    +0.000 A 
BRANCH  24  25
ATOM     25  O   UNL     1       9.588  12.557  21.653  0.00  0.00    +0.000 OA
ATOM     26  C   UNL     1       8.566  12.147  22.545  0.00  0.00    +0.000 C 
ENDBRANCH  24  25
BRANCH  19  27
ATOM     27  O   UNL     1       9.757  14.331  19.295  0.00  0.00    +0.000 OA
BRANCH  27  29
ATOM     28  C   UNL     1      10.844  15.664  17.618  0.00  0.00    +0.000 C 
ATOM     29  C   UNL     1       9.530  15.073  18.092  0.00  0.00    +0.000 C 
ENDBRANCH  27  29
ENDBRANCH  19  27
ENDBRANCH  18  22
ENDBRANCH  16  18
ENDBRANCH   1  16
TORSDOF 8
ENDMDL
MODEL 5
REMARK VINA RESULT:      -7.0      5.473      9.974
REMARK  Name = 
REMARK  10 active torsions:
REMARK  status: ('A' for Active; 'I' for Inactive)
REMARK    1  A    between atoms: C_1  and  C_2
REMARK    2  A    between atoms: C_2  and  O_3
REMARK    3  A    between atoms: O_3  and  C_4
REMARK    4  A    between atoms: C_7  and  C_8
REMARK    5  A    between atoms: C_8  and  N_9
REMARK    6  A    between atoms: N_9  and  S_10
REMARK    7  A    between atoms: S_10  and  C_13
REMARK    8  A    between atoms: C_16  and  C_17
REMARK    9  A    between atoms: C_26  and  O_27
REMARK   10  A    between atoms: O_27  and  C_28
REMARK                            x       y       z     vdW  Elec       q    Type
REMARK                         _______ _______ _______ _____ _____    ______ ____
ROOT
ATOM      1  S   UNL     1       0.209   9.157  22.032  0.00  0.00    +0.000 S 
ATOM      2  O   UNL     1      -0.858   8.198  21.862  0.00  0.00    +0.000 OA
ATOM      3  O   UNL     1       0.444   9.814  23.296  0.00  0.00    +0.000 OA
ENDROOT
BRANCH   1   4
ATOM      4  C   UNL     1      -0.109  10.473  20.878  0.00  0.00    +0.000 A 
ATOM      5  C   UNL     1      -0.734  10.463  19.650  0.00  0.00    +0.000 A 
ATOM      6  C   UNL     1      -0.771  11.752  19.054  0.00  0.00    +0.000 A 
ATOM      7  C   UNL     1      -0.096  12.696  19.802  0.00  0.00    +0.000 A 
ATOM      8  S   UNL     1       0.409  12.045  21.307  0.00  0.00    +0.000 S 
BRANCH   7   9
ATOM      9  C   UNL     1       0.196  14.097  19.486  0.00  0.00    +0.000 C 
ATOM     10  O   UNL     1      -0.528  15.023  19.854  0.00  0.00    +0.000 OA
ATOM     11  N   UNL     1       1.353  14.364  18.754  0.00  0.00    +0.000 N 
ATOM     12  C   UNL     1       2.411  13.434  18.391  0.00  0.00    +0.000 C 
ATOM     13  C   UNL     1       3.666  14.286  18.396  0.00  0.00    +0.000 C 
ATOM     14  C   UNL     1       3.169  15.641  17.912  0.00  0.00    +0.000 C 
ATOM     15  C   UNL     1       1.728  15.724  18.413  0.00  0.00    +0.000 C 
ENDBRANCH   7   9
ENDBRANCH   1   4
BRANCH   1  16
ATOM     16  N   UNL     1       1.644   8.385  21.596  0.00  0.00    +0.000 NA
ATOM     17  H   UNL     1       2.428   9.007  21.793  0.00  0.00    +0.000 HD
BRANCH  16  18
ATOM     18  C   UNL     1       1.683   7.849  20.226  0.00  0.00    +0.000 C 
BRANCH  18  22
ATOM     19  C   UNL     1       3.369   3.880  19.761  0.00  0.00    +0.000 A 
ATOM     20  C   UNL     1       2.257   4.091  20.593  0.00  0.00    +0.000 A 
ATOM     21  C   UNL     1       1.708   5.363  20.761  0.00  0.00    +0.000 A 
ATOM     22  C   UNL     1       2.297   6.471  20.153  0.00  0.00    +0.000 A 
ATOM     23  C   UNL     1       3.455   6.269  19.388  0.00  0.00    +0.000 A 
ATOM     24  C   UNL     1       4.001   4.990  19.183  0.00  0.00    +0.000 A 
BRANCH  24  25
ATOM     25  O   UNL     1       5.114   5.039  18.387  0.00  0.00    +0.000 OA
ATOM     26  C   UNL     1       6.380   5.270  18.980  0.00  0.00    +0.000 C 
ENDBRANCH  24  25
BRANCH  19  27
ATOM     27  O   UNL     1       3.841   2.618  19.505  0.00  0.00    +0.000 OA
BRANCH  27  29
ATOM     28  C   UNL     1       2.589   2.444  17.463  0.00  0.00    +0.000 C 
ATOM     29  C   UNL     1       2.953   1.768  18.770  0.00  0.00    +0.000 C 
ENDBRANCH  27  29
ENDBRANCH  19  27
ENDBRANCH  18  22
ENDBRANCH  16  18
ENDBRANCH   1  16
TORSDOF 8
ENDMDL
MODEL 6
REMARK VINA RESULT:      -7.0      3.689      6.802
REMARK  Name = 
REMARK  10 active torsions:
REMARK  status: ('A' for Active; 'I' for Inactive)
REMARK    1  A    between atoms: C_1  and  C_2
REMARK    2  A    between atoms: C_2  and  O_3
REMARK    3  A    between atoms: O_3  and  C_4
REMARK    4  A    between atoms: C_7  and  C_8
REMARK    5  A    between atoms: C_8  and  N_9
REMARK    6  A    between atoms: N_9  and  S_10
REMARK    7  A    between atoms: S_10  and  C_13
REMARK    8  A    between atoms: C_16  and  C_17
REMARK    9  A    between atoms: C_26  and  O_27
REMARK   10  A    between atoms: O_27  and  C_28
REMARK                            x       y       z     vdW  Elec       q    Type
REMARK                         _______ _______ _______ _____ _____    ______ ____
ROOT
ATOM      1  S   UNL     1       2.179   3.353  18.917  0.00  0.00    +0.000 S 
ATOM      2  O   UNL     1       0.951   2.965  18.261  0.00  0.00    +0.000 OA
ATOM      3  O   UNL     1       2.512   2.884  20.241  0.00  0.00    +0.000 OA
ENDROOT
BRANCH   1   4
ATOM      4  C   UNL     1       2.137   5.127  19.052  0.00  0.00    +0.000 A 
ATOM      5  C   UNL     1       2.620   6.106  18.211  0.00  0.00    +0.000 A 
ATOM      6  C   UNL     1       2.372   7.414  18.708  0.00  0.00    +0.000 A 
ATOM      7  C   UNL     1       1.787   7.397  19.959  0.00  0.00    +0.000 A 
ATOM      8  S   UNL     1       1.373   5.799  20.425  0.00  0.00    +0.000 S 
BRANCH   7   9
ATOM      9  C   UNL     1       1.481   8.515  20.855  0.00  0.00    +0.000 C 
ATOM     10  O   UNL     1       1.764   8.499  22.055  0.00  0.00    +0.000 OA
ATOM     11  N   UNL     1       0.860   9.634  20.301  0.00  0.00    +0.000 N 
ATOM     12  C   UNL     1       0.614   9.910  18.894  0.00  0.00    +0.000 C 
ATOM     13  C   UNL     1       0.730  11.418  18.789  0.00  0.00    +0.000 C 
ATOM     14  C   UNL     1       0.181  11.903  20.124  0.00  0.00    +0.000 C 
ATOM     15  C   UNL     1       0.538  10.794  21.112  0.00  0.00    +0.000 C 
ENDBRANCH   7   9
ENDBRANCH   1   4
BRANCH   1  16
ATOM     16  N   UNL     1       3.447   2.914  17.896  0.00  0.00    +0.000 NA
ATOM     17  H   UNL     1       3.234   2.010  17.474  0.00  0.00    +0.000 HD
BRANCH  16  18
ATOM     18  C   UNL     1       4.788   2.952  18.500  0.00  0.00    +0.000 C 
BRANCH  18  22
ATOM     19  C   UNL     1       7.186   6.407  17.440  0.00  0.00    +0.000 A 
ATOM     20  C   UNL     1       6.836   6.163  18.778  0.00  0.00    +0.000 A 
ATOM     21  C   UNL     1       6.058   5.061  19.135  0.00  0.00    +0.000 A 
ATOM     22  C   UNL     1       5.551   4.209  18.155  0.00  0.00    +0.000 A 
ATOM     23  C   UNL     1       5.834   4.500  16.813  0.00  0.00    +0.000 A 
ATOM     24  C   UNL     1       6.644   5.587  16.440  0.00  0.00    +0.000 A 
BRANCH  24  25
ATOM     25  O   UNL     1       6.798   5.658  15.081  0.00  0.00    +0.000 OA
ATOM     26  C   UNL     1       6.515   4.515  14.292  0.00  0.00    +0.000 C 
ENDBRANCH  24  25
BRANCH  19  27
ATOM     27  O   UNL     1       8.042   7.423  17.098  0.00  0.00    +0.000 OA
BRANCH  27  29
ATOM     28  C   UNL     1       8.734   9.279  18.458  0.00  0.00    +0.000 C 
ATOM     29  C   UNL     1       7.655   8.727  17.546  0.00  0.00    +0.000 C 
ENDBRANCH  27  29
ENDBRANCH  19  27
ENDBRANCH  18  22
ENDBRANCH  16  18
ENDBRANCH   1  16
TORSDOF 8
ENDMDL
MODEL 7
REMARK VINA RESULT:      -6.9      5.229      9.629
REMARK  Name = 
REMARK  10 active torsions:
REMARK  status: ('A' for Active; 'I' for Inactive)
REMARK    1  A    between atoms: C_1  and  C_2
REMARK    2  A    between atoms: C_2  and  O_3
REMARK    3  A    between atoms: O_3  and  C_4
REMARK    4  A    between atoms: C_7  and  C_8
REMARK    5  A    between atoms: C_8  and  N_9
REMARK    6  A    between atoms: N_9  and  S_10
REMARK    7  A    between atoms: S_10  and  C_13
REMARK    8  A    between atoms: C_16  and  C_17
REMARK    9  A    between atoms: C_26  and  O_27
REMARK   10  A    between atoms: O_27  and  C_28
REMARK                            x       y       z     vdW  Elec       q    Type
REMARK                         _______ _______ _______ _____ _____    ______ ____
ROOT
ATOM      1  S   UNL     1       0.563   8.889  21.706  0.00  0.00    +0.000 S 
ATOM      2  O   UNL     1      -0.618   8.057  21.712  0.00  0.00    +0.000 OA
ATOM      3  O   UNL     1       1.041   9.536  22.905  0.00  0.00    +0.000 OA
ENDROOT
BRANCH   1   4
ATOM      4  C   UNL     1       0.240  10.213  20.563  0.00  0.00    +0.000 A 
ATOM      5  C   UNL     1      -0.264  10.193  19.280  0.00  0.00    +0.000 A 
ATOM      6  C   UNL     1      -0.359  11.495  18.719  0.00  0.00    +0.000 A 
ATOM      7  C   UNL     1       0.158  12.466  19.554  0.00  0.00    +0.000 A 
ATOM      8  S   UNL     1       0.575  11.807  21.082  0.00  0.00    +0.000 S 
BRANCH   7   9
ATOM      9  C   UNL     1       0.354  13.896  19.306  0.00  0.00    +0.000 C 
ATOM     10  O   UNL     1      -0.456  14.749  19.673  0.00  0.00    +0.000 OA
ATOM     11  N   UNL     1       1.518  14.281  18.641  0.00  0.00    +0.000 N 
ATOM     12  C   UNL     1       2.661  13.450  18.295  0.00  0.00    +0.000 C 
ATOM     13  C   UNL     1       3.844  14.394  18.393  0.00  0.00    +0.000 C 
ATOM     14  C   UNL     1       3.266  15.726  17.937  0.00  0.00    +0.000 C 
ATOM     15  C   UNL     1       1.802  15.678  18.370  0.00  0.00    +0.000 C 
ENDBRANCH   7   9
ENDBRANCH   1   4
BRANCH   1  16
ATOM     16  N   UNL     1       1.829   7.948  21.107  0.00  0.00    +0.000 NA
ATOM     17  H   UNL     1       2.239   8.421  20.301  0.00  0.00    +0.000 HD
BRANCH  16  18
ATOM     18  C   UNL     1       1.494   6.544  20.823  0.00  0.00    +0.000 C 
BRANCH  18  22
ATOM     19  C   UNL     1       4.096   4.849  17.795  0.00  0.00    +0.000 A 
ATOM     20  C   UNL     1       3.623   6.166  17.675  0.00  0.00    +0.000 A 
ATOM     21  C   UNL     1       2.778   6.724  18.636  0.00  0.00    +0.000 A 
ATOM     22  C   UNL     1       2.329   5.956  19.710  0.00  0.00    +0.000 A 
ATOM     23  C   UNL     1       2.736   4.617  19.784  0.00  0.00    +0.000 A 
ATOM     24  C   UNL     1       3.614   4.050  18.843  0.00  0.00    +0.000 A 
BRANCH  24  25
ATOM     25  O   UNL     1       3.887   2.740  19.133  0.00  0.00    +0.000 OA
ATOM     26  C   UNL     1       3.033   1.727  18.629  0.00  0.00    +0.000 C 
ENDBRANCH  24  25
BRANCH  19  27
ATOM     27  O   UNL     1       5.014   4.335  16.915  0.00  0.00    +0.000 OA
BRANCH  27  29
ATOM     28  C   UNL     1       7.022   4.797  15.680  0.00  0.00    +0.000 C 
ATOM     29  C   UNL     1       6.339   4.867  17.032  0.00  0.00    +0.000 C 
ENDBRANCH  27  29
ENDBRANCH  19  27
ENDBRANCH  18  22
ENDBRANCH  16  18
ENDBRANCH   1  16
TORSDOF 8
ENDMDL
MODEL 8
REMARK VINA RESULT:      -6.9      3.724      6.492
REMARK  Name = 
REMARK  10 active torsions:
REMARK  status: ('A' for Active; 'I' for Inactive)
REMARK    1  A    between atoms: C_1  and  C_2
REMARK    2  A    between atoms: C_2  and  O_3
REMARK    3  A    between atoms: O_3  and  C_4
REMARK    4  A    between atoms: C_7  and  C_8
REMARK    5  A    between atoms: C_8  and  N_9
REMARK    6  A    between atoms: N_9  and  S_10
REMARK    7  A    between atoms: S_10  and  C_13
REMARK    8  A    between atoms: C_16  and  C_17
REMARK    9  A    between atoms: C_26  and  O_27
REMARK   10  A    between atoms: O_27  and  C_28
REMARK                            x       y       z     vdW  Elec       q    Type
REMARK                         _______ _______ _______ _____ _____    ______ ____
ROOT
ATOM      1  S   UNL     1       2.169   3.013  19.007  0.00  0.00    +0.000 S 
ATOM      2  O   UNL     1       1.264   2.833  17.896  0.00  0.00    +0.000 OA
ATOM      3  O   UNL     1       1.936   2.385  20.286  0.00  0.00    +0.000 OA
ENDROOT
BRANCH   1   4
ATOM      4  C   UNL     1       2.204   4.759  19.348  0.00  0.00    +0.000 A 
ATOM      5  C   UNL     1       2.237   5.443  20.544  0.00  0.00    +0.000 A 
ATOM      6  C   UNL     1       2.253   6.852  20.358  0.00  0.00    +0.000 A 
ATOM      7  C   UNL     1       2.143   7.207  19.029  0.00  0.00    +0.000 A 
ATOM      8  S   UNL     1       2.213   5.827  18.013  0.00  0.00    +0.000 S 
BRANCH   7   9
ATOM      9  C   UNL     1       2.006   8.538  18.432  0.00  0.00    +0.000 C 
ATOM     10  O   UNL     1       2.456   8.814  17.318  0.00  0.00    +0.000 OA
ATOM     11  N   UNL     1       1.322   9.506  19.167  0.00  0.00    +0.000 N 
ATOM     12  C   UNL     1       0.574   9.323  20.401  0.00  0.00    +0.000 C 
ATOM     13  C   UNL     1      -0.553  10.331  20.301  0.00  0.00    +0.000 C 
ATOM     14  C   UNL     1       0.085  11.496  19.557  0.00  0.00    +0.000 C 
ATOM     15  C   UNL     1       1.123  10.845  18.644  0.00  0.00    +0.000 C 
ENDBRANCH   7   9
ENDBRANCH   1   4
BRANCH   1  16
ATOM     16  N   UNL     1       3.699   2.530  18.484  0.00  0.00    +0.000 NA
ATOM     17  H   UNL     1       4.397   2.871  19.145  0.00  0.00    +0.000 HD
BRANCH  16  18
ATOM     18  C   UNL     1       4.028   2.872  17.091  0.00  0.00    +0.000 C 
BRANCH  18  22
ATOM     19  C   UNL     1       6.955   6.066  16.887  0.00  0.00    +0.000 A 
ATOM     20  C   UNL     1       6.437   5.496  15.713  0.00  0.00    +0.000 A 
ATOM     21  C   UNL     1       5.501   4.462  15.761  0.00  0.00    +0.000 A 
ATOM     22  C   UNL     1       5.108   3.923  16.986  0.00  0.00    +0.000 A 
ATOM     23  C   UNL     1       5.688   4.439  18.153  0.00  0.00    +0.000 A 
ATOM     24  C   UNL     1       6.607   5.503  18.123  0.00  0.00    +0.000 A 
BRANCH  24  25
ATOM     25  O   UNL     1       7.018   5.850  19.382  0.00  0.00    +0.000 OA
ATOM     26  C   UNL     1       8.333   5.521  19.796  0.00  0.00    +0.000 C 
ENDBRANCH  24  25
BRANCH  19  27
ATOM     27  O   UNL     1       7.788   7.156  16.846  0.00  0.00    +0.000 OA
BRANCH  27  29
ATOM     28  C   UNL     1       8.463   9.063  18.141  0.00  0.00    +0.000 C 
ATOM     29  C   UNL     1       7.297   8.327  17.510  0.00  0.00    +0.000 C 
ENDBRANCH  27  29
ENDBRANCH  19  27
ENDBRANCH  18  22
ENDBRANCH  16  18
ENDBRANCH   1  16
TORSDOF 8
ENDMDL
MODEL 9
REMARK VINA RESULT:      -6.8      4.445      7.418
REMARK  Name = 
REMARK  10 active torsions:
REMARK  status: ('A' for Active; 'I' for Inactive)
REMARK    1  A    between atoms: C_1  and  C_2
REMARK    2  A    between atoms: C_2  and  O_3
REMARK    3  A    between atoms: O_3  and  C_4
REMARK    4  A    between atoms: C_7  and  C_8
REMARK    5  A    between atoms: C_8  and  N_9
REMARK    6  A    between atoms: N_9  and  S_10
REMARK    7  A    between atoms: S_10  and  C_13
REMARK    8  A    between atoms: C_16  and  C_17
REMARK    9  A    between atoms: C_26  and  O_27
REMARK   10  A    between atoms: O_27  and  C_28
REMARK                            x       y       z     vdW  Elec       q    Type
REMARK                         _______ _______ _______ _____ _____    ______ ____
ROOT
ATOM      1  S   UNL     1       1.727   3.207  19.258  0.00  0.00    +0.000 S 
ATOM      2  O   UNL     1       1.307   3.039  17.886  0.00  0.00    +0.000 OA
ATOM      3  O   UNL     1       0.929   2.723  20.360  0.00  0.00    +0.000 OA
ENDROOT
BRANCH   1   4
ATOM      4  C   UNL     1       1.874   4.959  19.528  0.00  0.00    +0.000 A 
ATOM      5  C   UNL     1       1.915   5.692  20.695  0.00  0.00    +0.000 A 
ATOM      6  C   UNL     1       2.038   7.086  20.451  0.00  0.00    +0.000 A 
ATOM      7  C   UNL     1       1.997   7.390  19.105  0.00  0.00    +0.000 A 
ATOM      8  S   UNL     1       2.002   5.965  18.151  0.00  0.00    +0.000 S 
BRANCH   7   9
ATOM      9  C   UNL     1       1.974   8.699  18.449  0.00  0.00    +0.000 C 
ATOM     10  O   UNL     1       2.542   8.913  17.376  0.00  0.00    +0.000 OA
ATOM     11  N   UNL     1       1.262   9.722  19.076  0.00  0.00    +0.000 N 
ATOM     12  C   UNL     1       0.391   9.617  20.236  0.00  0.00    +0.000 C 
ATOM     13  C   UNL     1      -0.679  10.663  19.988  0.00  0.00    +0.000 C 
ATOM     14  C   UNL     1       0.078  11.771  19.269  0.00  0.00    +0.000 C 
ATOM     15  C   UNL     1       1.171  11.045  18.487  0.00  0.00    +0.000 C 
ENDBRANCH   7   9
ENDBRANCH   1   4
BRANCH   1  16
ATOM     16  N   UNL     1       3.254   2.505  19.400  0.00  0.00    +0.000 NA
ATOM     17  H   UNL     1       3.218   1.776  20.113  0.00  0.00    +0.000 HD
BRANCH  16  18
ATOM     18  C   UNL     1       4.366   3.445  19.611  0.00  0.00    +0.000 C 
BRANCH  18  22
ATOM     19  C   UNL     1       5.902   5.081  15.900  0.00  0.00    +0.000 A 
ATOM     20  C   UNL     1       5.248   3.838  15.916  0.00  0.00    +0.000 A 
ATOM     21  C   UNL     1       4.755   3.293  17.103  0.00  0.00    +0.000 A 
ATOM     22  C   UNL     1       4.964   3.946  18.317  0.00  0.00    +0.000 A 
ATOM     23  C   UNL     1       5.688   5.146  18.309  0.00  0.00    +0.000 A 
ATOM     24  C   UNL     1       6.162   5.724  17.118  0.00  0.00    +0.000 A 
BRANCH  24  25
ATOM     25  O   UNL     1       6.818   6.902  17.356  0.00  0.00    +0.000 OA
ATOM     26  C   UNL     1       7.885   6.923  18.289  0.00  0.00    +0.000 C 
ENDBRANCH  24  25
BRANCH  19  27
ATOM     27  O   UNL     1       6.287   5.671  14.723  0.00  0.00    +0.000 OA
BRANCH  27  29
ATOM     28  C   UNL     1       6.609   4.129  12.909  0.00  0.00    +0.000 C 
ATOM     29  C   UNL     1       7.286   4.963  13.980  0.00  0.00    +0.000 C 
ENDBRANCH  27  29
ENDBRANCH  19  27
ENDBRANCH  18  22
ENDBRANCH  16  18
ENDBRANCH   1  16
TORSDOF 8
ENDMDL
