MODEL 1
REMARK VINA RESULT:      -7.2      0.000      0.000
REMARK  Name = 
REMARK  13 active torsions:
REMARK  status: ('A' for Active; 'I' for Inactive)
REMARK    1  A    between atoms: C_1  and  C_2
REMARK    2  A    between atoms: C_2  and  C_3
REMARK    3  A    between atoms: C_3  and  C_4
REMARK    4  A    between atoms: C_4  and  C_5
REMARK    5  A    between atoms: C_5  and  C_6
REMARK    6  A    between atoms: C_6  and  C_7
REMARK    7  A    between atoms: C_9  and  C_10
REMARK    8  A    between atoms: C_15  and  O_16
REMARK    9  A    between atoms: N_17  and  C_18
REMARK   10  A    between atoms: C_21  and  O_22
REMARK   11  A    between atoms: O_22  and  C_23
REMARK   12  A    between atoms: C_25  and  O_26
REMARK   13  A    between atoms: O_26  and  C_27
REMARK                            x       y       z     vdW  Elec       q    Type
REMARK                         _______ _______ _______ _____ _____    ______ ____
ROOT
ATOM      1  C   UNL     1       2.434   5.762  20.060  0.00  0.00    +0.000 A 
ATOM      2  N   UNL     1       3.314   5.405  19.102  0.00  0.00    +0.000 NA
ATOM      3  C   UNL     1       3.575   6.294  18.102  0.00  0.00    +0.000 A 
ATOM      4  C   UNL     1       2.945   7.539  18.088  0.00  0.00    +0.000 A 
ATOM      5  N   UNL     1       3.045   8.613  17.251  0.00  0.00    +0.000 NA
ATOM      6  C   UNL     1       2.265   9.518  17.772  0.00  0.00    +0.000 A 
ATOM      7  N   UNL     1       1.538   9.085  18.875  0.00  0.00    +0.000 N 
ATOM      8  C   UNL     1       2.047   7.791  19.122  0.00  0.00    +0.000 A 
ATOM      9  N   UNL     1       1.745   6.926  20.125  0.00  0.00    +0.000 NA
ENDROOT
BRANCH   7  10
ATOM     10  C   UNL     1       0.568   9.828  19.636  0.00  0.00    +0.000 A 
ATOM     11  C   UNL     1       0.811  10.062  21.001  0.00  0.00    +0.000 A 
ATOM     12  C   UNL     1      -0.057  10.856  21.764  0.00  0.00    +0.000 A 
ATOM     13  C   UNL     1      -1.197  11.415  21.198  0.00  0.00    +0.000 A 
ATOM     14  C   UNL     1      -1.479  11.146  19.863  0.00  0.00    +0.000 A 
ATOM     15  C   UNL     1      -0.607  10.372  19.070  0.00  0.00    +0.000 A 
BRANCH  13  16
ATOM     16  O   UNL     1      -1.960  12.183  22.034  0.00  0.00    +0.000 OA
ATOM     17  C   UNL     1      -2.156  11.693  23.357  0.00  0.00    +0.000 C 
ENDBRANCH  13  16
BRANCH  15  18
ATOM     18  O   UNL     1      -0.979  10.042  17.790  0.00  0.00    +0.000 OA
ATOM     19  C   UNL     1      -2.388  10.001  17.545  0.00  0.00    +0.000 C 
ENDBRANCH  15  18
ENDBRANCH   7  10
BRANCH   3  20
ATOM     20  C   UNL     1       4.564   5.888  17.067  0.00  0.00    +0.000 C 
ATOM     21  N   UNL     1       5.536   6.813  16.786  0.00  0.00    +0.000 N 
ATOM     22  O   UNL     1       4.546   4.814  16.482  0.00  0.00    +0.000 OA
ATOM     23  H   UNL     1       5.552   7.703  17.267  0.00  0.00    +0.000 HD
ATOM     24  H   UNL     1       6.236   6.591  16.095  0.00  0.00    +0.000 HD
ENDBRANCH   3  20
BRANCH   6  25
ATOM     25  O   UNL     1       2.341  10.756  17.314  0.00  0.00    +0.000 OA
ATOM     26  H   UNL     1       2.260  10.609  16.354  0.00  0.00    +0.000 HD
ENDBRANCH   6  25
BRANCH   1  27
ATOM     27  C   UNL     1       2.205   4.744  21.156  0.00  0.00    +0.000 C 
BRANCH  27  28
ATOM     28  C   UNL     1       1.072   3.782  20.792  0.00  0.00    +0.000 C 
BRANCH  28  29
ATOM     29  C   UNL     1       1.582   2.465  20.193  0.00  0.00    +0.000 C 
BRANCH  29  30
ATOM     30  C   UNL     1       1.128   2.333  18.735  0.00  0.00    +0.000 C 
BRANCH  30  32
ATOM     31  C   UNL     1       3.566   1.778  18.453  0.00  0.00    +0.000 C 
ATOM     32  C   UNL     1       2.301   2.265  17.757  0.00  0.00    +0.000 C 
ENDBRANCH  30  32
ENDBRANCH  29  30
ENDBRANCH  28  29
ENDBRANCH  27  28
ENDBRANCH   1  27
TORSDOF 10
ENDMDL
MODEL 2
REMARK VINA RESULT:      -7.2      2.852      4.948
REMARK  Name = 
REMARK  13 active torsions:
REMARK  status: ('A' for Active; 'I' for Inactive)
REMARK    1  A    between atoms: C_1  and  C_2
REMARK    2  A    between atoms: C_2  and  C_3
REMARK    3  A    between atoms: C_3  and  C_4
REMARK    4  A    between atoms: C_4  and  C_5
REMARK    5  A    between atoms: C_5  and  C_6
REMARK    6  A    between atoms: C_6  and  C_7
REMARK    7  A    between atoms: C_9  and  C_10
REMARK    8  A    between atoms: C_15  and  O_16
REMARK    9  A    between atoms: N_17  and  C_18
REMARK   10  A    between atoms: C_21  and  O_22
REMARK   11  A    between atoms: O_22  and  C_23
REMARK   12  A    between atoms: C_25  and  O_26
REMARK   13  A    between atoms: O_26  and  C_27
REMARK                            x       y       z     vdW  Elec       q    Type
REMARK                         _______ _______ _______ _____ _____    ______ ____
ROOT
ATOM      1  C   UNL     1       5.736   5.331  18.349  0.00  0.00    +0.000 A 
ATOM      2  N   UNL     1       5.768   4.054  18.781  0.00  0.00    +0.000 NA
ATOM      3  C   UNL     1       4.696   3.584  19.481  0.00  0.00    +0.000 A 
ATOM      4  C   UNL     1       3.602   4.412  19.730  0.00  0.00    +0.000 A 
ATOM      5  N   UNL     1       2.407   4.198  20.356  0.00  0.00    +0.000 NA
ATOM      6  C   UNL     1       1.755   5.320  20.227  0.00  0.00    +0.000 A 
ATOM      7  N   UNL     1       2.486   6.345  19.637  0.00  0.00    +0.000 N 
ATOM      8  C   UNL     1       3.687   5.715  19.246  0.00  0.00    +0.000 A 
ATOM      9  N   UNL     1       4.744   6.227  18.562  0.00  0.00    +0.000 NA
ENDROOT
BRANCH   7  10
ATOM     10  C   UNL     1       2.066   7.701  19.399  0.00  0.00    +0.000 A 
ATOM     11  C   UNL     1       2.212   8.241  18.109  0.00  0.00    +0.000 A 
ATOM     12  C   UNL     1       1.735   9.524  17.804  0.00  0.00    +0.000 A 
ATOM     13  C   UNL     1       1.127  10.310  18.776  0.00  0.00    +0.000 A 
ATOM     14  C   UNL     1       1.025   9.810  20.069  0.00  0.00    +0.000 A 
ATOM     15  C   UNL     1       1.473   8.513  20.393  0.00  0.00    +0.000 A 
BRANCH  13  16
ATOM     16  O   UNL     1       0.687  11.536  18.360  0.00  0.00    +0.000 OA
ATOM     17  C   UNL     1      -0.671  11.862  18.646  0.00  0.00    +0.000 C 
ENDBRANCH  13  16
BRANCH  15  18
ATOM     18  O   UNL     1       1.453   8.103  21.704  0.00  0.00    +0.000 OA
ATOM     19  C   UNL     1       1.031   9.086  22.654  0.00  0.00    +0.000 C 
ENDBRANCH  15  18
ENDBRANCH   7  10
BRANCH   3  20
ATOM     20  C   UNL     1       4.742   2.165  19.931  0.00  0.00    +0.000 C 
ATOM     21  N   UNL     1       4.354   1.239  18.998  0.00  0.00    +0.000 N 
ATOM     22  O   UNL     1       5.094   1.808  21.048  0.00  0.00    +0.000 OA
ATOM     23  H   UNL     1       4.061   1.531  18.076  0.00  0.00    +0.000 HD
ATOM     24  H   UNL     1       4.368   0.262  19.246  0.00  0.00    +0.000 HD
ENDBRANCH   3  20
BRANCH   6  25
ATOM     25  O   UNL     1       0.467   5.339  20.524  0.00  0.00    +0.000 OA
ATOM     26  H   UNL     1       0.116   5.904  19.811  0.00  0.00    +0.000 HD
ENDBRANCH   6  25
BRANCH   1  27
ATOM     27  C   UNL     1       6.942   5.787  17.557  0.00  0.00    +0.000 C 
BRANCH  27  28
ATOM     28  C   UNL     1       6.955   5.165  16.159  0.00  0.00    +0.000 C 
BRANCH  28  29
ATOM     29  C   UNL     1       5.682   5.475  15.360  0.00  0.00    +0.000 C 
BRANCH  29  30
ATOM     30  C   UNL     1       5.353   4.316  14.412  0.00  0.00    +0.000 C 
BRANCH  30  32
ATOM     31  C   UNL     1       6.022   3.286  12.216  0.00  0.00    +0.000 C 
ATOM     32  C   UNL     1       6.519   3.960  13.489  0.00  0.00    +0.000 C 
ENDBRANCH  30  32
ENDBRANCH  29  30
ENDBRANCH  28  29
ENDBRANCH  27  28
ENDBRANCH   1  27
TORSDOF 10
ENDMDL
MODEL 3
REMARK VINA RESULT:      -7.0      3.268      5.690
REMARK  Name = 
REMARK  13 active torsions:
REMARK  status: ('A' for Active; 'I' for Inactive)
REMARK    1  A    between atoms: C_1  and  C_2
REMARK    2  A    between atoms: C_2  and  C_3
REMARK    3  A    between atoms: C_3  and  C_4
REMARK    4  A    between atoms: C_4  and  C_5
REMARK    5  A    between atoms: C_5  and  C_6
REMARK    6  A    between atoms: C_6  and  C_7
REMARK    7  A    between atoms: C_9  and  C_10
REMARK    8  A    between atoms: C_15  and  O_16
REMARK    9  A    between atoms: N_17  and  C_18
REMARK   10  A    between atoms: C_21  and  O_22
REMARK   11  A    between atoms: O_22  and  C_23
REMARK   12  A    between atoms: C_25  and  O_26
REMARK   13  A    between atoms: O_26  and  C_27
REMARK                            x       y       z     vdW  Elec       q    Type
REMARK                         _______ _______ _______ _____ _____    ______ ____
ROOT
ATOM      1  C   UNL     1       5.752   5.319  18.324  0.00  0.00    +0.000 A 
ATOM      2  N   UNL     1       5.789   4.046  18.767  0.00  0.00    +0.000 NA
ATOM      3  C   UNL     1       4.723   3.579  19.477  0.00  0.00    +0.000 A 
ATOM      4  C   UNL     1       3.628   4.406  19.724  0.00  0.00    +0.000 A 
ATOM      5  N   UNL     1       2.437   4.193  20.359  0.00  0.00    +0.000 NA
ATOM      6  C   UNL     1       1.781   5.312  20.224  0.00  0.00    +0.000 A 
ATOM      7  N   UNL     1       2.506   6.334  19.621  0.00  0.00    +0.000 N 
ATOM      8  C   UNL     1       3.707   5.704  19.229  0.00  0.00    +0.000 A 
ATOM      9  N   UNL     1       4.758   6.214  18.534  0.00  0.00    +0.000 NA
ENDROOT
BRANCH   7  10
ATOM     10  C   UNL     1       2.080   7.687  19.374  0.00  0.00    +0.000 A 
ATOM     11  C   UNL     1       2.237   8.224  18.084  0.00  0.00    +0.000 A 
ATOM     12  C   UNL     1       1.756   9.502  17.769  0.00  0.00    +0.000 A 
ATOM     13  C   UNL     1       1.132  10.288  18.731  0.00  0.00    +0.000 A 
ATOM     14  C   UNL     1       1.019   9.792  20.025  0.00  0.00    +0.000 A 
ATOM     15  C   UNL     1       1.471   8.499  20.358  0.00  0.00    +0.000 A 
BRANCH  13  16
ATOM     16  O   UNL     1       0.689  11.510  18.306  0.00  0.00    +0.000 OA
ATOM     17  C   UNL     1      -0.649  11.862  18.646  0.00  0.00    +0.000 C 
ENDBRANCH  13  16
BRANCH  15  18
ATOM     18  O   UNL     1       1.439   8.093  21.670  0.00  0.00    +0.000 OA
ATOM     19  C   UNL     1       0.532   8.806  22.517  0.00  0.00    +0.000 C 
ENDBRANCH  15  18
ENDBRANCH   7  10
BRANCH   3  20
ATOM     20  C   UNL     1       4.776   2.164  19.939  0.00  0.00    +0.000 C 
ATOM     21  N   UNL     1       4.420   1.226  19.005  0.00  0.00    +0.000 N 
ATOM     22  O   UNL     1       5.107   1.820  21.066  0.00  0.00    +0.000 OA
ATOM     23  H   UNL     1       4.145   1.508  18.074  0.00  0.00    +0.000 HD
ATOM     24  H   UNL     1       4.440   0.251  19.261  0.00  0.00    +0.000 HD
ENDBRANCH   3  20
BRANCH   6  25
ATOM     25  O   UNL     1       0.495   5.330  20.527  0.00  0.00    +0.000 OA
ATOM     26  H   UNL     1       0.366   4.423  20.863  0.00  0.00    +0.000 HD
ENDBRANCH   6  25
BRANCH   1  27
ATOM     27  C   UNL     1       6.951   5.772  17.521  0.00  0.00    +0.000 C 
BRANCH  27  28
ATOM     28  C   UNL     1       6.961   7.292  17.348  0.00  0.00    +0.000 C 
BRANCH  28  29
ATOM     29  C   UNL     1       8.168   7.958  18.022  0.00  0.00    +0.000 C 
BRANCH  29  30
ATOM     30  C   UNL     1       8.034   9.484  17.964  0.00  0.00    +0.000 C 
BRANCH  30  32
ATOM     31  C   UNL     1       9.313  10.714  19.748  0.00  0.00    +0.000 C 
ATOM     32  C   UNL     1       9.338  10.203  18.313  0.00  0.00    +0.000 C 
ENDBRANCH  30  32
ENDBRANCH  29  30
ENDBRANCH  28  29
ENDBRANCH  27  28
ENDBRANCH   1  27
TORSDOF 10
ENDMDL
MODEL 4
REMARK VINA RESULT:      -6.9      2.870      4.880
REMARK  Name = 
REMARK  13 active torsions:
REMARK  status: ('A' for Active; 'I' for Inactive)
REMARK    1  A    between atoms: C_1  and  C_2
REMARK    2  A    between atoms: C_2  and  C_3
REMARK    3  A    between atoms: C_3  and  C_4
REMARK    4  A    between atoms: C_4  and  C_5
REMARK    5  A    between atoms: C_5  and  C_6
REMARK    6  A    between atoms: C_6  and  C_7
REMARK    7  A    between atoms: C_9  and  C_10
REMARK    8  A    between atoms: C_15  and  O_16
REMARK    9  A    between atoms: N_17  and  C_18
REMARK   10  A    between atoms: C_21  and  O_22
REMARK   11  A    between atoms: O_22  and  C_23
REMARK   12  A    between atoms: C_25  and  O_26
REMARK   13  A    between atoms: O_26  and  C_27
REMARK                            x       y       z     vdW  Elec       q    Type
REMARK                         _______ _______ _______ _____ _____    ______ ____
ROOT
ATOM      1  C   UNL     1       4.675   5.493  16.871  0.00  0.00    +0.000 A 
ATOM      2  N   UNL     1       4.822   4.228  17.313  0.00  0.00    +0.000 NA
ATOM      3  C   UNL     1       4.114   3.843  18.414  0.00  0.00    +0.000 A 
ATOM      4  C   UNL     1       3.261   4.744  19.050  0.00  0.00    +0.000 A 
ATOM      5  N   UNL     1       2.424   4.621  20.122  0.00  0.00    +0.000 NA
ATOM      6  C   UNL     1       1.831   5.779  20.219  0.00  0.00    +0.000 A 
ATOM      7  N   UNL     1       2.300   6.740  19.332  0.00  0.00    +0.000 N 
ATOM      8  C   UNL     1       3.201   6.027  18.512  0.00  0.00    +0.000 A 
ATOM      9  N   UNL     1       3.903   6.455  17.430  0.00  0.00    +0.000 NA
ENDROOT
BRANCH   7  10
ATOM     10  C   UNL     1       1.884   8.115  19.223  0.00  0.00    +0.000 A 
ATOM     11  C   UNL     1       1.858   8.718  17.954  0.00  0.00    +0.000 A 
ATOM     12  C   UNL     1       1.374  10.023  17.783  0.00  0.00    +0.000 A 
ATOM     13  C   UNL     1       0.930  10.768  18.870  0.00  0.00    +0.000 A 
ATOM     14  C   UNL     1       1.001  10.203  20.139  0.00  0.00    +0.000 A 
ATOM     15  C   UNL     1       1.459   8.884  20.331  0.00  0.00    +0.000 A 
BRANCH  13  16
ATOM     16  O   UNL     1       0.465  12.022  18.582  0.00  0.00    +0.000 OA
ATOM     17  C   UNL     1      -0.934  12.149  18.343  0.00  0.00    +0.000 C 
ENDBRANCH  13  16
BRANCH  15  18
ATOM     18  O   UNL     1       1.616   8.406  21.609  0.00  0.00    +0.000 OA
ATOM     19  C   UNL     1       1.007   9.188  22.642  0.00  0.00    +0.000 C 
ENDBRANCH  15  18
ENDBRANCH   7  10
BRANCH   3  20
ATOM     20  C   UNL     1       4.275   2.436  18.872  0.00  0.00    +0.000 C 
ATOM     21  N   UNL     1       5.037   2.266  19.999  0.00  0.00    +0.000 N 
ATOM     22  O   UNL     1       3.780   1.468  18.309  0.00  0.00    +0.000 OA
ATOM     23  H   UNL     1       5.448   3.064  20.465  0.00  0.00    +0.000 HD
ATOM     24  H   UNL     1       5.177   1.335  20.357  0.00  0.00    +0.000 HD
ENDBRANCH   3  20
BRANCH   6  25
ATOM     25  O   UNL     1       0.783   5.885  21.018  0.00  0.00    +0.000 OA
ATOM     26  H   UNL     1       0.230   6.518  20.523  0.00  0.00    +0.000 HD
ENDBRANCH   6  25
BRANCH   1  27
ATOM     27  C   UNL     1       5.465   5.854  15.632  0.00  0.00    +0.000 C 
BRANCH  27  28
ATOM     28  C   UNL     1       6.787   5.085  15.573  0.00  0.00    +0.000 C 
BRANCH  28  29
ATOM     29  C   UNL     1       6.991   4.358  14.238  0.00  0.00    +0.000 C 
BRANCH  29  30
ATOM     30  C   UNL     1       5.637   4.019  13.603  0.00  0.00    +0.000 C 
BRANCH  30  32
ATOM     31  C   UNL     1       4.417   3.199  11.561  0.00  0.00    +0.000 C 
ATOM     32  C   UNL     1       5.778   3.369  12.226  0.00  0.00    +0.000 C 
ENDBRANCH  30  32
ENDBRANCH  29  30
ENDBRANCH  28  29
ENDBRANCH  27  28
ENDBRANCH   1  27
TORSDOF 10
ENDMDL
MODEL 5
REMARK VINA RESULT:      -6.8      3.397      8.535
REMARK  Name = 
REMARK  13 active torsions:
REMARK  status: ('A' for Active; 'I' for Inactive)
REMARK    1  A    between atoms: C_1  and  C_2
REMARK    2  A    between atoms: C_2  and  C_3
REMARK    3  A    between atoms: C_3  and  C_4
REMARK    4  A    between atoms: C_4  and  C_5
REMARK    5  A    between atoms: C_5  and  C_6
REMARK    6  A    between atoms: C_6  and  C_7
REMARK    7  A    between atoms: C_9  and  C_10
REMARK    8  A    between atoms: C_15  and  O_16
REMARK    9  A    between atoms: N_17  and  C_18
REMARK   10  A    between atoms: C_21  and  O_22
REMARK   11  A    between atoms: O_22  and  C_23
REMARK   12  A    between atoms: C_25  and  O_26
REMARK   13  A    between atoms: O_26  and  C_27
REMARK                            x       y       z     vdW  Elec       q    Type
REMARK                         _______ _______ _______ _____ _____    ______ ____
ROOT
ATOM      1  C   UNL     1       2.589   6.142  19.322  0.00  0.00    +0.000 A 
ATOM      2  N   UNL     1       1.790   5.360  20.077  0.00  0.00    +0.000 NA
ATOM      3  C   UNL     1       1.893   4.008  19.937  0.00  0.00    +0.000 A 
ATOM      4  C   UNL     1       2.810   3.463  19.038  0.00  0.00    +0.000 A 
ATOM      5  N   UNL     1       3.144   2.176  18.730  0.00  0.00    +0.000 NA
ATOM      6  C   UNL     1       4.113   2.279  17.862  0.00  0.00    +0.000 A 
ATOM      7  N   UNL     1       4.393   3.582  17.467  0.00  0.00    +0.000 N 
ATOM      8  C   UNL     1       3.571   4.368  18.304  0.00  0.00    +0.000 A 
ATOM      9  N   UNL     1       3.486   5.721  18.400  0.00  0.00    +0.000 NA
ENDROOT
BRANCH   7  10
ATOM     10  C   UNL     1       5.366   4.018  16.499  0.00  0.00    +0.000 A 
ATOM     11  C   UNL     1       5.026   3.993  15.136  0.00  0.00    +0.000 A 
ATOM     12  C   UNL     1       5.904   4.492  14.162  0.00  0.00    +0.000 A 
ATOM     13  C   UNL     1       7.148   5.001  14.516  0.00  0.00    +0.000 A 
ATOM     14  C   UNL     1       7.520   4.980  15.856  0.00  0.00    +0.000 A 
ATOM     15  C   UNL     1       6.643   4.508  16.854  0.00  0.00    +0.000 A 
BRANCH  13  16
ATOM     16  O   UNL     1       7.913   5.473  13.485  0.00  0.00    +0.000 OA
ATOM     17  C   UNL     1       7.581   5.014  12.178  0.00  0.00    +0.000 C 
ENDBRANCH  13  16
BRANCH  15  18
ATOM     18  O   UNL     1       7.093   4.404  18.149  0.00  0.00    +0.000 OA
ATOM     19  C   UNL     1       7.295   5.643  18.835  0.00  0.00    +0.000 C 
ENDBRANCH  15  18
ENDBRANCH   7  10
BRANCH   3  20
ATOM     20  C   UNL     1       1.017   3.163  20.795  0.00  0.00    +0.000 C 
ATOM     21  N   UNL     1       0.003   2.512  20.141  0.00  0.00    +0.000 N 
ATOM     22  O   UNL     1       1.157   3.033  22.004  0.00  0.00    +0.000 OA
ATOM     23  H   UNL     1      -0.115   2.620  19.142  0.00  0.00    +0.000 HD
ATOM     24  H   UNL     1      -0.620   1.924  20.671  0.00  0.00    +0.000 HD
ENDBRANCH   3  20
BRANCH   6  25
ATOM     25  O   UNL     1       4.807   1.196  17.560  0.00  0.00    +0.000 OA
ATOM     26  H   UNL     1       5.606   1.587  17.161  0.00  0.00    +0.000 HD
ENDBRANCH   6  25
BRANCH   1  27
ATOM     27  C   UNL     1       2.447   7.633  19.540  0.00  0.00    +0.000 C 
BRANCH  27  28
ATOM     28  C   UNL     1       2.476   8.393  18.213  0.00  0.00    +0.000 C 
BRANCH  28  29
ATOM     29  C   UNL     1       1.273   9.329  18.038  0.00  0.00    +0.000 C 
BRANCH  29  30
ATOM     30  C   UNL     1       0.688   9.704  19.404  0.00  0.00    +0.000 C 
BRANCH  30  32
ATOM     31  C   UNL     1      -1.256  10.174  17.877  0.00  0.00    +0.000 C 
ATOM     32  C   UNL     1      -0.726  10.278  19.302  0.00  0.00    +0.000 C 
ENDBRANCH  30  32
ENDBRANCH  29  30
ENDBRANCH  28  29
ENDBRANCH  27  28
ENDBRANCH   1  27
TORSDOF 10
ENDMDL
MODEL 6
REMARK VINA RESULT:      -6.7      2.675      4.746
REMARK  Name = 
REMARK  13 active torsions:
REMARK  status: ('A' for Active; 'I' for Inactive)
REMARK    1  A    between atoms: C_1  and  C_2
REMARK    2  A    between atoms: C_2  and  C_3
REMARK    3  A    between atoms: C_3  and  C_4
REMARK    4  A    between atoms: C_4  and  C_5
REMARK    5  A    between atoms: C_5  and  C_6
REMARK    6  A    between atoms: C_6  and  C_7
REMARK    7  A    between atoms: C_9  and  C_10
REMARK    8  A    between atoms: C_15  and  O_16
REMARK    9  A    between atoms: N_17  and  C_18
REMARK   10  A    between atoms: C_21  and  O_22
REMARK   11  A    between atoms: O_22  and  C_23
REMARK   12  A    between atoms: C_25  and  O_26
REMARK   13  A    between atoms: O_26  and  C_27
REMARK                            x       y       z     vdW  Elec       q    Type
REMARK                         _______ _______ _______ _____ _____    ______ ____
ROOT
ATOM      1  C   UNL     1       5.682   5.145  19.171  0.00  0.00    +0.000 A 
ATOM      2  N   UNL     1       5.736   3.799  19.230  0.00  0.00    +0.000 NA
ATOM      3  C   UNL     1       4.607   3.124  19.589  0.00  0.00    +0.000 A 
ATOM      4  C   UNL     1       3.434   3.821  19.878  0.00  0.00    +0.000 A 
ATOM      5  N   UNL     1       2.177   3.410  20.219  0.00  0.00    +0.000 NA
ATOM      6  C   UNL     1       1.477   4.507  20.304  0.00  0.00    +0.000 A 
ATOM      7  N   UNL     1       2.216   5.673  20.148  0.00  0.00    +0.000 N 
ATOM      8  C   UNL     1       3.502   5.209  19.796  0.00  0.00    +0.000 A 
ATOM      9  N   UNL     1       4.610   5.920  19.462  0.00  0.00    +0.000 NA
ENDROOT
BRANCH   7  10
ATOM     10  C   UNL     1       1.743   7.031  20.233  0.00  0.00    +0.000 A 
ATOM     11  C   UNL     1       1.262   7.508  21.464  0.00  0.00    +0.000 A 
ATOM     12  C   UNL     1       0.876   8.847  21.621  0.00  0.00    +0.000 A 
ATOM     13  C   UNL     1       0.934   9.736  20.554  0.00  0.00    +0.000 A 
ATOM     14  C   UNL     1       1.356   9.265  19.316  0.00  0.00    +0.000 A 
ATOM     15  C   UNL     1       1.774   7.930  19.142  0.00  0.00    +0.000 A 
BRANCH  13  16
ATOM     16  O   UNL     1       0.548  11.019  20.828  0.00  0.00    +0.000 OA
ATOM     17  C   UNL     1      -0.492  11.186  21.787  0.00  0.00    +0.000 C 
ENDBRANCH  13  16
BRANCH  15  18
ATOM     18  O   UNL     1       2.078   7.480  17.880  0.00  0.00    +0.000 OA
ATOM     19  C   UNL     1       3.253   8.042  17.288  0.00  0.00    +0.000 C 
ENDBRANCH  15  18
ENDBRANCH   7  10
BRANCH   3  20
ATOM     20  C   UNL     1       4.682   1.637  19.628  0.00  0.00    +0.000 C 
ATOM     21  N   UNL     1       4.021   0.988  18.618  0.00  0.00    +0.000 N 
ATOM     22  O   UNL     1       5.281   1.001  20.484  0.00  0.00    +0.000 OA
ATOM     23  H   UNL     1       3.524   1.512  17.910  0.00  0.00    +0.000 HD
ATOM     24  H   UNL     1       4.040  -0.020  18.591  0.00  0.00    +0.000 HD
ENDBRANCH   3  20
BRANCH   6  25
ATOM     25  O   UNL     1       0.161   4.410  20.382  0.00  0.00    +0.000 OA
ATOM     26  H   UNL     1      -0.076   4.266  19.447  0.00  0.00    +0.000 HD
ENDBRANCH   6  25
BRANCH   1  27
ATOM     27  C   UNL     1       6.958   5.837  18.742  0.00  0.00    +0.000 C 
BRANCH  27  28
ATOM     28  C   UNL     1       7.288   5.535  17.279  0.00  0.00    +0.000 C 
BRANCH  28  29
ATOM     29  C   UNL     1       6.418   6.331  16.298  0.00  0.00    +0.000 C 
BRANCH  29  30
ATOM     30  C   UNL     1       5.433   5.400  15.583  0.00  0.00    +0.000 C 
BRANCH  30  32
ATOM     31  C   UNL     1       6.177   3.887  13.716  0.00  0.00    +0.000 C 
ATOM     32  C   UNL     1       6.052   4.049  15.226  0.00  0.00    +0.000 C 
ENDBRANCH  30  32
ENDBRANCH  29  30
ENDBRANCH  28  29
ENDBRANCH  27  28
ENDBRANCH   1  27
TORSDOF 10
ENDMDL
MODEL 7
REMARK VINA RESULT:      -6.7      1.154      1.394
REMARK  Name = 
REMARK  13 active torsions:
REMARK  status: ('A' for Active; 'I' for Inactive)
REMARK    1  A    between atoms: C_1  and  C_2
REMARK    2  A    between atoms: C_2  and  C_3
REMARK    3  A    between atoms: C_3  and  C_4
REMARK    4  A    between atoms: C_4  and  C_5
REMARK    5  A    between atoms: C_5  and  C_6
REMARK    6  A    between atoms: C_6  and  C_7
REMARK    7  A    between atoms: C_9  and  C_10
REMARK    8  A    between atoms: C_15  and  O_16
REMARK    9  A    between atoms: N_17  and  C_18
REMARK   10  A    between atoms: C_21  and  O_22
REMARK   11  A    between atoms: O_22  and  C_23
REMARK   12  A    between atoms: C_25  and  O_26
REMARK   13  A    between atoms: O_26  and  C_27
REMARK                            x       y       z     vdW  Elec       q    Type
REMARK                         _______ _______ _______ _____ _____    ______ ____
ROOT
ATOM      1  C   UNL     1       3.498   5.136  19.812  0.00  0.00    +0.000 A 
ATOM      2  N   UNL     1       4.138   4.926  18.644  0.00  0.00    +0.000 NA
ATOM      3  C   UNL     1       4.028   5.873  17.669  0.00  0.00    +0.000 A 
ATOM      4  C   UNL     1       3.275   7.026  17.892  0.00  0.00    +0.000 A 
ATOM      5  N   UNL     1       3.031   8.129  17.126  0.00  0.00    +0.000 NA
ATOM      6  C   UNL     1       2.311   8.910  17.882  0.00  0.00    +0.000 A 
ATOM      7  N   UNL     1       1.947   8.352  19.102  0.00  0.00    +0.000 N 
ATOM      8  C   UNL     1       2.649   7.128  19.131  0.00  0.00    +0.000 A 
ATOM      9  N   UNL     1       2.718   6.199  20.121  0.00  0.00    +0.000 NA
ENDROOT
BRANCH   7  10
ATOM     10  C   UNL     1       1.124   8.939  20.128  0.00  0.00    +0.000 A 
ATOM     11  C   UNL     1       1.418   8.663  21.475  0.00  0.00    +0.000 A 
ATOM     12  C   UNL     1       0.705   9.282  22.512  0.00  0.00    +0.000 A 
ATOM     13  C   UNL     1      -0.331  10.167  22.237  0.00  0.00    +0.000 A 
ATOM     14  C   UNL     1      -0.668  10.407  20.910  0.00  0.00    +0.000 A 
ATOM     15  C   UNL     1       0.052   9.817  19.851  0.00  0.00    +0.000 A 
BRANCH  13  16
ATOM     16  O   UNL     1      -0.944  10.722  23.327  0.00  0.00    +0.000 OA
ATOM     17  C   UNL     1      -1.931  11.718  23.070  0.00  0.00    +0.000 C 
ENDBRANCH  13  16
BRANCH  15  18
ATOM     18  O   UNL     1      -0.385   9.995  18.560  0.00  0.00    +0.000 OA
ATOM     19  C   UNL     1      -1.567  10.787  18.410  0.00  0.00    +0.000 C 
ENDBRANCH  15  18
ENDBRANCH   7  10
BRANCH   3  20
ATOM     20  C   UNL     1       4.760   5.631  16.395  0.00  0.00    +0.000 C 
ATOM     21  N   UNL     1       5.304   6.743  15.808  0.00  0.00    +0.000 N 
ATOM     22  O   UNL     1       4.888   4.531  15.874  0.00  0.00    +0.000 OA
ATOM     23  H   UNL     1       5.198   7.653  16.236  0.00  0.00    +0.000 HD
ATOM     24  H   UNL     1       5.814   6.639  14.945  0.00  0.00    +0.000 HD
ENDBRANCH   3  20
BRANCH   6  25
ATOM     25  O   UNL     1       2.122  10.161  17.499  0.00  0.00    +0.000 OA
ATOM     26  H   UNL     1       1.191  10.300  17.753  0.00  0.00    +0.000 HD
ENDBRANCH   6  25
BRANCH   1  27
ATOM     27  C   UNL     1       3.678   4.064  20.864  0.00  0.00    +0.000 C 
BRANCH  27  28
ATOM     28  C   UNL     1       2.934   2.782  20.483  0.00  0.00    +0.000 C 
BRANCH  28  29
ATOM     29  C   UNL     1       1.486   2.763  20.991  0.00  0.00    +0.000 C 
BRANCH  29  30
ATOM     30  C   UNL     1       0.518   3.113  19.856  0.00  0.00    +0.000 C 
BRANCH  30  32
ATOM     31  C   UNL     1       1.107   3.901  17.540  0.00  0.00    +0.000 C 
ATOM     32  C   UNL     1       1.049   2.704  18.481  0.00  0.00    +0.000 C 
ENDBRANCH  30  32
ENDBRANCH  29  30
ENDBRANCH  28  29
ENDBRANCH  27  28
ENDBRANCH   1  27
TORSDOF 10
ENDMDL
MODEL 8
REMARK VINA RESULT:      -6.3      2.557      4.883
REMARK  Name = 
REMARK  13 active torsions:
REMARK  status: ('A' for Active; 'I' for Inactive)
REMARK    1  A    between atoms: C_1  and  C_2
REMARK    2  A    between atoms: C_2  and  C_3
REMARK    3  A    between atoms: C_3  and  C_4
REMARK    4  A    between atoms: C_4  and  C_5
REMARK    5  A    between atoms: C_5  and  C_6
REMARK    6  A    between atoms: C_6  and  C_7
REMARK    7  A    between atoms: C_9  and  C_10
REMARK    8  A    between atoms: C_15  and  O_16
REMARK    9  A    between atoms: N_17  and  C_18
REMARK   10  A    between atoms: C_21  and  O_22
REMARK   11  A    between atoms: O_22  and  C_23
REMARK   12  A    between atoms: C_25  and  O_26
REMARK   13  A    between atoms: O_26  and  C_27
REMARK                            x       y       z     vdW  Elec       q    Type
REMARK                         _______ _______ _______ _____ _____    ______ ____
ROOT
ATOM      1  C   UNL     1       4.546   5.260  16.878  0.00  0.00    +0.000 A 
ATOM      2  N   UNL     1       4.668   4.002  17.349  0.00  0.00    +0.000 NA
ATOM      3  C   UNL     1       3.979   3.667  18.476  0.00  0.00    +0.000 A 
ATOM      4  C   UNL     1       3.168   4.608  19.110  0.00  0.00    +0.000 A 
ATOM      5  N   UNL     1       2.354   4.536  20.204  0.00  0.00    +0.000 NA
ATOM      6  C   UNL     1       1.797   5.713  20.285  0.00  0.00    +0.000 A 
ATOM      7  N   UNL     1       2.271   6.638  19.363  0.00  0.00    +0.000 N 
ATOM      8  C   UNL     1       3.130   5.878  18.540  0.00  0.00    +0.000 A 
ATOM      9  N   UNL     1       3.816   6.258  17.430  0.00  0.00    +0.000 NA
ENDROOT
BRANCH   7  10
ATOM     10  C   UNL     1       1.890   8.020  19.228  0.00  0.00    +0.000 A 
ATOM     11  C   UNL     1       1.877   8.599  17.948  0.00  0.00    +0.000 A 
ATOM     12  C   UNL     1       1.427   9.913  17.753  0.00  0.00    +0.000 A 
ATOM     13  C   UNL     1       1.006  10.690  18.826  0.00  0.00    +0.000 A 
ATOM     14  C   UNL     1       1.066  10.149  20.105  0.00  0.00    +0.000 A 
ATOM     15  C   UNL     1       1.489   8.822  20.322  0.00  0.00    +0.000 A 
BRANCH  13  16
ATOM     16  O   UNL     1       0.574  11.950  18.514  0.00  0.00    +0.000 OA
ATOM     17  C   UNL     1      -0.835  12.164  18.517  0.00  0.00    +0.000 C 
ENDBRANCH  13  16
BRANCH  15  18
ATOM     18  O   UNL     1       1.637   8.365  21.609  0.00  0.00    +0.000 OA
ATOM     19  C   UNL     1       1.006   9.154  22.622  0.00  0.00    +0.000 C 
ENDBRANCH  15  18
ENDBRANCH   7  10
BRANCH   3  20
ATOM     20  C   UNL     1       4.111   2.267  18.967  0.00  0.00    +0.000 C 
ATOM     21  N   UNL     1       4.999   2.086  19.996  0.00  0.00    +0.000 N 
ATOM     22  O   UNL     1       3.491   1.316  18.510  0.00  0.00    +0.000 OA
ATOM     23  H   UNL     1       5.513   2.870  20.374  0.00  0.00    +0.000 HD
ATOM     24  H   UNL     1       5.127   1.159  20.371  0.00  0.00    +0.000 HD
ENDBRANCH   3  20
BRANCH   6  25
ATOM     25  O   UNL     1       0.773   5.870  21.107  0.00  0.00    +0.000 OA
ATOM     26  H   UNL     1       0.062   5.423  20.613  0.00  0.00    +0.000 HD
ENDBRANCH   6  25
BRANCH   1  27
ATOM     27  C   UNL     1       5.314   5.566  15.611  0.00  0.00    +0.000 C 
BRANCH  27  28
ATOM     28  C   UNL     1       6.644   4.810  15.571  0.00  0.00    +0.000 C 
BRANCH  28  29
ATOM     29  C   UNL     1       7.531   5.106  16.787  0.00  0.00    +0.000 C 
BRANCH  29  30
ATOM     30  C   UNL     1       7.523   6.606  17.100  0.00  0.00    +0.000 C 
BRANCH  30  32
ATOM     31  C   UNL     1       7.693   5.712  19.446  0.00  0.00    +0.000 C 
ATOM     32  C   UNL     1       7.941   6.911  18.539  0.00  0.00    +0.000 C 
ENDBRANCH  30  32
ENDBRANCH  29  30
ENDBRANCH  28  29
ENDBRANCH  27  28
ENDBRANCH   1  27
TORSDOF 10
ENDMDL
MODEL 9
REMARK VINA RESULT:      -6.2      2.844      4.842
REMARK  Name = 
REMARK  13 active torsions:
REMARK  status: ('A' for Active; 'I' for Inactive)
REMARK    1  A    between atoms: C_1  and  C_2
REMARK    2  A    between atoms: C_2  and  C_3
REMARK    3  A    between atoms: C_3  and  C_4
REMARK    4  A    between atoms: C_4  and  C_5
REMARK    5  A    between atoms: C_5  and  C_6
REMARK    6  A    between atoms: C_6  and  C_7
REMARK    7  A    between atoms: C_9  and  C_10
REMARK    8  A    between atoms: C_15  and  O_16
REMARK    9  A    between atoms: N_17  and  C_18
REMARK   10  A    between atoms: C_21  and  O_22
REMARK   11  A    between atoms: O_22  and  C_23
REMARK   12  A    between atoms: C_25  and  O_26
REMARK   13  A    between atoms: O_26  and  C_27
REMARK                            x       y       z     vdW  Elec       q    Type
REMARK                         _______ _______ _______ _____ _____    ______ ____
ROOT
ATOM      1  C   UNL     1       4.946   5.839  17.560  0.00  0.00    +0.000 A 
ATOM      2  N   UNL     1       5.045   4.567  17.995  0.00  0.00    +0.000 NA
ATOM      3  C   UNL     1       4.170   4.142  18.951  0.00  0.00    +0.000 A 
ATOM      4  C   UNL     1       3.200   5.010  19.450  0.00  0.00    +0.000 A 
ATOM      5  N   UNL     1       2.195   4.845  20.360  0.00  0.00    +0.000 NA
ATOM      6  C   UNL     1       1.566   5.987  20.377  0.00  0.00    +0.000 A 
ATOM      7  N   UNL     1       2.157   6.979  19.603  0.00  0.00    +0.000 N 
ATOM      8  C   UNL     1       3.201   6.304  18.935  0.00  0.00    +0.000 A 
ATOM      9  N   UNL     1       4.067   6.772  17.998  0.00  0.00    +0.000 NA
ENDROOT
BRANCH   7  10
ATOM     10  C   UNL     1       1.732   8.347  19.452  0.00  0.00    +0.000 A 
ATOM     11  C   UNL     1       1.688   8.906  18.163  0.00  0.00    +0.000 A 
ATOM     12  C   UNL     1       1.196  10.202  17.953  0.00  0.00    +0.000 A 
ATOM     13  C   UNL     1       0.761  10.982  19.019  0.00  0.00    +0.000 A 
ATOM     14  C   UNL     1       0.850  10.462  20.306  0.00  0.00    +0.000 A 
ATOM     15  C   UNL     1       1.317   9.152  20.537  0.00  0.00    +0.000 A 
BRANCH  13  16
ATOM     16  O   UNL     1       0.287  12.223  18.693  0.00  0.00    +0.000 OA
ATOM     17  C   UNL     1      -1.054  12.293  18.216  0.00  0.00    +0.000 C 
ENDBRANCH  13  16
BRANCH  15  18
ATOM     18  O   UNL     1       1.491   8.720  21.830  0.00  0.00    +0.000 OA
ATOM     19  C   UNL     1       0.551   9.224  22.784  0.00  0.00    +0.000 C 
ENDBRANCH  15  18
ENDBRANCH   7  10
BRANCH   3  20
ATOM     20  C   UNL     1       4.284   2.727  19.402  0.00  0.00    +0.000 C 
ATOM     21  N   UNL     1       3.280   1.893  18.983  0.00  0.00    +0.000 N 
ATOM     22  O   UNL     1       5.193   2.299  20.099  0.00  0.00    +0.000 OA
ATOM     23  H   UNL     1       2.526   2.245  18.408  0.00  0.00    +0.000 HD
ATOM     24  H   UNL     1       3.306   0.923  19.256  0.00  0.00    +0.000 HD
ENDBRANCH   3  20
BRANCH   6  25
ATOM     25  O   UNL     1       0.396   6.054  20.987  0.00  0.00    +0.000 OA
ATOM     26  H   UNL     1       0.094   5.129  20.922  0.00  0.00    +0.000 HD
ENDBRANCH   6  25
BRANCH   1  27
ATOM     27  C   UNL     1       5.926   6.245  16.482  0.00  0.00    +0.000 C 
BRANCH  27  28
ATOM     28  C   UNL     1       5.541   5.647  15.128  0.00  0.00    +0.000 C 
BRANCH  28  29
ATOM     29  C   UNL     1       6.673   4.823  14.500  0.00  0.00    +0.000 C 
BRANCH  29  30
ATOM     30  C   UNL     1       6.113   3.544  13.868  0.00  0.00    +0.000 C 
BRANCH  30  32
ATOM     31  C   UNL     1       7.330   4.532  11.901  0.00  0.00    +0.000 C 
ATOM     32  C   UNL     1       6.300   3.505  12.351  0.00  0.00    +0.000 C 
ENDBRANCH  30  32
ENDBRANCH  29  30
ENDBRANCH  28  29
ENDBRANCH  27  28
ENDBRANCH   1  27
TORSDOF 10
ENDMDL
