MODEL 1
REMARK VINA RESULT:      -8.6      0.000      0.000
REMARK  Name = 
REMARK  3 active torsions:
REMARK  status: ('A' for Active; 'I' for Inactive)
REMARK    1  A    between atoms: C_6  and  C_7
REMARK    2  A    between atoms: N_8  and  N_9
REMARK    3  A    between atoms: C_14  and  N_15
REMARK                            x       y       z     vdW  Elec       q    Type
REMARK                         _______ _______ _______ _____ _____    ______ ____
ROOT
ATOM      1  N   UNL     1       2.241   8.495  18.589  0.00  0.00    +0.000 N 
ATOM      2  C   UNL     1       2.629   7.154  18.373  0.00  0.00    +0.000 A 
ATOM      3  N   UNL     1       1.836   6.161  18.781  0.00  0.00    +0.000 NA
ATOM      4  C   UNL     1       2.250   4.895  18.584  0.00  0.00    +0.000 A 
ATOM      5  C   UNL     1       3.472   4.584  17.986  0.00  0.00    +0.000 A 
ATOM      6  C   UNL     1       4.221   5.671  17.504  0.00  0.00    +0.000 A 
ATOM      7  N   UNL     1       3.792   6.939  17.735  0.00  0.00    +0.000 NA
ATOM      8  C   UNL     1       3.922   3.156  17.846  0.00  0.00    +0.000 C 
ATOM      9  S   UNL     1       3.118   1.916  18.882  0.00  0.00    +0.000 S 
ATOM     10  C   UNL     1       1.434   2.472  18.552  0.00  0.00    +0.000 C 
ATOM     11  C   UNL     1       1.285   3.867  19.121  0.00  0.00    +0.000 C 
ATOM     12  H   UNL     1       3.047   9.080  18.405  0.00  0.00    +0.000 HD
ENDROOT
BRANCH   6  13
ATOM     13  N   UNL     1       5.375   5.568  16.748  0.00  0.00    +0.000 N 
ATOM     14  C   UNL     1       5.288   5.744  15.282  0.00  0.00    +0.000 C 
ATOM     15  C   UNL     1       6.212   4.742  14.567  0.00  0.00    +0.000 C 
ATOM     16  O   UNL     1       7.568   4.838  15.034  0.00  0.00    +0.000 OA
ATOM     17  C   UNL     1       7.614   4.557  16.436  0.00  0.00    +0.000 C 
ATOM     18  C   UNL     1       6.762   5.546  17.237  0.00  0.00    +0.000 C 
ENDBRANCH   6  13
BRANCH   1  20
ATOM     19  C   UNL     1       0.948   9.959  19.730  0.00  0.00    +0.000 C 
ATOM     20  N   UNL     1       1.449   8.760  19.680  0.00  0.00    +0.000 NA
BRANCH  19  26
ATOM     21 CL   UNL     1      -2.607  13.221  21.912  0.00  0.00    +0.000 Cl
ATOM     22  C   UNL     1      -1.539  11.857  21.909  0.00  0.00    +0.000 A 
ATOM     23  C   UNL     1      -1.466  11.111  23.091  0.00  0.00    +0.000 A 
ATOM     24  C   UNL     1      -0.630  10.001  23.163  0.00  0.00    +0.000 A 
ATOM     25  C   UNL     1       0.139   9.640  22.056  0.00  0.00    +0.000 A 
ATOM     26  C   UNL     1       0.084  10.382  20.864  0.00  0.00    +0.000 A 
ATOM     27  C   UNL     1      -0.767  11.500  20.786  0.00  0.00    +0.000 A 
ATOM     28 CL   UNL     1      -0.874  12.440  19.330  0.00  0.00    +0.000 Cl
ENDBRANCH  19  26
ENDBRANCH   1  20
TORSDOF 3
ENDMDL
MODEL 2
REMARK VINA RESULT:      -8.5      1.951      2.327
REMARK  Name = 
REMARK  3 active torsions:
REMARK  status: ('A' for Active; 'I' for Inactive)
REMARK    1  A    between atoms: C_6  and  C_7
REMARK    2  A    between atoms: N_8  and  N_9
REMARK    3  A    between atoms: C_14  and  N_15
REMARK                            x       y       z     vdW  Elec       q    Type
REMARK                         _______ _______ _______ _____ _____    ______ ____
ROOT
ATOM      1  N   UNL     1       2.288   8.319  17.963  0.00  0.00    +0.000 N 
ATOM      2  C   UNL     1       2.607   7.020  18.421  0.00  0.00    +0.000 A 
ATOM      3  N   UNL     1       1.726   6.343  19.160  0.00  0.00    +0.000 NA
ATOM      4  C   UNL     1       2.074   5.121  19.602  0.00  0.00    +0.000 A 
ATOM      5  C   UNL     1       3.315   4.543  19.329  0.00  0.00    +0.000 A 
ATOM      6  C   UNL     1       4.164   5.271  18.477  0.00  0.00    +0.000 A 
ATOM      7  N   UNL     1       3.798   6.511  18.063  0.00  0.00    +0.000 NA
ATOM      8  C   UNL     1       3.684   3.201  19.898  0.00  0.00    +0.000 C 
ATOM      9  S   UNL     1       2.731   2.594  21.305  0.00  0.00    +0.000 S 
ATOM     10  C   UNL     1       1.114   2.972  20.602  0.00  0.00    +0.000 C 
ATOM     11  C   UNL     1       1.010   4.475  20.455  0.00  0.00    +0.000 C 
ATOM     12  H   UNL     1       3.140   8.737  17.609  0.00  0.00    +0.000 HD
ENDROOT
BRANCH   6  13
ATOM     13  N   UNL     1       5.362   4.808  17.963  0.00  0.00    +0.000 N 
ATOM     14  C   UNL     1       6.563   4.823  18.826  0.00  0.00    +0.000 C 
ATOM     15  C   UNL     1       7.802   5.239  18.011  0.00  0.00    +0.000 C 
ATOM     16  O   UNL     1       7.987   4.403  16.856  0.00  0.00    +0.000 OA
ATOM     17  C   UNL     1       6.844   4.502  16.003  0.00  0.00    +0.000 C 
ATOM     18  C   UNL     1       5.566   4.053  16.718  0.00  0.00    +0.000 C 
ENDBRANCH   6  13
BRANCH   1  20
ATOM     19  C   UNL     1       0.639   9.864  18.077  0.00  0.00    +0.000 C 
ATOM     20  N   UNL     1       1.436   9.072  18.734  0.00  0.00    +0.000 NA
BRANCH  19  26
ATOM     21 CL   UNL     1      -4.207  11.894  18.735  0.00  0.00    +0.000 Cl
ATOM     22  C   UNL     1      -2.528  11.709  19.123  0.00  0.00    +0.000 A 
ATOM     23  C   UNL     1      -2.038  12.482  20.181  0.00  0.00    +0.000 A 
ATOM     24  C   UNL     1      -0.700  12.387  20.551  0.00  0.00    +0.000 A 
ATOM     25  C   UNL     1       0.151  11.523  19.859  0.00  0.00    +0.000 A 
ATOM     26  C   UNL     1      -0.325  10.745  18.789  0.00  0.00    +0.000 A 
ATOM     27  C   UNL     1      -1.678  10.833  18.418  0.00  0.00    +0.000 A 
ATOM     28 CL   UNL     1      -2.310   9.884  17.110  0.00  0.00    +0.000 Cl
ENDBRANCH  19  26
ENDBRANCH   1  20
TORSDOF 3
ENDMDL
MODEL 3
REMARK VINA RESULT:      -8.3      1.057      1.385
REMARK  Name = 
REMARK  3 active torsions:
REMARK  status: ('A' for Active; 'I' for Inactive)
REMARK    1  A    between atoms: C_6  and  C_7
REMARK    2  A    between atoms: N_8  and  N_9
REMARK    3  A    between atoms: C_14  and  N_15
REMARK                            x       y       z     vdW  Elec       q    Type
REMARK                         _______ _______ _______ _____ _____    ______ ____
ROOT
ATOM      1  N   UNL     1       1.920   8.458  18.899  0.00  0.00    +0.000 N 
ATOM      2  C   UNL     1       2.430   7.144  19.002  0.00  0.00    +0.000 A 
ATOM      3  N   UNL     1       1.815   6.255  19.784  0.00  0.00    +0.000 NA
ATOM      4  C   UNL     1       2.344   5.021  19.880  0.00  0.00    +0.000 A 
ATOM      5  C   UNL     1       3.508   4.642  19.209  0.00  0.00    +0.000 A 
ATOM      6  C   UNL     1       4.059   5.597  18.337  0.00  0.00    +0.000 A 
ATOM      7  N   UNL     1       3.519   6.842  18.275  0.00  0.00    +0.000 NA
ATOM      8  C   UNL     1       4.097   3.272  19.398  0.00  0.00    +0.000 C 
ATOM      9  S   UNL     1       3.581   2.327  20.846  0.00  0.00    +0.000 S 
ATOM     10  C   UNL     1       1.815   2.637  20.641  0.00  0.00    +0.000 C 
ATOM     11  C   UNL     1       1.580   4.122  20.821  0.00  0.00    +0.000 C 
ATOM     12  H   UNL     1       2.623   9.024  18.439  0.00  0.00    +0.000 HD
ENDROOT
BRANCH   6  13
ATOM     13  N   UNL     1       5.111   5.368  17.470  0.00  0.00    +0.000 N 
ATOM     14  C   UNL     1       6.490   5.643  17.929  0.00  0.00    +0.000 C 
ATOM     15  C   UNL     1       7.317   6.275  16.794  0.00  0.00    +0.000 C 
ATOM     16  O   UNL     1       7.304   5.462  15.609  0.00  0.00    +0.000 OA
ATOM     17  C   UNL     1       5.960   5.312  15.144  0.00  0.00    +0.000 C 
ATOM     18  C   UNL     1       5.073   4.637  16.194  0.00  0.00    +0.000 C 
ENDBRANCH   6  13
BRANCH   1  20
ATOM     19  C   UNL     1       0.393   9.910  19.722  0.00  0.00    +0.000 C 
ATOM     20  N   UNL     1       1.248   8.966  19.984  0.00  0.00    +0.000 NA
BRANCH  19  26
ATOM     21 CL   UNL     1      -2.853  13.698  21.498  0.00  0.00    +0.000 Cl
ATOM     22  C   UNL     1      -1.872  12.279  21.667  0.00  0.00    +0.000 A 
ATOM     23  C   UNL     1      -1.794  11.717  22.946  0.00  0.00    +0.000 A 
ATOM     24  C   UNL     1      -1.026  10.576  23.159  0.00  0.00    +0.000 A 
ATOM     25  C   UNL     1      -0.330  10.001  22.095  0.00  0.00    +0.000 A 
ATOM     26  C   UNL     1      -0.392  10.558  20.806  0.00  0.00    +0.000 A 
ATOM     27  C   UNL     1      -1.174  11.706  20.586  0.00  0.00    +0.000 A 
ATOM     28 CL   UNL     1      -1.287  12.421  19.009  0.00  0.00    +0.000 Cl
ENDBRANCH  19  26
ENDBRANCH   1  20
TORSDOF 3
ENDMDL
MODEL 4
REMARK VINA RESULT:      -8.3      1.620      1.817
REMARK  Name = 
REMARK  3 active torsions:
REMARK  status: ('A' for Active; 'I' for Inactive)
REMARK    1  A    between atoms: C_6  and  C_7
REMARK    2  A    between atoms: N_8  and  N_9
REMARK    3  A    between atoms: C_14  and  N_15
REMARK                            x       y       z     vdW  Elec       q    Type
REMARK                         _______ _______ _______ _____ _____    ______ ____
ROOT
ATOM      1  N   UNL     1       2.208   8.827  17.897  0.00  0.00    +0.000 N 
ATOM      2  C   UNL     1       2.648   7.521  18.212  0.00  0.00    +0.000 A 
ATOM      3  N   UNL     1       1.854   6.706  18.911  0.00  0.00    +0.000 NA
ATOM      4  C   UNL     1       2.315   5.479  19.216  0.00  0.00    +0.000 A 
ATOM      5  C   UNL     1       3.585   5.034  18.845  0.00  0.00    +0.000 A 
ATOM      6  C   UNL     1       4.337   5.908  18.041  0.00  0.00    +0.000 A 
ATOM      7  N   UNL     1       3.858   7.148  17.765  0.00  0.00    +0.000 NA
ATOM      8  C   UNL     1       4.081   3.679  19.266  0.00  0.00    +0.000 C 
ATOM      9  S   UNL     1       3.239   2.862  20.637  0.00  0.00    +0.000 S 
ATOM     10  C   UNL     1       1.569   3.172  20.030  0.00  0.00    +0.000 C 
ATOM     11  C   UNL     1       1.342   4.669  20.037  0.00  0.00    +0.000 C 
ATOM     12  H   UNL     1       3.010   9.345  17.558  0.00  0.00    +0.000 HD
ENDROOT
BRANCH   6  13
ATOM     13  N   UNL     1       5.545   5.596  17.444  0.00  0.00    +0.000 N 
ATOM     14  C   UNL     1       5.584   5.378  15.981  0.00  0.00    +0.000 C 
ATOM     15  C   UNL     1       6.529   4.211  15.639  0.00  0.00    +0.000 C 
ATOM     16  O   UNL     1       7.845   4.413  16.181  0.00  0.00    +0.000 OA
ATOM     17  C   UNL     1       7.767   4.514  17.606  0.00  0.00    +0.000 C 
ATOM     18  C   UNL     1       6.886   5.689  18.040  0.00  0.00    +0.000 C 
ENDBRANCH   6  13
BRANCH   1  20
ATOM     19  C   UNL     1       0.422  10.177  18.217  0.00  0.00    +0.000 C 
ATOM     20  N   UNL     1       1.333   9.430  18.767  0.00  0.00    +0.000 NA
BRANCH  19  26
ATOM     21 CL   UNL     1      -4.422  12.178  18.971  0.00  0.00    +0.000 Cl
ATOM     22  C   UNL     1      -2.786  11.840  19.431  0.00  0.00    +0.000 A 
ATOM     23  C   UNL     1      -2.371  12.319  20.678  0.00  0.00    +0.000 A 
ATOM     24  C   UNL     1      -1.071  12.086  21.116  0.00  0.00    +0.000 A 
ATOM     25  C   UNL     1      -0.182  11.380  20.304  0.00  0.00    +0.000 A 
ATOM     26  C   UNL     1      -0.581  10.899  19.044  0.00  0.00    +0.000 A 
ATOM     27  C   UNL     1      -1.897  11.126  18.603  0.00  0.00    +0.000 A 
ATOM     28 CL   UNL     1      -2.435  10.542  17.059  0.00  0.00    +0.000 Cl
ENDBRANCH  19  26
ENDBRANCH   1  20
TORSDOF 3
ENDMDL
MODEL 5
REMARK VINA RESULT:      -8.1      1.600      2.205
REMARK  Name = 
REMARK  3 active torsions:
REMARK  status: ('A' for Active; 'I' for Inactive)
REMARK    1  A    between atoms: C_6  and  C_7
REMARK    2  A    between atoms: N_8  and  N_9
REMARK    3  A    between atoms: C_14  and  N_15
REMARK                            x       y       z     vdW  Elec       q    Type
REMARK                         _______ _______ _______ _____ _____    ______ ____
ROOT
ATOM      1  N   UNL     1       2.563   8.617  17.864  0.00  0.00    +0.000 N 
ATOM      2  C   UNL     1       2.798   7.286  18.280  0.00  0.00    +0.000 A 
ATOM      3  N   UNL     1       1.962   6.705  19.143  0.00  0.00    +0.000 NA
ATOM      4  C   UNL     1       2.231   5.447  19.539  0.00  0.00    +0.000 A 
ATOM      5  C   UNL     1       3.347   4.737  19.094  0.00  0.00    +0.000 A 
ATOM      6  C   UNL     1       4.140   5.373  18.123  0.00  0.00    +0.000 A 
ATOM      7  N   UNL     1       3.860   6.650  17.757  0.00  0.00    +0.000 NA
ATOM      8  C   UNL     1       3.641   3.357  19.614  0.00  0.00    +0.000 C 
ATOM      9  S   UNL     1       2.839   2.847  21.147  0.00  0.00    +0.000 S 
ATOM     10  C   UNL     1       1.190   3.411  20.682  0.00  0.00    +0.000 C 
ATOM     11  C   UNL     1       1.236   4.917  20.541  0.00  0.00    +0.000 C 
ATOM     12  H   UNL     1       3.397   8.940  17.388  0.00  0.00    +0.000 HD
ENDROOT
BRANCH   6  13
ATOM     13  N   UNL     1       5.192   4.783  17.445  0.00  0.00    +0.000 N 
ATOM     14  C   UNL     1       6.499   4.655  18.126  0.00  0.00    +0.000 C 
ATOM     15  C   UNL     1       7.646   4.937  17.139  0.00  0.00    +0.000 C 
ATOM     16  O   UNL     1       7.568   4.097  15.975  0.00  0.00    +0.000 OA
ATOM     17  C   UNL     1       6.333   4.333  15.294  0.00  0.00    +0.000 C 
ATOM     18  C   UNL     1       5.128   4.024  16.188  0.00  0.00    +0.000 C 
ENDBRANCH   6  13
BRANCH   1  20
ATOM     19  C   UNL     1       0.686   9.734  18.450  0.00  0.00    +0.000 C 
ATOM     20  N   UNL     1       1.921   9.454  18.744  0.00  0.00    +0.000 NA
BRANCH  19  26
ATOM     21 CL   UNL     1      -1.459  11.043  23.111  0.00  0.00    +0.000 Cl
ATOM     22  C   UNL     1      -1.131  11.275  21.425  0.00  0.00    +0.000 A 
ATOM     23  C   UNL     1      -1.704  12.400  20.822  0.00  0.00    +0.000 A 
ATOM     24  C   UNL     1      -1.485  12.653  19.471  0.00  0.00    +0.000 A 
ATOM     25  C   UNL     1      -0.698  11.778  18.721  0.00  0.00    +0.000 A 
ATOM     26  C   UNL     1      -0.121  10.640  19.310  0.00  0.00    +0.000 A 
ATOM     27  C   UNL     1      -0.334  10.386  20.677  0.00  0.00    +0.000 A 
ATOM     28 CL   UNL     1       0.367   8.998  21.448  0.00  0.00    +0.000 Cl
ENDBRANCH  19  26
ENDBRANCH   1  20
TORSDOF 3
ENDMDL
MODEL 6
REMARK VINA RESULT:      -8.0      1.409      1.716
REMARK  Name = 
REMARK  3 active torsions:
REMARK  status: ('A' for Active; 'I' for Inactive)
REMARK    1  A    between atoms: C_6  and  C_7
REMARK    2  A    between atoms: N_8  and  N_9
REMARK    3  A    between atoms: C_14  and  N_15
REMARK                            x       y       z     vdW  Elec       q    Type
REMARK                         _______ _______ _______ _____ _____    ______ ____
ROOT
ATOM      1  N   UNL     1       2.197   8.247  18.010  0.00  0.00    +0.000 N 
ATOM      2  C   UNL     1       2.547   6.949  18.449  0.00  0.00    +0.000 A 
ATOM      3  N   UNL     1       1.681   6.240  19.176  0.00  0.00    +0.000 NA
ATOM      4  C   UNL     1       2.058   5.020  19.600  0.00  0.00    +0.000 A 
ATOM      5  C   UNL     1       3.313   4.477  19.323  0.00  0.00    +0.000 A 
ATOM      6  C   UNL     1       4.146   5.238  18.485  0.00  0.00    +0.000 A 
ATOM      7  N   UNL     1       3.751   6.475  18.088  0.00  0.00    +0.000 NA
ATOM      8  C   UNL     1       3.713   3.136  19.874  0.00  0.00    +0.000 C 
ATOM      9  S   UNL     1       2.771   2.484  21.268  0.00  0.00    +0.000 S 
ATOM     10  C   UNL     1       1.147   2.833  20.565  0.00  0.00    +0.000 C 
ATOM     11  C   UNL     1       1.007   4.336  20.440  0.00  0.00    +0.000 C 
ATOM     12  H   UNL     1       3.040   8.690  17.665  0.00  0.00    +0.000 HD
ENDROOT
BRANCH   6  13
ATOM     13  N   UNL     1       5.357   4.812  17.969  0.00  0.00    +0.000 N 
ATOM     14  C   UNL     1       6.562   4.880  18.823  0.00  0.00    +0.000 C 
ATOM     15  C   UNL     1       7.780   5.330  17.996  0.00  0.00    +0.000 C 
ATOM     16  O   UNL     1       7.988   4.488  16.850  0.00  0.00    +0.000 OA
ATOM     17  C   UNL     1       6.837   4.537  16.002  0.00  0.00    +0.000 C 
ATOM     18  C   UNL     1       5.580   4.051  16.730  0.00  0.00    +0.000 C 
ENDBRANCH   6  13
BRANCH   1  20
ATOM     19  C   UNL     1       1.640   9.057  20.047  0.00  0.00    +0.000 C 
ATOM     20  N   UNL     1       1.325   8.967  18.788  0.00  0.00    +0.000 NA
BRANCH  19  26
ATOM     21 CL   UNL     1      -0.450  13.544  21.928  0.00  0.00    +0.000 Cl
ATOM     22  C   UNL     1      -0.202  11.829  21.906  0.00  0.00    +0.000 A 
ATOM     23  C   UNL     1      -0.852  11.086  22.897  0.00  0.00    +0.000 A 
ATOM     24  C   UNL     1      -0.701   9.703  22.942  0.00  0.00    +0.000 A 
ATOM     25  C   UNL     1       0.108   9.063  22.001  0.00  0.00    +0.000 A 
ATOM     26  C   UNL     1       0.774   9.796  21.004  0.00  0.00    +0.000 A 
ATOM     27  C   UNL     1       0.615  11.193  20.951  0.00  0.00    +0.000 A 
ATOM     28 CL   UNL     1       1.412  12.136  19.730  0.00  0.00    +0.000 Cl
ENDBRANCH  19  26
ENDBRANCH   1  20
TORSDOF 3
ENDMDL
MODEL 7
REMARK VINA RESULT:      -8.0      1.423      1.846
REMARK  Name = 
REMARK  3 active torsions:
REMARK  status: ('A' for Active; 'I' for Inactive)
REMARK    1  A    between atoms: C_6  and  C_7
REMARK    2  A    between atoms: N_8  and  N_9
REMARK    3  A    between atoms: C_14  and  N_15
REMARK                            x       y       z     vdW  Elec       q    Type
REMARK                         _______ _______ _______ _____ _____    ______ ____
ROOT
ATOM      1  N   UNL     1       2.100   8.706  17.927  0.00  0.00    +0.000 N 
ATOM      2  C   UNL     1       2.575   7.406  18.217  0.00  0.00    +0.000 A 
ATOM      3  N   UNL     1       1.802   6.554  18.893  0.00  0.00    +0.000 NA
ATOM      4  C   UNL     1       2.296   5.335  19.176  0.00  0.00    +0.000 A 
ATOM      5  C   UNL     1       3.579   4.934  18.801  0.00  0.00    +0.000 A 
ATOM      6  C   UNL     1       4.310   5.845  18.020  0.00  0.00    +0.000 A 
ATOM      7  N   UNL     1       3.798   7.077  17.768  0.00  0.00    +0.000 NA
ATOM      8  C   UNL     1       4.112   3.584  19.196  0.00  0.00    +0.000 C 
ATOM      9  S   UNL     1       3.287   2.715  20.545  0.00  0.00    +0.000 S 
ATOM     10  C   UNL     1       1.611   2.991  19.936  0.00  0.00    +0.000 C 
ATOM     11  C   UNL     1       1.342   4.481  19.974  0.00  0.00    +0.000 C 
ATOM     12  H   UNL     1       2.888   9.253  17.603  0.00  0.00    +0.000 HD
ENDROOT
BRANCH   6  13
ATOM     13  N   UNL     1       5.529   5.580  17.422  0.00  0.00    +0.000 N 
ATOM     14  C   UNL     1       5.586   5.433  15.951  0.00  0.00    +0.000 C 
ATOM     15  C   UNL     1       6.553   4.298  15.564  0.00  0.00    +0.000 C 
ATOM     16  O   UNL     1       7.859   4.493  16.131  0.00  0.00    +0.000 OA
ATOM     17  C   UNL     1       7.765   4.524  17.557  0.00  0.00    +0.000 C 
ATOM     18  C   UNL     1       6.862   5.664  18.038  0.00  0.00    +0.000 C 
ENDBRANCH   6  13
BRANCH   1  20
ATOM     19  C   UNL     1       0.981  10.536  18.643  0.00  0.00    +0.000 C 
ATOM     20  N   UNL     1       1.205   9.265  18.805  0.00  0.00    +0.000 NA
BRANCH  19  26
ATOM     21 CL   UNL     1      -1.466  11.205  23.292  0.00  0.00    +0.000 Cl
ATOM     22  C   UNL     1      -1.108  11.611  21.645  0.00  0.00    +0.000 A 
ATOM     23  C   UNL     1      -1.787  12.709  21.106  0.00  0.00    +0.000 A 
ATOM     24  C   UNL     1      -1.551  13.095  19.790  0.00  0.00    +0.000 A 
ATOM     25  C   UNL     1      -0.642  12.380  19.010  0.00  0.00    +0.000 A 
ATOM     26  C   UNL     1       0.044  11.270  19.535  0.00  0.00    +0.000 A 
ATOM     27  C   UNL     1      -0.187  10.883  20.867  0.00  0.00    +0.000 A 
ATOM     28 CL   UNL     1       0.645   9.525  21.559  0.00  0.00    +0.000 Cl
ENDBRANCH  19  26
ENDBRANCH   1  20
TORSDOF 3
ENDMDL
MODEL 8
REMARK VINA RESULT:      -7.9      1.793      2.232
REMARK  Name = 
REMARK  3 active torsions:
REMARK  status: ('A' for Active; 'I' for Inactive)
REMARK    1  A    between atoms: C_6  and  C_7
REMARK    2  A    between atoms: N_8  and  N_9
REMARK    3  A    between atoms: C_14  and  N_15
REMARK                            x       y       z     vdW  Elec       q    Type
REMARK                         _______ _______ _______ _____ _____    ______ ____
ROOT
ATOM      1  N   UNL     1       2.330   8.341  17.899  0.00  0.00    +0.000 N 
ATOM      2  C   UNL     1       2.638   7.040  18.356  0.00  0.00    +0.000 A 
ATOM      3  N   UNL     1       1.765   6.383  19.123  0.00  0.00    +0.000 NA
ATOM      4  C   UNL     1       2.102   5.157  19.562  0.00  0.00    +0.000 A 
ATOM      5  C   UNL     1       3.325   4.555  19.259  0.00  0.00    +0.000 A 
ATOM      6  C   UNL     1       4.163   5.262  18.381  0.00  0.00    +0.000 A 
ATOM      7  N   UNL     1       3.809   6.506  17.969  0.00  0.00    +0.000 NA
ATOM      8  C   UNL     1       3.684   3.210  19.827  0.00  0.00    +0.000 C 
ATOM      9  S   UNL     1       2.759   2.628  21.263  0.00  0.00    +0.000 S 
ATOM     10  C   UNL     1       1.130   3.031  20.601  0.00  0.00    +0.000 C 
ATOM     11  C   UNL     1       1.050   4.536  20.448  0.00  0.00    +0.000 C 
ATOM     12  H   UNL     1       3.180   8.741  17.520  0.00  0.00    +0.000 HD
ENDROOT
BRANCH   6  13
ATOM     13  N   UNL     1       5.338   4.774  17.838  0.00  0.00    +0.000 N 
ATOM     14  C   UNL     1       6.554   4.738  18.680  0.00  0.00    +0.000 C 
ATOM     15  C   UNL     1       7.790   5.133  17.851  0.00  0.00    +0.000 C 
ATOM     16  O   UNL     1       7.931   4.313  16.679  0.00  0.00    +0.000 OA
ATOM     17  C   UNL     1       6.777   4.462  15.847  0.00  0.00    +0.000 C 
ATOM     18  C   UNL     1       5.499   4.037  16.576  0.00  0.00    +0.000 C 
ENDBRANCH   6  13
BRANCH   1  20
ATOM     19  C   UNL     1       1.487  10.381  18.394  0.00  0.00    +0.000 C 
ATOM     20  N   UNL     1       1.513   9.114  18.687  0.00  0.00    +0.000 NA
BRANCH  19  26
ATOM     21 CL   UNL     1       0.196  15.291  19.899  0.00  0.00    +0.000 Cl
ATOM     22  C   UNL     1       0.033  13.566  19.902  0.00  0.00    +0.000 A 
ATOM     23  C   UNL     1      -0.950  13.028  20.740  0.00  0.00    +0.000 A 
ATOM     24  C   UNL     1      -1.140  11.651  20.795  0.00  0.00    +0.000 A 
ATOM     25  C   UNL     1      -0.342  10.809  20.018  0.00  0.00    +0.000 A 
ATOM     26  C   UNL     1       0.655  11.333  19.177  0.00  0.00    +0.000 A 
ATOM     27  C   UNL     1       0.843  12.726  19.113  0.00  0.00    +0.000 A 
ATOM     28 CL   UNL     1       2.056  13.417  18.081  0.00  0.00    +0.000 Cl
ENDBRANCH  19  26
ENDBRANCH   1  20
TORSDOF 3
ENDMDL
MODEL 9
REMARK VINA RESULT:      -7.8      1.736      1.791
REMARK  Name = 
REMARK  3 active torsions:
REMARK  status: ('A' for Active; 'I' for Inactive)
REMARK    1  A    between atoms: C_6  and  C_7
REMARK    2  A    between atoms: N_8  and  N_9
REMARK    3  A    between atoms: C_14  and  N_15
REMARK                            x       y       z     vdW  Elec       q    Type
REMARK                         _______ _______ _______ _____ _____    ______ ____
ROOT
ATOM      1  N   UNL     1       2.212   8.860  17.908  0.00  0.00    +0.000 N 
ATOM      2  C   UNL     1       2.647   7.549  18.212  0.00  0.00    +0.000 A 
ATOM      3  N   UNL     1       1.857   6.736  18.916  0.00  0.00    +0.000 NA
ATOM      4  C   UNL     1       2.314   5.505  19.211  0.00  0.00    +0.000 A 
ATOM      5  C   UNL     1       3.576   5.054  18.822  0.00  0.00    +0.000 A 
ATOM      6  C   UNL     1       4.324   5.926  18.013  0.00  0.00    +0.000 A 
ATOM      7  N   UNL     1       3.850   7.170  17.748  0.00  0.00    +0.000 NA
ATOM      8  C   UNL     1       4.069   3.693  19.231  0.00  0.00    +0.000 C 
ATOM      9  S   UNL     1       3.238   2.876  20.609  0.00  0.00    +0.000 S 
ATOM     10  C   UNL     1       1.562   3.199  20.024  0.00  0.00    +0.000 C 
ATOM     11  C   UNL     1       1.345   4.698  20.040  0.00  0.00    +0.000 C 
ATOM     12  H   UNL     1       3.013   9.374  17.561  0.00  0.00    +0.000 HD
ENDROOT
BRANCH   6  13
ATOM     13  N   UNL     1       5.523   5.609  17.400  0.00  0.00    +0.000 N 
ATOM     14  C   UNL     1       5.539   5.382  15.938  0.00  0.00    +0.000 C 
ATOM     15  C   UNL     1       6.478   4.213  15.588  0.00  0.00    +0.000 C 
ATOM     16  O   UNL     1       7.802   4.416  16.110  0.00  0.00    +0.000 OA
ATOM     17  C   UNL     1       7.745   4.525  17.535  0.00  0.00    +0.000 C 
ATOM     18  C   UNL     1       6.872   5.704  17.976  0.00  0.00    +0.000 C 
ENDBRANCH   6  13
BRANCH   1  20
ATOM     19  C   UNL     1       1.178  10.742  18.618  0.00  0.00    +0.000 C 
ATOM     20  N   UNL     1       1.352   9.464  18.791  0.00  0.00    +0.000 NA
BRANCH  19  26
ATOM     21 CL   UNL     1       0.350  14.525  22.229  0.00  0.00    +0.000 Cl
ATOM     22  C   UNL     1      -0.143  13.241  21.175  0.00  0.00    +0.000 A 
ATOM     23  C   UNL     1      -1.499  12.894  21.196  0.00  0.00    +0.000 A 
ATOM     24  C   UNL     1      -1.969  11.873  20.377  0.00  0.00    +0.000 A 
ATOM     25  C   UNL     1      -1.083  11.192  19.541  0.00  0.00    +0.000 A 
ATOM     26  C   UNL     1       0.283  11.522  19.513  0.00  0.00    +0.000 A 
ATOM     27  C   UNL     1       0.759  12.560  20.334  0.00  0.00    +0.000 A 
ATOM     28 CL   UNL     1       2.436  13.009  20.325  0.00  0.00    +0.000 Cl
ENDBRANCH  19  26
ENDBRANCH   1  20
TORSDOF 3
ENDMDL
