MODEL 1
REMARK VINA RESULT:      -7.7      0.000      0.000
REMARK  Name = 
REMARK  9 active torsions:
REMARK  status: ('A' for Active; 'I' for Inactive)
REMARK    1  A    between atoms: C_1  and  O_2
REMARK    2  A    between atoms: O_2  and  C_3
REMARK    3  A    between atoms: C_5  and  N_6
REMARK    4  A    between atoms: C_11  and  C_12
REMARK    5  A    between atoms: C_15  and  N_16
REMARK    6  A    between atoms: C_27  and  O_28
REMARK    7  A    between atoms: O_28  and  C_29
REMARK    8  A    between atoms: C_29  and  C_30
REMARK    9  A    between atoms: C_30  and  N_31
REMARK                            x       y       z     vdW  Elec       q    Type
REMARK                         _______ _______ _______ _____ _____    ______ ____
ROOT
ATOM      1  N   UNL     1       2.059   8.202  19.105  0.00  0.00    +0.000 N 
ATOM      2  C   UNL     1       2.017   9.287  18.233  0.00  0.00    +0.000 A 
ATOM      3  N   UNL     1       1.462  10.441  18.438  0.00  0.00    +0.000 NA
ATOM      4  C   UNL     1       0.840  10.538  19.687  0.00  0.00    +0.000 A 
ATOM      5  C   UNL     1       0.154  11.683  20.147  0.00  0.00    +0.000 A 
ATOM      6  C   UNL     1      -0.358  11.494  21.423  0.00  0.00    +0.000 A 
ATOM      7  S   UNL     1       0.012   9.915  22.010  0.00  0.00    +0.000 S 
ATOM      8  C   UNL     1       0.835   9.528  20.599  0.00  0.00    +0.000 A 
ATOM      9  C   UNL     1       1.457   8.259  20.366  0.00  0.00    +0.000 A 
ATOM     10  O   UNL     1       1.409   7.330  21.171  0.00  0.00    +0.000 OA
ENDROOT
BRANCH   1  13
ATOM     11  C   UNL     1       4.509   5.394  18.857  0.00  0.00    +0.000 A 
ATOM     12  C   UNL     1       3.892   6.592  19.238  0.00  0.00    +0.000 A 
ATOM     13  C   UNL     1       2.657   6.984  18.702  0.00  0.00    +0.000 A 
ATOM     14  C   UNL     1       1.993   6.146  17.818  0.00  0.00    +0.000 A 
ATOM     15  C   UNL     1       2.553   4.916  17.497  0.00  0.00    +0.000 A 
ATOM     16  C   UNL     1       3.828   4.543  17.964  0.00  0.00    +0.000 A 
BRANCH  11  18
ATOM     17  C   UNL     1       6.898   5.651  18.723  0.00  0.00    +0.000 C 
ATOM     18  O   UNL     1       5.752   5.018  19.299  0.00  0.00    +0.000 OA
ENDBRANCH  11  18
BRANCH  16  19
ATOM     19  O   UNL     1       4.440   3.367  17.561  0.00  0.00    +0.000 OA
BRANCH  19  20
ATOM     20  C   UNL     1       3.972   2.201  18.263  0.00  0.00    +0.000 C 
BRANCH  20  21
ATOM     21  C   UNL     1       2.442   2.119  18.343  0.00  0.00    +0.000 C 
BRANCH  21  22
ATOM     22  N   UNL     1       1.969   1.953  19.735  0.00  0.00    +0.000 NA
ATOM     23  C   UNL     1       0.650   2.541  20.016  0.00  0.00    +0.000 C 
ATOM     24  C   UNL     1       0.933   3.964  20.448  0.00  0.00    +0.000 C 
ATOM     25  C   UNL     1       2.227   3.841  21.226  0.00  0.00    +0.000 C 
ATOM     26  C   UNL     1       2.892   2.572  20.699  0.00  0.00    +0.000 C 
ENDBRANCH  21  22
ENDBRANCH  20  21
ENDBRANCH  19  20
ENDBRANCH  16  19
ENDBRANCH   1  13
BRANCH   6  27
ATOM     27  C   UNL     1      -1.085  12.431  22.288  0.00  0.00    +0.000 A 
ATOM     28  C   UNL     1      -0.611  13.732  22.536  0.00  0.00    +0.000 A 
ATOM     29  C   UNL     1      -1.345  14.627  23.319  0.00  0.00    +0.000 A 
ATOM     30  C   UNL     1      -2.559  14.216  23.876  0.00  0.00    +0.000 A 
ATOM     31  C   UNL     1      -3.041  12.921  23.652  0.00  0.00    +0.000 A 
ATOM     32  C   UNL     1      -2.304  12.038  22.861  0.00  0.00    +0.000 A 
BRANCH  30  33
ATOM     33  N   UNL     1      -3.338  15.151  24.694  0.00  0.00    +0.000 N 
ATOM     34  O   UNL     1      -2.782  15.661  25.676  0.00  0.00    +0.000 OA
ATOM     35  O   UNL     1      -4.510  15.372  24.354  0.00  0.00    +0.000 OA
ENDBRANCH  30  33
ENDBRANCH   6  27
TORSDOF 8
ENDMDL
MODEL 2
REMARK VINA RESULT:      -7.6      3.559      4.605
REMARK  Name = 
REMARK  9 active torsions:
REMARK  status: ('A' for Active; 'I' for Inactive)
REMARK    1  A    between atoms: C_1  and  O_2
REMARK    2  A    between atoms: O_2  and  C_3
REMARK    3  A    between atoms: C_5  and  N_6
REMARK    4  A    between atoms: C_11  and  C_12
REMARK    5  A    between atoms: C_15  and  N_16
REMARK    6  A    between atoms: C_27  and  O_28
REMARK    7  A    between atoms: O_28  and  C_29
REMARK    8  A    between atoms: C_29  and  C_30
REMARK    9  A    between atoms: C_30  and  N_31
REMARK                            x       y       z     vdW  Elec       q    Type
REMARK                         _______ _______ _______ _____ _____    ______ ____
ROOT
ATOM      1  N   UNL     1       2.491   7.342  18.962  0.00  0.00    +0.000 N 
ATOM      2  C   UNL     1       2.140   6.846  20.215  0.00  0.00    +0.000 A 
ATOM      3  N   UNL     1       1.345   7.391  21.083  0.00  0.00    +0.000 NA
ATOM      4  C   UNL     1       0.827   8.619  20.660  0.00  0.00    +0.000 A 
ATOM      5  C   UNL     1      -0.050   9.418  21.424  0.00  0.00    +0.000 A 
ATOM      6  C   UNL     1      -0.403  10.579  20.750  0.00  0.00    +0.000 A 
ATOM      7  S   UNL     1       0.361  10.653  19.206  0.00  0.00    +0.000 S 
ATOM      8  C   UNL     1       1.116   9.174  19.451  0.00  0.00    +0.000 A 
ATOM      9  C   UNL     1       1.989   8.561  18.496  0.00  0.00    +0.000 A 
ATOM     10  O   UNL     1       2.289   9.088  17.425  0.00  0.00    +0.000 OA
ENDROOT
BRANCH   1  13
ATOM     11  C   UNL     1       5.593   6.579  17.027  0.00  0.00    +0.000 A 
ATOM     12  C   UNL     1       4.651   7.241  17.824  0.00  0.00    +0.000 A 
ATOM     13  C   UNL     1       3.425   6.648  18.155  0.00  0.00    +0.000 A 
ATOM     14  C   UNL     1       3.152   5.352  17.740  0.00  0.00    +0.000 A 
ATOM     15  C   UNL     1       4.112   4.653  17.021  0.00  0.00    +0.000 A 
ATOM     16  C   UNL     1       5.314   5.261  16.612  0.00  0.00    +0.000 A 
BRANCH  11  18
ATOM     17  C   UNL     1       7.664   7.656  17.612  0.00  0.00    +0.000 C 
ATOM     18  O   UNL     1       6.766   7.159  16.616  0.00  0.00    +0.000 OA
ENDBRANCH  11  18
BRANCH  16  19
ATOM     19  O   UNL     1       6.229   4.607  15.802  0.00  0.00    +0.000 OA
BRANCH  19  20
ATOM     20  C   UNL     1       5.973   4.765  14.395  0.00  0.00    +0.000 C 
BRANCH  20  21
ATOM     21  C   UNL     1       5.664   3.440  13.686  0.00  0.00    +0.000 C 
BRANCH  21  22
ATOM     22  N   UNL     1       5.797   3.555  12.217  0.00  0.00    +0.000 NA
ATOM     23  C   UNL     1       5.004   2.586  11.445  0.00  0.00    +0.000 C 
ATOM     24  C   UNL     1       5.904   1.380  11.275  0.00  0.00    +0.000 C 
ATOM     25  C   UNL     1       7.280   1.993  11.113  0.00  0.00    +0.000 C 
ATOM     26  C   UNL     1       7.190   3.362  11.781  0.00  0.00    +0.000 C 
ENDBRANCH  21  22
ENDBRANCH  20  21
ENDBRANCH  19  20
ENDBRANCH  16  19
ENDBRANCH   1  13
BRANCH   6  27
ATOM     27  C   UNL     1      -1.323  11.651  21.150  0.00  0.00    +0.000 A 
ATOM     28  C   UNL     1      -2.110  12.343  20.213  0.00  0.00    +0.000 A 
ATOM     29  C   UNL     1      -3.018  13.323  20.620  0.00  0.00    +0.000 A 
ATOM     30  C   UNL     1      -3.134  13.628  21.979  0.00  0.00    +0.000 A 
ATOM     31  C   UNL     1      -2.351  12.961  22.927  0.00  0.00    +0.000 A 
ATOM     32  C   UNL     1      -1.452  11.977  22.509  0.00  0.00    +0.000 A 
BRANCH  30  33
ATOM     33  N   UNL     1      -4.090  14.652  22.417  0.00  0.00    +0.000 N 
ATOM     34  O   UNL     1      -4.914  14.337  23.286  0.00  0.00    +0.000 OA
ATOM     35  O   UNL     1      -4.015  15.770  21.888  0.00  0.00    +0.000 OA
ENDBRANCH  30  33
ENDBRANCH   6  27
TORSDOF 8
ENDMDL
MODEL 3
REMARK VINA RESULT:      -7.6      0.787      1.003
REMARK  Name = 
REMARK  9 active torsions:
REMARK  status: ('A' for Active; 'I' for Inactive)
REMARK    1  A    between atoms: C_1  and  O_2
REMARK    2  A    between atoms: O_2  and  C_3
REMARK    3  A    between atoms: C_5  and  N_6
REMARK    4  A    between atoms: C_11  and  C_12
REMARK    5  A    between atoms: C_15  and  N_16
REMARK    6  A    between atoms: C_27  and  O_28
REMARK    7  A    between atoms: O_28  and  C_29
REMARK    8  A    between atoms: C_29  and  C_30
REMARK    9  A    between atoms: C_30  and  N_31
REMARK                            x       y       z     vdW  Elec       q    Type
REMARK                         _______ _______ _______ _____ _____    ______ ____
ROOT
ATOM      1  N   UNL     1       1.990   8.420  18.774  0.00  0.00    +0.000 N 
ATOM      2  C   UNL     1       1.909   9.536  17.945  0.00  0.00    +0.000 A 
ATOM      3  N   UNL     1       1.378  10.686  18.222  0.00  0.00    +0.000 NA
ATOM      4  C   UNL     1       0.831  10.744  19.507  0.00  0.00    +0.000 A 
ATOM      5  C   UNL     1       0.184  11.878  20.046  0.00  0.00    +0.000 A 
ATOM      6  C   UNL     1      -0.255  11.647  21.343  0.00  0.00    +0.000 A 
ATOM      7  S   UNL     1       0.133  10.046  21.851  0.00  0.00    +0.000 S 
ATOM      8  C   UNL     1       0.869   9.702  20.382  0.00  0.00    +0.000 A 
ATOM      9  C   UNL     1       1.464   8.438  20.069  0.00  0.00    +0.000 A 
ATOM     10  O   UNL     1       1.453   7.481  20.843  0.00  0.00    +0.000 OA
ENDROOT
BRANCH   1  13
ATOM     11  C   UNL     1       4.523   5.920  17.643  0.00  0.00    +0.000 A 
ATOM     12  C   UNL     1       3.939   7.101  18.117  0.00  0.00    +0.000 A 
ATOM     13  C   UNL     1       2.553   7.213  18.294  0.00  0.00    +0.000 A 
ATOM     14  C   UNL     1       1.737   6.117  18.056  0.00  0.00    +0.000 A 
ATOM     15  C   UNL     1       2.312   4.914  17.667  0.00  0.00    +0.000 A 
ATOM     16  C   UNL     1       3.692   4.807  17.408  0.00  0.00    +0.000 A 
BRANCH  11  18
ATOM     17  C   UNL     1       6.644   6.994  17.268  0.00  0.00    +0.000 C 
ATOM     18  O   UNL     1       5.865   5.800  17.381  0.00  0.00    +0.000 OA
ENDBRANCH  11  18
BRANCH  16  19
ATOM     19  O   UNL     1       4.257   3.641  16.915  0.00  0.00    +0.000 OA
BRANCH  19  20
ATOM     20  C   UNL     1       4.097   2.507  17.787  0.00  0.00    +0.000 C 
BRANCH  20  21
ATOM     21  C   UNL     1       4.049   2.890  19.272  0.00  0.00    +0.000 C 
BRANCH  21  22
ATOM     22  N   UNL     1       3.118   2.030  20.035  0.00  0.00    +0.000 NA
ATOM     23  C   UNL     1       1.795   1.849  19.419  0.00  0.00    +0.000 C 
ATOM     24  C   UNL     1       0.946   2.980  19.959  0.00  0.00    +0.000 C 
ATOM     25  C   UNL     1       1.440   3.138  21.383  0.00  0.00    +0.000 C 
ATOM     26  C   UNL     1       2.858   2.571  21.378  0.00  0.00    +0.000 C 
ENDBRANCH  21  22
ENDBRANCH  20  21
ENDBRANCH  19  20
ENDBRANCH  16  19
ENDBRANCH   1  13
BRANCH   6  27
ATOM     27  C   UNL     1      -0.921  12.559  22.281  0.00  0.00    +0.000 A 
ATOM     28  C   UNL     1      -0.398  13.830  22.579  0.00  0.00    +0.000 A 
ATOM     29  C   UNL     1      -1.075  14.704  23.433  0.00  0.00    +0.000 A 
ATOM     30  C   UNL     1      -2.282  14.301  24.011  0.00  0.00    +0.000 A 
ATOM     31  C   UNL     1      -2.813  13.035  23.738  0.00  0.00    +0.000 A 
ATOM     32  C   UNL     1      -2.132  12.174  22.876  0.00  0.00    +0.000 A 
BRANCH  30  33
ATOM     33  N   UNL     1      -3.002  15.214  24.904  0.00  0.00    +0.000 N 
ATOM     34  O   UNL     1      -4.154  15.542  24.588  0.00  0.00    +0.000 OA
ATOM     35  O   UNL     1      -2.413  15.604  25.923  0.00  0.00    +0.000 OA
ENDBRANCH  30  33
ENDBRANCH   6  27
TORSDOF 8
ENDMDL
MODEL 4
REMARK VINA RESULT:      -7.5      0.737      1.135
REMARK  Name = 
REMARK  9 active torsions:
REMARK  status: ('A' for Active; 'I' for Inactive)
REMARK    1  A    between atoms: C_1  and  O_2
REMARK    2  A    between atoms: O_2  and  C_3
REMARK    3  A    between atoms: C_5  and  N_6
REMARK    4  A    between atoms: C_11  and  C_12
REMARK    5  A    between atoms: C_15  and  N_16
REMARK    6  A    between atoms: C_27  and  O_28
REMARK    7  A    between atoms: O_28  and  C_29
REMARK    8  A    between atoms: C_29  and  C_30
REMARK    9  A    between atoms: C_30  and  N_31
REMARK                            x       y       z     vdW  Elec       q    Type
REMARK                         _______ _______ _______ _____ _____    ______ ____
ROOT
ATOM      1  N   UNL     1       2.061   8.292  18.776  0.00  0.00    +0.000 N 
ATOM      2  C   UNL     1       2.024   9.395  17.926  0.00  0.00    +0.000 A 
ATOM      3  N   UNL     1       1.511  10.560  18.171  0.00  0.00    +0.000 NA
ATOM      4  C   UNL     1       0.933  10.651  19.441  0.00  0.00    +0.000 A 
ATOM      5  C   UNL     1       0.298  11.807  19.945  0.00  0.00    +0.000 A 
ATOM      6  C   UNL     1      -0.179  11.608  21.233  0.00  0.00    +0.000 A 
ATOM      7  S   UNL     1       0.162  10.007  21.778  0.00  0.00    +0.000 S 
ATOM      8  C   UNL     1       0.927   9.624  20.334  0.00  0.00    +0.000 A 
ATOM      9  C   UNL     1       1.502   8.343  20.057  0.00  0.00    +0.000 A 
ATOM     10  O   UNL     1       1.452   7.399  20.846  0.00  0.00    +0.000 OA
ENDROOT
BRANCH   1  13
ATOM     11  C   UNL     1       4.563   5.641  17.964  0.00  0.00    +0.000 A 
ATOM     12  C   UNL     1       3.992   6.843  18.398  0.00  0.00    +0.000 A 
ATOM     13  C   UNL     1       2.610   7.065  18.331  0.00  0.00    +0.000 A 
ATOM     14  C   UNL     1       1.771   6.055  17.881  0.00  0.00    +0.000 A 
ATOM     15  C   UNL     1       2.316   4.827  17.528  0.00  0.00    +0.000 A 
ATOM     16  C   UNL     1       3.707   4.615  17.514  0.00  0.00    +0.000 A 
BRANCH  11  18
ATOM     17  C   UNL     1       6.696   6.088  16.943  0.00  0.00    +0.000 C 
ATOM     18  O   UNL     1       5.917   5.420  17.939  0.00  0.00    +0.000 OA
ENDBRANCH  11  18
BRANCH  16  19
ATOM     19  O   UNL     1       4.264   3.431  17.059  0.00  0.00    +0.000 OA
BRANCH  19  20
ATOM     20  C   UNL     1       3.939   2.289  17.872  0.00  0.00    +0.000 C 
BRANCH  20  21
ATOM     21  C   UNL     1       4.034   2.574  19.377  0.00  0.00    +0.000 C 
BRANCH  21  22
ATOM     22  N   UNL     1       2.955   1.903  20.136  0.00  0.00    +0.000 NA
ATOM     23  C   UNL     1       1.632   1.937  19.494  0.00  0.00    +0.000 C 
ATOM     24  C   UNL     1       0.979   3.208  19.994  0.00  0.00    +0.000 C 
ATOM     25  C   UNL     1       1.467   3.311  21.425  0.00  0.00    +0.000 C 
ATOM     26  C   UNL     1       2.766   2.511  21.463  0.00  0.00    +0.000 C 
ENDBRANCH  21  22
ENDBRANCH  20  21
ENDBRANCH  19  20
ENDBRANCH  16  19
ENDBRANCH   1  13
BRANCH   6  27
ATOM     27  C   UNL     1      -0.849  12.549  22.139  0.00  0.00    +0.000 A 
ATOM     28  C   UNL     1      -2.012  12.199  22.848  0.00  0.00    +0.000 A 
ATOM     29  C   UNL     1      -2.604  13.091  23.746  0.00  0.00    +0.000 A 
ATOM     30  C   UNL     1      -2.037  14.356  23.929  0.00  0.00    +0.000 A 
ATOM     31  C   UNL     1      -0.888  14.729  23.223  0.00  0.00    +0.000 A 
ATOM     32  C   UNL     1      -0.301  13.826  22.335  0.00  0.00    +0.000 A 
BRANCH  30  33
ATOM     33  N   UNL     1      -2.648  15.297  24.873  0.00  0.00    +0.000 N 
ATOM     34  O   UNL     1      -2.328  15.206  26.066  0.00  0.00    +0.000 OA
ATOM     35  O   UNL     1      -3.450  16.126  24.420  0.00  0.00    +0.000 OA
ENDBRANCH  30  33
ENDBRANCH   6  27
TORSDOF 8
ENDMDL
MODEL 5
REMARK VINA RESULT:      -7.5      1.423      1.819
REMARK  Name = 
REMARK  9 active torsions:
REMARK  status: ('A' for Active; 'I' for Inactive)
REMARK    1  A    between atoms: C_1  and  O_2
REMARK    2  A    between atoms: O_2  and  C_3
REMARK    3  A    between atoms: C_5  and  N_6
REMARK    4  A    between atoms: C_11  and  C_12
REMARK    5  A    between atoms: C_15  and  N_16
REMARK    6  A    between atoms: C_27  and  O_28
REMARK    7  A    between atoms: O_28  and  C_29
REMARK    8  A    between atoms: C_29  and  C_30
REMARK    9  A    between atoms: C_30  and  N_31
REMARK                            x       y       z     vdW  Elec       q    Type
REMARK                         _______ _______ _______ _____ _____    ______ ____
ROOT
ATOM      1  N   UNL     1       1.335   8.858  19.307  0.00  0.00    +0.000 N 
ATOM      2  C   UNL     1       0.748   9.529  18.238  0.00  0.00    +0.000 A 
ATOM      3  N   UNL     1      -0.124  10.488  18.293  0.00  0.00    +0.000 NA
ATOM      4  C   UNL     1      -0.484  10.831  19.599  0.00  0.00    +0.000 A 
ATOM      5  C   UNL     1      -1.422  11.833  19.930  0.00  0.00    +0.000 A 
ATOM      6  C   UNL     1      -1.576  11.956  21.304  0.00  0.00    +0.000 A 
ATOM      7  S   UNL     1      -0.571  10.832  22.141  0.00  0.00    +0.000 S 
ATOM      8  C   UNL     1       0.043  10.228  20.701  0.00  0.00    +0.000 A 
ATOM      9  C   UNL     1       1.010   9.175  20.630  0.00  0.00    +0.000 A 
ATOM     10  O   UNL     1       1.448   8.598  21.625  0.00  0.00    +0.000 OA
ENDROOT
BRANCH   1  13
ATOM     11  C   UNL     1       3.968   6.756  17.698  0.00  0.00    +0.000 A 
ATOM     12  C   UNL     1       3.074   7.802  17.954  0.00  0.00    +0.000 A 
ATOM     13  C   UNL     1       2.230   7.787  19.074  0.00  0.00    +0.000 A 
ATOM     14  C   UNL     1       2.316   6.746  19.987  0.00  0.00    +0.000 A 
ATOM     15  C   UNL     1       3.258   5.745  19.789  0.00  0.00    +0.000 A 
ATOM     16  C   UNL     1       4.057   5.704  18.631  0.00  0.00    +0.000 A 
BRANCH  11  18
ATOM     17  C   UNL     1       6.144   6.992  16.697  0.00  0.00    +0.000 C 
ATOM     18  O   UNL     1       4.750   6.698  16.571  0.00  0.00    +0.000 OA
ENDBRANCH  11  18
BRANCH  16  19
ATOM     19  O   UNL     1       4.921   4.651  18.373  0.00  0.00    +0.000 OA
BRANCH  19  20
ATOM     20  C   UNL     1       4.416   3.371  18.794  0.00  0.00    +0.000 C 
BRANCH  20  21
ATOM     21  C   UNL     1       3.160   2.937  18.026  0.00  0.00    +0.000 C 
BRANCH  21  22
ATOM     22  N   UNL     1       2.304   2.037  18.830  0.00  0.00    +0.000 NA
ATOM     23  C   UNL     1       0.861   2.311  18.740  0.00  0.00    +0.000 C 
ATOM     24  C   UNL     1       0.576   3.310  19.841  0.00  0.00    +0.000 C 
ATOM     25  C   UNL     1       1.505   2.875  20.955  0.00  0.00    +0.000 C 
ATOM     26  C   UNL     1       2.632   2.113  20.262  0.00  0.00    +0.000 C 
ENDBRANCH  21  22
ENDBRANCH  20  21
ENDBRANCH  19  20
ENDBRANCH  16  19
ENDBRANCH   1  13
BRANCH   6  27
ATOM     27  C   UNL     1      -2.400  12.897  22.072  0.00  0.00    +0.000 A 
ATOM     28  C   UNL     1      -2.974  12.545  23.307  0.00  0.00    +0.000 A 
ATOM     29  C   UNL     1      -3.711  13.473  24.048  0.00  0.00    +0.000 A 
ATOM     30  C   UNL     1      -3.891  14.764  23.545  0.00  0.00    +0.000 A 
ATOM     31  C   UNL     1      -3.339  15.131  22.312  0.00  0.00    +0.000 A 
ATOM     32  C   UNL     1      -2.598  14.198  21.584  0.00  0.00    +0.000 A 
BRANCH  30  33
ATOM     33  N   UNL     1      -4.658  15.747  24.319  0.00  0.00    +0.000 N 
ATOM     34  O   UNL     1      -5.884  15.780  24.154  0.00  0.00    +0.000 OA
ATOM     35  O   UNL     1      -4.029  16.486  25.090  0.00  0.00    +0.000 OA
ENDBRANCH  30  33
ENDBRANCH   6  27
TORSDOF 8
ENDMDL
MODEL 6
REMARK VINA RESULT:      -7.5      2.197     11.423
REMARK  Name = 
REMARK  9 active torsions:
REMARK  status: ('A' for Active; 'I' for Inactive)
REMARK    1  A    between atoms: C_1  and  O_2
REMARK    2  A    between atoms: O_2  and  C_3
REMARK    3  A    between atoms: C_5  and  N_6
REMARK    4  A    between atoms: C_11  and  C_12
REMARK    5  A    between atoms: C_15  and  N_16
REMARK    6  A    between atoms: C_27  and  O_28
REMARK    7  A    between atoms: O_28  and  C_29
REMARK    8  A    between atoms: C_29  and  C_30
REMARK    9  A    between atoms: C_30  and  N_31
REMARK                            x       y       z     vdW  Elec       q    Type
REMARK                         _______ _______ _______ _____ _____    ______ ____
ROOT
ATOM      1  N   UNL     1      -0.863  11.700  21.565  0.00  0.00    +0.000 N 
ATOM      2  C   UNL     1      -0.912  12.054  20.219  0.00  0.00    +0.000 A 
ATOM      3  N   UNL     1      -0.364  11.434  19.221  0.00  0.00    +0.000 NA
ATOM      4  C   UNL     1       0.355  10.298  19.606  0.00  0.00    +0.000 A 
ATOM      5  C   UNL     1       1.055   9.458  18.713  0.00  0.00    +0.000 A 
ATOM      6  C   UNL     1       1.672   8.407  19.378  0.00  0.00    +0.000 A 
ATOM      7  S   UNL     1       1.380   8.492  21.075  0.00  0.00    +0.000 S 
ATOM      8  C   UNL     1       0.453   9.880  20.898  0.00  0.00    +0.000 A 
ATOM      9  C   UNL     1      -0.162  10.568  21.993  0.00  0.00    +0.000 A 
ATOM     10  O   UNL     1      -0.032  10.216  23.165  0.00  0.00    +0.000 OA
ENDROOT
BRANCH   1  13
ATOM     11  C   UNL     1      -1.366  14.473  24.014  0.00  0.00    +0.000 A 
ATOM     12  C   UNL     1      -0.791  13.642  23.045  0.00  0.00    +0.000 A 
ATOM     13  C   UNL     1      -1.470  12.523  22.543  0.00  0.00    +0.000 A 
ATOM     14  C   UNL     1      -2.766  12.258  22.963  0.00  0.00    +0.000 A 
ATOM     15  C   UNL     1      -3.379  13.123  23.860  0.00  0.00    +0.000 A 
ATOM     16  C   UNL     1      -2.684  14.204  24.434  0.00  0.00    +0.000 A 
BRANCH  11  18
ATOM     17  C   UNL     1      -0.223  16.573  23.735  0.00  0.00    +0.000 C 
ATOM     18  O   UNL     1      -0.701  15.528  24.587  0.00  0.00    +0.000 OA
ENDBRANCH  11  18
BRANCH  16  19
ATOM     19  O   UNL     1      -3.253  15.006  25.410  0.00  0.00    +0.000 OA
BRANCH  19  20
ATOM     20  C   UNL     1      -3.801  16.236  24.902  0.00  0.00    +0.000 C 
BRANCH  20  21
ATOM     21  C   UNL     1      -5.111  16.037  24.128  0.00  0.00    +0.000 C 
BRANCH  21  22
ATOM     22  N   UNL     1      -5.090  16.726  22.819  0.00  0.00    +0.000 NA
ATOM     23  C   UNL     1      -5.697  15.972  21.711  0.00  0.00    +0.000 C 
ATOM     24  C   UNL     1      -4.568  15.153  21.122  0.00  0.00    +0.000 C 
ATOM     25  C   UNL     1      -3.369  16.070  21.249  0.00  0.00    +0.000 C 
ATOM     26  C   UNL     1      -3.716  17.027  22.386  0.00  0.00    +0.000 C 
ENDBRANCH  21  22
ENDBRANCH  20  21
ENDBRANCH  19  20
ENDBRANCH  16  19
ENDBRANCH   1  13
BRANCH   6  27
ATOM     27  C   UNL     1       2.449   7.285  18.836  0.00  0.00    +0.000 A 
ATOM     28  C   UNL     1       2.283   5.970  19.306  0.00  0.00    +0.000 A 
ATOM     29  C   UNL     1       2.993   4.909  18.740  0.00  0.00    +0.000 A 
ATOM     30  C   UNL     1       3.893   5.162  17.702  0.00  0.00    +0.000 A 
ATOM     31  C   UNL     1       4.084   6.465  17.227  0.00  0.00    +0.000 A 
ATOM     32  C   UNL     1       3.362   7.517  17.795  0.00  0.00    +0.000 A 
BRANCH  30  33
ATOM     33  N   UNL     1       4.639   4.053  17.097  0.00  0.00    +0.000 N 
ATOM     34  O   UNL     1       5.569   4.334  16.330  0.00  0.00    +0.000 OA
ATOM     35  O   UNL     1       4.290   2.900  17.391  0.00  0.00    +0.000 OA
ENDBRANCH  30  33
ENDBRANCH   6  27
TORSDOF 8
ENDMDL
MODEL 7
REMARK VINA RESULT:      -7.5      3.479      4.694
REMARK  Name = 
REMARK  9 active torsions:
REMARK  status: ('A' for Active; 'I' for Inactive)
REMARK    1  A    between atoms: C_1  and  O_2
REMARK    2  A    between atoms: O_2  and  C_3
REMARK    3  A    between atoms: C_5  and  N_6
REMARK    4  A    between atoms: C_11  and  C_12
REMARK    5  A    between atoms: C_15  and  N_16
REMARK    6  A    between atoms: C_27  and  O_28
REMARK    7  A    between atoms: O_28  and  C_29
REMARK    8  A    between atoms: C_29  and  C_30
REMARK    9  A    between atoms: C_30  and  N_31
REMARK                            x       y       z     vdW  Elec       q    Type
REMARK                         _______ _______ _______ _____ _____    ______ ____
ROOT
ATOM      1  N   UNL     1       2.543   7.133  18.943  0.00  0.00    +0.000 N 
ATOM      2  C   UNL     1       2.171   6.696  20.211  0.00  0.00    +0.000 A 
ATOM      3  N   UNL     1       1.404   7.306  21.060  0.00  0.00    +0.000 NA
ATOM      4  C   UNL     1       0.943   8.542  20.597  0.00  0.00    +0.000 A 
ATOM      5  C   UNL     1       0.105   9.406  21.334  0.00  0.00    +0.000 A 
ATOM      6  C   UNL     1      -0.194  10.560  20.622  0.00  0.00    +0.000 A 
ATOM      7  S   UNL     1       0.571  10.547  19.076  0.00  0.00    +0.000 S 
ATOM      8  C   UNL     1       1.256   9.043  19.370  0.00  0.00    +0.000 A 
ATOM      9  C   UNL     1       2.098   8.359  18.437  0.00  0.00    +0.000 A 
ATOM     10  O   UNL     1       2.420   8.836  17.349  0.00  0.00    +0.000 OA
ENDROOT
BRANCH   1  13
ATOM     11  C   UNL     1       4.202   4.194  17.345  0.00  0.00    +0.000 A 
ATOM     12  C   UNL     1       3.327   4.974  18.109  0.00  0.00    +0.000 A 
ATOM     13  C   UNL     1       3.442   6.370  18.159  0.00  0.00    +0.000 A 
ATOM     14  C   UNL     1       4.404   7.010  17.390  0.00  0.00    +0.000 A 
ATOM     15  C   UNL     1       5.224   6.254  16.562  0.00  0.00    +0.000 A 
ATOM     16  C   UNL     1       5.174   4.848  16.560  0.00  0.00    +0.000 A 
BRANCH  11  18
ATOM     17  C   UNL     1       2.993   2.167  17.816  0.00  0.00    +0.000 C 
ATOM     18  O   UNL     1       4.170   2.822  17.336  0.00  0.00    +0.000 OA
ENDBRANCH  11  18
BRANCH  16  19
ATOM     19  O   UNL     1       6.061   4.083  15.819  0.00  0.00    +0.000 OA
BRANCH  19  20
ATOM     20  C   UNL     1       6.104   4.436  14.425  0.00  0.00    +0.000 C 
BRANCH  20  21
ATOM     21  C   UNL     1       5.167   3.584  13.558  0.00  0.00    +0.000 C 
BRANCH  21  22
ATOM     22  N   UNL     1       5.518   3.660  12.123  0.00  0.00    +0.000 NA
ATOM     23  C   UNL     1       4.899   2.628  11.277  0.00  0.00    +0.000 C 
ATOM     24  C   UNL     1       5.870   1.467  11.292  0.00  0.00    +0.000 C 
ATOM     25  C   UNL     1       7.225   2.145  11.318  0.00  0.00    +0.000 C 
ATOM     26  C   UNL     1       6.968   3.528  11.912  0.00  0.00    +0.000 C 
ENDBRANCH  21  22
ENDBRANCH  20  21
ENDBRANCH  19  20
ENDBRANCH  16  19
ENDBRANCH   1  13
BRANCH   6  27
ATOM     27  C   UNL     1      -1.062  11.686  20.987  0.00  0.00    +0.000 A 
ATOM     28  C   UNL     1      -2.032  12.193  20.103  0.00  0.00    +0.000 A 
ATOM     29  C   UNL     1      -2.885  13.230  20.489  0.00  0.00    +0.000 A 
ATOM     30  C   UNL     1      -2.759  13.781  21.768  0.00  0.00    +0.000 A 
ATOM     31  C   UNL     1      -1.792  13.301  22.657  0.00  0.00    +0.000 A 
ATOM     32  C   UNL     1      -0.951  12.258  22.263  0.00  0.00    +0.000 A 
BRANCH  30  33
ATOM     33  N   UNL     1      -3.654  14.866  22.184  0.00  0.00    +0.000 N 
ATOM     34  O   UNL     1      -4.558  14.594  22.984  0.00  0.00    +0.000 OA
ATOM     35  O   UNL     1      -3.451  15.992  21.706  0.00  0.00    +0.000 OA
ENDBRANCH  30  33
ENDBRANCH   6  27
TORSDOF 8
ENDMDL
MODEL 8
REMARK VINA RESULT:      -7.3      1.667      3.371
REMARK  Name = 
REMARK  9 active torsions:
REMARK  status: ('A' for Active; 'I' for Inactive)
REMARK    1  A    between atoms: C_1  and  O_2
REMARK    2  A    between atoms: O_2  and  C_3
REMARK    3  A    between atoms: C_5  and  N_6
REMARK    4  A    between atoms: C_11  and  C_12
REMARK    5  A    between atoms: C_15  and  N_16
REMARK    6  A    between atoms: C_27  and  O_28
REMARK    7  A    between atoms: O_28  and  C_29
REMARK    8  A    between atoms: C_29  and  C_30
REMARK    9  A    between atoms: C_30  and  N_31
REMARK                            x       y       z     vdW  Elec       q    Type
REMARK                         _______ _______ _______ _____ _____    ______ ____
ROOT
ATOM      1  N   UNL     1       1.474   8.734  19.740  0.00  0.00    +0.000 N 
ATOM      2  C   UNL     1       1.442   9.741  18.779  0.00  0.00    +0.000 A 
ATOM      3  N   UNL     1       0.935  10.928  18.900  0.00  0.00    +0.000 NA
ATOM      4  C   UNL     1       0.358  11.156  20.152  0.00  0.00    +0.000 A 
ATOM      5  C   UNL     1      -0.272  12.362  20.532  0.00  0.00    +0.000 A 
ATOM      6  C   UNL     1      -0.748  12.302  21.834  0.00  0.00    +0.000 A 
ATOM      7  S   UNL     1      -0.414  10.767  22.545  0.00  0.00    +0.000 S 
ATOM      8  C   UNL     1       0.348  10.229  21.149  0.00  0.00    +0.000 A 
ATOM      9  C   UNL     1       0.917   8.923  21.009  0.00  0.00    +0.000 A 
ATOM     10  O   UNL     1       0.863   8.069  21.894  0.00  0.00    +0.000 OA
ENDROOT
BRANCH   1  13
ATOM     11  C   UNL     1       2.447   5.143  20.062  0.00  0.00    +0.000 A 
ATOM     12  C   UNL     1       1.918   6.408  20.344  0.00  0.00    +0.000 A 
ATOM     13  C   UNL     1       2.017   7.465  19.427  0.00  0.00    +0.000 A 
ATOM     14  C   UNL     1       2.596   7.247  18.185  0.00  0.00    +0.000 A 
ATOM     15  C   UNL     1       3.047   5.975  17.860  0.00  0.00    +0.000 A 
ATOM     16  C   UNL     1       3.028   4.924  18.796  0.00  0.00    +0.000 A 
BRANCH  11  18
ATOM     17  C   UNL     1       1.287   3.268  21.026  0.00  0.00    +0.000 C 
ATOM     18  O   UNL     1       2.441   4.110  20.965  0.00  0.00    +0.000 OA
ENDBRANCH  11  18
BRANCH  16  19
ATOM     19  O   UNL     1       3.576   3.683  18.517  0.00  0.00    +0.000 OA
BRANCH  19  20
ATOM     20  C   UNL     1       4.945   3.740  18.077  0.00  0.00    +0.000 C 
BRANCH  20  21
ATOM     21  C   UNL     1       5.872   4.440  19.081  0.00  0.00    +0.000 C 
BRANCH  21  22
ATOM     22  N   UNL     1       7.203   4.723  18.500  0.00  0.00    +0.000 NA
ATOM     23  C   UNL     1       7.752   6.048  18.825  0.00  0.00    +0.000 C 
ATOM     24  C   UNL     1       7.253   6.966  17.730  0.00  0.00    +0.000 C 
ATOM     25  C   UNL     1       7.272   6.082  16.499  0.00  0.00    +0.000 C 
ATOM     26  C   UNL     1       7.179   4.655  17.030  0.00  0.00    +0.000 C 
ENDBRANCH  21  22
ENDBRANCH  20  21
ENDBRANCH  19  20
ENDBRANCH  16  19
ENDBRANCH   1  13
BRANCH   6  27
ATOM     27  C   UNL     1      -1.412  13.337  22.636  0.00  0.00    +0.000 A 
ATOM     28  C   UNL     1      -2.601  13.081  23.342  0.00  0.00    +0.000 A 
ATOM     29  C   UNL     1      -3.189  14.065  24.142  0.00  0.00    +0.000 A 
ATOM     30  C   UNL     1      -2.592  15.326  24.227  0.00  0.00    +0.000 A 
ATOM     31  C   UNL     1      -1.416  15.606  23.521  0.00  0.00    +0.000 A 
ATOM     32  C   UNL     1      -0.833  14.612  22.732  0.00  0.00    +0.000 A 
BRANCH  30  33
ATOM     33  N   UNL     1      -3.198  16.363  25.069  0.00  0.00    +0.000 N 
ATOM     34  O   UNL     1      -4.432  16.469  25.054  0.00  0.00    +0.000 OA
ATOM     35  O   UNL     1      -2.438  17.072  25.743  0.00  0.00    +0.000 OA
ENDBRANCH  30  33
ENDBRANCH   6  27
TORSDOF 8
ENDMDL
MODEL 9
REMARK VINA RESULT:      -7.3      2.595      3.864
REMARK  Name = 
REMARK  9 active torsions:
REMARK  status: ('A' for Active; 'I' for Inactive)
REMARK    1  A    between atoms: C_1  and  O_2
REMARK    2  A    between atoms: O_2  and  C_3
REMARK    3  A    between atoms: C_5  and  N_6
REMARK    4  A    between atoms: C_11  and  C_12
REMARK    5  A    between atoms: C_15  and  N_16
REMARK    6  A    between atoms: C_27  and  O_28
REMARK    7  A    between atoms: O_28  and  C_29
REMARK    8  A    between atoms: C_29  and  C_30
REMARK    9  A    between atoms: C_30  and  N_31
REMARK                            x       y       z     vdW  Elec       q    Type
REMARK                         _______ _______ _______ _____ _____    ______ ____
ROOT
ATOM      1  N   UNL     1       1.910   8.308  18.837  0.00  0.00    +0.000 N 
ATOM      2  C   UNL     1       1.468   9.221  17.884  0.00  0.00    +0.000 A 
ATOM      3  N   UNL     1       0.742  10.277  18.082  0.00  0.00    +0.000 NA
ATOM      4  C   UNL     1       0.384  10.455  19.422  0.00  0.00    +0.000 A 
ATOM      5  C   UNL     1      -0.413  11.519  19.898  0.00  0.00    +0.000 A 
ATOM      6  C   UNL     1      -0.602  11.441  21.271  0.00  0.00    +0.000 A 
ATOM      7  S   UNL     1       0.198  10.062  21.928  0.00  0.00    +0.000 S 
ATOM      8  C   UNL     1       0.775   9.612  20.417  0.00  0.00    +0.000 A 
ATOM      9  C   UNL     1       1.582   8.453  20.189  0.00  0.00    +0.000 A 
ATOM     10  O   UNL     1       1.893   7.665  21.082  0.00  0.00    +0.000 OA
ENDROOT
BRANCH   1  13
ATOM     11  C   UNL     1       2.985   4.746  18.514  0.00  0.00    +0.000 A 
ATOM     12  C   UNL     1       2.270   5.891  18.885  0.00  0.00    +0.000 A 
ATOM     13  C   UNL     1       2.651   7.167  18.444  0.00  0.00    +0.000 A 
ATOM     14  C   UNL     1       3.721   7.304  17.572  0.00  0.00    +0.000 A 
ATOM     15  C   UNL     1       4.385   6.168  17.129  0.00  0.00    +0.000 A 
ATOM     16  C   UNL     1       4.067   4.889  17.623  0.00  0.00    +0.000 A 
BRANCH  11  18
ATOM     17  C   UNL     1       2.977   3.203  20.361  0.00  0.00    +0.000 C 
ATOM     18  O   UNL     1       2.691   3.493  18.990  0.00  0.00    +0.000 OA
ENDBRANCH  11  18
BRANCH  16  19
ATOM     19  O   UNL     1       4.796   3.764  17.269  0.00  0.00    +0.000 OA
BRANCH  19  20
ATOM     20  C   UNL     1       5.986   4.059  16.515  0.00  0.00    +0.000 C 
BRANCH  20  21
ATOM     21  C   UNL     1       6.017   3.368  15.145  0.00  0.00    +0.000 C 
BRANCH  21  22
ATOM     22  N   UNL     1       5.793   4.324  14.038  0.00  0.00    +0.000 NA
ATOM     23  C   UNL     1       5.174   3.745  12.836  0.00  0.00    +0.000 C 
ATOM     24  C   UNL     1       6.330   3.271  11.982  0.00  0.00    +0.000 C 
ATOM     25  C   UNL     1       7.397   4.318  12.227  0.00  0.00    +0.000 C 
ATOM     26  C   UNL     1       7.053   4.931  13.582  0.00  0.00    +0.000 C 
ENDBRANCH  21  22
ENDBRANCH  20  21
ENDBRANCH  19  20
ENDBRANCH  16  19
ENDBRANCH   1  13
BRANCH   6  27
ATOM     27  C   UNL     1      -1.312  12.359  22.171  0.00  0.00    +0.000 A 
ATOM     28  C   UNL     1      -2.625  12.105  22.606  0.00  0.00    +0.000 A 
ATOM     29  C   UNL     1      -3.264  12.963  23.504  0.00  0.00    +0.000 A 
ATOM     30  C   UNL     1      -2.590  14.098  23.965  0.00  0.00    +0.000 A 
ATOM     31  C   UNL     1      -1.288  14.376  23.535  0.00  0.00    +0.000 A 
ATOM     32  C   UNL     1      -0.657  13.506  22.643  0.00  0.00    +0.000 A 
BRANCH  30  33
ATOM     33  N   UNL     1      -3.251  15.001  24.914  0.00  0.00    +0.000 N 
ATOM     34  O   UNL     1      -2.652  15.274  25.962  0.00  0.00    +0.000 OA
ATOM     35  O   UNL     1      -4.370  15.436  24.607  0.00  0.00    +0.000 OA
ENDBRANCH  30  33
ENDBRANCH   6  27
TORSDOF 8
ENDMDL
