MODEL 1
REMARK VINA RESULT:      -7.7      0.000      0.000
REMARK  Name = 
REMARK  7 active torsions:
REMARK  status: ('A' for Active; 'I' for Inactive)
REMARK    1  A    between atoms: C_1  and  C_2
REMARK    2  A    between atoms: C_2  and  C_3
REMARK    3  A    between atoms: C_3  and  N_4
REMARK    4  A    between atoms: C_9  and  C_10
REMARK    5  A    between atoms: N_20  and  C_21
REMARK    6  A    between atoms: C_21  and  C_22
REMARK    7  A    between atoms: C_22  and  C_23
REMARK                            x       y       z     vdW  Elec       q    Type
REMARK                         _______ _______ _______ _____ _____    ______ ____
ROOT
ATOM      1  N   UNL     1       4.672   4.993  18.018  0.00  0.00    +0.000 N 
ATOM      2  C   UNL     1       4.287   6.313  17.713  0.00  0.00    +0.000 A 
ATOM      3  O   UNL     1       4.746   6.966  16.779  0.00  0.00    +0.000 OA
ATOM      4  C   UNL     1       3.282   6.832  18.609  0.00  0.00    +0.000 A 
ATOM      5  N   UNL     1       2.687   8.069  18.620  0.00  0.00    +0.000 NA
ATOM      6  C   UNL     1       1.825   8.057  19.625  0.00  0.00    +0.000 A 
ATOM      7  N   UNL     1       1.855   6.819  20.244  0.00  0.00    +0.000 N 
ATOM      8  C   UNL     1       2.784   6.051  19.611  0.00  0.00    +0.000 A 
ATOM      9  N   UNL     1       3.164   4.758  19.890  0.00  0.00    +0.000 N 
ATOM     10  C   UNL     1       4.174   4.198  19.078  0.00  0.00    +0.000 A 
ATOM     11  O   UNL     1       4.592   3.054  19.281  0.00  0.00    +0.000 OA
ATOM     12  H   UNL     1       1.288   6.562  21.040  0.00  0.00    +0.000 HD
ENDROOT
BRANCH   6  13
ATOM     13  C   UNL     1       0.953   9.158  20.049  0.00  0.00    +0.000 A 
ATOM     14  C   UNL     1       0.883   9.551  21.391  0.00  0.00    +0.000 A 
ATOM     15  F   UNL     1       1.598   8.926  22.337  0.00  0.00    +0.000 F 
ATOM     16  C   UNL     1       0.064  10.607  21.802  0.00  0.00    +0.000 A 
ATOM     17  C   UNL     1      -0.707  11.298  20.870  0.00  0.00    +0.000 A 
ATOM     18  C   UNL     1      -0.657  10.924  19.532  0.00  0.00    +0.000 A 
ATOM     19  C   UNL     1       0.166   9.868  19.134  0.00  0.00    +0.000 A 
ATOM     20  F   UNL     1       0.180   9.542  17.831  0.00  0.00    +0.000 F 
ENDBRANCH   6  13
BRANCH   1  21
ATOM     21  C   UNL     1       5.665   4.389  17.132  0.00  0.00    +0.000 C 
BRANCH  21  23
ATOM     22  C   UNL     1       6.099   3.983  14.638  0.00  0.00    +0.000 C 
ATOM     23  C   UNL     1       5.099   3.931  15.782  0.00  0.00    +0.000 C 
ENDBRANCH  21  23
ENDBRANCH   1  21
BRANCH   9  24
ATOM     24  C   UNL     1       2.562   3.946  20.950  0.00  0.00    +0.000 C 
BRANCH  24  25
ATOM     25  C   UNL     1       1.111   3.534  20.685  0.00  0.00    +0.000 C 
ATOM     26  C   UNL     1       0.911   2.745  19.400  0.00  0.00    +0.000 C 
ENDBRANCH  24  25
ENDBRANCH   9  24
TORSDOF 5
ENDMDL
MODEL 2
REMARK VINA RESULT:      -7.7      0.116      1.657
REMARK  Name = 
REMARK  7 active torsions:
REMARK  status: ('A' for Active; 'I' for Inactive)
REMARK    1  A    between atoms: C_1  and  C_2
REMARK    2  A    between atoms: C_2  and  C_3
REMARK    3  A    between atoms: C_3  and  N_4
REMARK    4  A    between atoms: C_9  and  C_10
REMARK    5  A    between atoms: N_20  and  C_21
REMARK    6  A    between atoms: C_21  and  C_22
REMARK    7  A    between atoms: C_22  and  C_23
REMARK                            x       y       z     vdW  Elec       q    Type
REMARK                         _______ _______ _______ _____ _____    ______ ____
ROOT
ATOM      1  N   UNL     1       4.691   5.027  18.009  0.00  0.00    +0.000 N 
ATOM      2  C   UNL     1       4.306   6.343  17.683  0.00  0.00    +0.000 A 
ATOM      3  O   UNL     1       4.769   6.983  16.741  0.00  0.00    +0.000 OA
ATOM      4  C   UNL     1       3.298   6.874  18.568  0.00  0.00    +0.000 A 
ATOM      5  N   UNL     1       2.702   8.111  18.559  0.00  0.00    +0.000 NA
ATOM      6  C   UNL     1       1.836   8.113  19.560  0.00  0.00    +0.000 A 
ATOM      7  N   UNL     1       1.864   6.884  20.197  0.00  0.00    +0.000 N 
ATOM      8  C   UNL     1       2.796   6.108  19.578  0.00  0.00    +0.000 A 
ATOM      9  N   UNL     1       3.176   4.819  19.878  0.00  0.00    +0.000 N 
ATOM     10  C   UNL     1       4.189   4.248  19.078  0.00  0.00    +0.000 A 
ATOM     11  O   UNL     1       4.606   3.107  19.299  0.00  0.00    +0.000 OA
ATOM     12  H   UNL     1       1.294   6.639  20.994  0.00  0.00    +0.000 HD
ENDROOT
BRANCH   6  13
ATOM     13  C   UNL     1       0.963   9.220  19.965  0.00  0.00    +0.000 A 
ATOM     14  C   UNL     1       0.152   9.881  19.034  0.00  0.00    +0.000 A 
ATOM     15  F   UNL     1       0.155   9.535  17.740  0.00  0.00    +0.000 F 
ATOM     16  C   UNL     1      -0.693  10.928  19.413  0.00  0.00    +0.000 A 
ATOM     17  C   UNL     1      -0.744  11.339  20.744  0.00  0.00    +0.000 A 
ATOM     18  C   UNL     1       0.055  10.701  21.686  0.00  0.00    +0.000 A 
ATOM     19  C   UNL     1       0.894   9.655  21.294  0.00  0.00    +0.000 A 
ATOM     20  F   UNL     1       1.648   9.070  22.240  0.00  0.00    +0.000 F 
ENDBRANCH   6  13
BRANCH   1  21
ATOM     21  C   UNL     1       5.687   4.411  17.135  0.00  0.00    +0.000 C 
BRANCH  21  23
ATOM     22  C   UNL     1       5.870   4.255  14.583  0.00  0.00    +0.000 C 
ATOM     23  C   UNL     1       5.109   3.844  15.834  0.00  0.00    +0.000 C 
ENDBRANCH  21  23
ENDBRANCH   1  21
BRANCH   9  24
ATOM     24  C   UNL     1       2.570   4.022  20.947  0.00  0.00    +0.000 C 
BRANCH  24  25
ATOM     25  C   UNL     1       1.119   3.608  20.683  0.00  0.00    +0.000 C 
ATOM     26  C   UNL     1       0.930   2.754  19.438  0.00  0.00    +0.000 C 
ENDBRANCH  24  25
ENDBRANCH   9  24
TORSDOF 5
ENDMDL
MODEL 3
REMARK VINA RESULT:      -7.6      1.324      1.552
REMARK  Name = 
REMARK  7 active torsions:
REMARK  status: ('A' for Active; 'I' for Inactive)
REMARK    1  A    between atoms: C_1  and  C_2
REMARK    2  A    between atoms: C_2  and  C_3
REMARK    3  A    between atoms: C_3  and  N_4
REMARK    4  A    between atoms: C_9  and  C_10
REMARK    5  A    between atoms: N_20  and  C_21
REMARK    6  A    between atoms: C_21  and  C_22
REMARK    7  A    between atoms: C_22  and  C_23
REMARK                            x       y       z     vdW  Elec       q    Type
REMARK                         _______ _______ _______ _____ _____    ______ ____
ROOT
ATOM      1  N   UNL     1       5.069   4.577  16.733  0.00  0.00    +0.000 N 
ATOM      2  C   UNL     1       5.017   5.976  16.894  0.00  0.00    +0.000 A 
ATOM      3  O   UNL     1       5.850   6.753  16.433  0.00  0.00    +0.000 OA
ATOM      4  C   UNL     1       3.874   6.416  17.656  0.00  0.00    +0.000 A 
ATOM      5  N   UNL     1       3.512   7.691  18.014  0.00  0.00    +0.000 NA
ATOM      6  C   UNL     1       2.383   7.578  18.696  0.00  0.00    +0.000 A 
ATOM      7  N   UNL     1       2.015   6.245  18.762  0.00  0.00    +0.000 N 
ATOM      8  C   UNL     1       2.964   5.512  18.117  0.00  0.00    +0.000 A 
ATOM      9  N   UNL     1       3.023   4.147  17.942  0.00  0.00    +0.000 N 
ATOM     10  C   UNL     1       4.137   3.640  17.240  0.00  0.00    +0.000 A 
ATOM     11  O   UNL     1       4.280   2.426  17.066  0.00  0.00    +0.000 OA
ATOM     12  H   UNL     1       1.190   5.900  19.232  0.00  0.00    +0.000 HD
ENDROOT
BRANCH   6  13
ATOM     13  C   UNL     1       1.608   8.667  19.302  0.00  0.00    +0.000 A 
ATOM     14  C   UNL     1       1.173   8.594  20.631  0.00  0.00    +0.000 A 
ATOM     15  F   UNL     1       1.437   7.523  21.391  0.00  0.00    +0.000 F 
ATOM     16  C   UNL     1       0.445   9.632  21.220  0.00  0.00    +0.000 A 
ATOM     17  C   UNL     1       0.136  10.774  20.485  0.00  0.00    +0.000 A 
ATOM     18  C   UNL     1       0.553  10.868  19.162  0.00  0.00    +0.000 A 
ATOM     19  C   UNL     1       1.281   9.824  18.585  0.00  0.00    +0.000 A 
ATOM     20  F   UNL     1       1.661   9.959  17.304  0.00  0.00    +0.000 F 
ENDBRANCH   6  13
BRANCH   1  21
ATOM     21  C   UNL     1       6.184   4.058  15.943  0.00  0.00    +0.000 C 
BRANCH  21  23
ATOM     22  C   UNL     1       6.998   4.725  13.605  0.00  0.00    +0.000 C 
ATOM     23  C   UNL     1       5.922   4.040  14.432  0.00  0.00    +0.000 C 
ENDBRANCH  21  23
ENDBRANCH   1  21
BRANCH   9  24
ATOM     24  C   UNL     1       1.992   3.223  18.418  0.00  0.00    +0.000 C 
BRANCH  24  25
ATOM     25  C   UNL     1       2.182   2.750  19.862  0.00  0.00    +0.000 C 
ATOM     26  C   UNL     1       1.234   3.396  20.861  0.00  0.00    +0.000 C 
ENDBRANCH  24  25
ENDBRANCH   9  24
TORSDOF 5
ENDMDL
MODEL 4
REMARK VINA RESULT:      -7.6      1.469      2.366
REMARK  Name = 
REMARK  7 active torsions:
REMARK  status: ('A' for Active; 'I' for Inactive)
REMARK    1  A    between atoms: C_1  and  C_2
REMARK    2  A    between atoms: C_2  and  C_3
REMARK    3  A    between atoms: C_3  and  N_4
REMARK    4  A    between atoms: C_9  and  C_10
REMARK    5  A    between atoms: N_20  and  C_21
REMARK    6  A    between atoms: C_21  and  C_22
REMARK    7  A    between atoms: C_22  and  C_23
REMARK                            x       y       z     vdW  Elec       q    Type
REMARK                         _______ _______ _______ _____ _____    ______ ____
ROOT
ATOM      1  N   UNL     1       5.519   4.843  16.568  0.00  0.00    +0.000 N 
ATOM      2  C   UNL     1       5.396   6.208  16.895  0.00  0.00    +0.000 A 
ATOM      3  O   UNL     1       6.239   7.060  16.624  0.00  0.00    +0.000 OA
ATOM      4  C   UNL     1       4.165   6.517  17.582  0.00  0.00    +0.000 A 
ATOM      5  N   UNL     1       3.717   7.725  18.056  0.00  0.00    +0.000 NA
ATOM      6  C   UNL     1       2.531   7.495  18.597  0.00  0.00    +0.000 A 
ATOM      7  N   UNL     1       2.212   6.155  18.457  0.00  0.00    +0.000 N 
ATOM      8  C   UNL     1       3.249   5.536  17.829  0.00  0.00    +0.000 A 
ATOM      9  N   UNL     1       3.381   4.207  17.493  0.00  0.00    +0.000 N 
ATOM     10  C   UNL     1       4.579   3.825  16.854  0.00  0.00    +0.000 A 
ATOM     11  O   UNL     1       4.787   2.647  16.546  0.00  0.00    +0.000 OA
ATOM     12  H   UNL     1       1.358   5.731  18.791  0.00  0.00    +0.000 HD
ENDROOT
BRANCH   6  13
ATOM     13  C   UNL     1       1.656   8.476  19.249  0.00  0.00    +0.000 A 
ATOM     14  C   UNL     1       1.213   9.616  18.568  0.00  0.00    +0.000 A 
ATOM     15  F   UNL     1       1.583   9.859  17.303  0.00  0.00    +0.000 F 
ATOM     16  C   UNL     1       0.369  10.550  19.177  0.00  0.00    +0.000 A 
ATOM     17  C   UNL     1      -0.052  10.360  20.491  0.00  0.00    +0.000 A 
ATOM     18  C   UNL     1       0.379   9.237  21.189  0.00  0.00    +0.000 A 
ATOM     19  C   UNL     1       1.220   8.311  20.569  0.00  0.00    +0.000 A 
ATOM     20  F   UNL     1       1.611   7.243  21.284  0.00  0.00    +0.000 F 
ENDBRANCH   6  13
BRANCH   1  21
ATOM     21  C   UNL     1       6.728   4.460  15.841  0.00  0.00    +0.000 C 
BRANCH  21  23
ATOM     22  C   UNL     1       6.098   3.751  13.459  0.00  0.00    +0.000 C 
ATOM     23  C   UNL     1       6.701   4.824  14.352  0.00  0.00    +0.000 C 
ENDBRANCH  21  23
ENDBRANCH   1  21
BRANCH   9  24
ATOM     24  C   UNL     1       2.345   3.203  17.739  0.00  0.00    +0.000 C 
BRANCH  24  25
ATOM     25  C   UNL     1       2.300   2.678  19.178  0.00  0.00    +0.000 C 
ATOM     26  C   UNL     1       1.018   3.012  19.924  0.00  0.00    +0.000 C 
ENDBRANCH  24  25
ENDBRANCH   9  24
TORSDOF 5
ENDMDL
MODEL 5
REMARK VINA RESULT:      -7.6      0.629      1.023
REMARK  Name = 
REMARK  7 active torsions:
REMARK  status: ('A' for Active; 'I' for Inactive)
REMARK    1  A    between atoms: C_1  and  C_2
REMARK    2  A    between atoms: C_2  and  C_3
REMARK    3  A    between atoms: C_3  and  N_4
REMARK    4  A    between atoms: C_9  and  C_10
REMARK    5  A    between atoms: N_20  and  C_21
REMARK    6  A    between atoms: C_21  and  C_22
REMARK    7  A    between atoms: C_22  and  C_23
REMARK                            x       y       z     vdW  Elec       q    Type
REMARK                         _______ _______ _______ _____ _____    ______ ____
ROOT
ATOM      1  N   UNL     1       4.673   5.115  17.858  0.00  0.00    +0.000 N 
ATOM      2  C   UNL     1       4.250   6.414  17.512  0.00  0.00    +0.000 A 
ATOM      3  O   UNL     1       4.662   7.035  16.535  0.00  0.00    +0.000 OA
ATOM      4  C   UNL     1       3.268   6.952  18.423  0.00  0.00    +0.000 A 
ATOM      5  N   UNL     1       2.649   8.177  18.404  0.00  0.00    +0.000 NA
ATOM      6  C   UNL     1       1.825   8.192  19.440  0.00  0.00    +0.000 A 
ATOM      7  N   UNL     1       1.902   6.982  20.109  0.00  0.00    +0.000 N 
ATOM      8  C   UNL     1       2.823   6.206  19.474  0.00  0.00    +0.000 A 
ATOM      9  N   UNL     1       3.239   4.933  19.793  0.00  0.00    +0.000 N 
ATOM     10  C   UNL     1       4.230   4.358  18.968  0.00  0.00    +0.000 A 
ATOM     11  O   UNL     1       4.678   3.231  19.203  0.00  0.00    +0.000 OA
ATOM     12  H   UNL     1       1.370   6.749  20.936  0.00  0.00    +0.000 HD
ENDROOT
BRANCH   6  13
ATOM     13  C   UNL     1       0.947   9.294  19.850  0.00  0.00    +0.000 A 
ATOM     14  C   UNL     1       0.913   9.737  21.178  0.00  0.00    +0.000 A 
ATOM     15  F   UNL     1       1.669   9.162  22.123  0.00  0.00    +0.000 F 
ATOM     16  C   UNL     1       0.089  10.794  21.575  0.00  0.00    +0.000 A 
ATOM     17  C   UNL     1      -0.724  11.436  20.643  0.00  0.00    +0.000 A 
ATOM     18  C   UNL     1      -0.710  11.010  19.319  0.00  0.00    +0.000 A 
ATOM     19  C   UNL     1       0.119   9.954  18.935  0.00  0.00    +0.000 A 
ATOM     20  F   UNL     1       0.096   9.578  17.646  0.00  0.00    +0.000 F 
ENDBRANCH   6  13
BRANCH   1  21
ATOM     21  C   UNL     1       5.644   4.493  16.961  0.00  0.00    +0.000 C 
BRANCH  21  23
ATOM     22  C   UNL     1       7.460   5.858  18.149  0.00  0.00    +0.000 C 
ATOM     23  C   UNL     1       7.088   4.548  17.471  0.00  0.00    +0.000 C 
ENDBRANCH  21  23
ENDBRANCH   1  21
BRANCH   9  24
ATOM     24  C   UNL     1       2.693   4.156  20.908  0.00  0.00    +0.000 C 
BRANCH  24  25
ATOM     25  C   UNL     1       1.227   3.746  20.736  0.00  0.00    +0.000 C 
ATOM     26  C   UNL     1       0.978   2.788  19.581  0.00  0.00    +0.000 C 
ENDBRANCH  24  25
ENDBRANCH   9  24
TORSDOF 5
ENDMDL
MODEL 6
REMARK VINA RESULT:      -7.3      1.228      1.496
REMARK  Name = 
REMARK  7 active torsions:
REMARK  status: ('A' for Active; 'I' for Inactive)
REMARK    1  A    between atoms: C_1  and  C_2
REMARK    2  A    between atoms: C_2  and  C_3
REMARK    3  A    between atoms: C_3  and  N_4
REMARK    4  A    between atoms: C_9  and  C_10
REMARK    5  A    between atoms: N_20  and  C_21
REMARK    6  A    between atoms: C_21  and  C_22
REMARK    7  A    between atoms: C_22  and  C_23
REMARK                            x       y       z     vdW  Elec       q    Type
REMARK                         _______ _______ _______ _____ _____    ______ ____
ROOT
ATOM      1  N   UNL     1       4.796   4.700  16.791  0.00  0.00    +0.000 N 
ATOM      2  C   UNL     1       4.632   6.100  16.783  0.00  0.00    +0.000 A 
ATOM      3  O   UNL     1       5.279   6.865  16.072  0.00  0.00    +0.000 OA
ATOM      4  C   UNL     1       3.612   6.555  17.697  0.00  0.00    +0.000 A 
ATOM      5  N   UNL     1       3.194   7.836  17.958  0.00  0.00    +0.000 NA
ATOM      6  C   UNL     1       2.230   7.735  18.860  0.00  0.00    +0.000 A 
ATOM      7  N   UNL     1       2.020   6.400  19.163  0.00  0.00    +0.000 N 
ATOM      8  C   UNL     1       2.902   5.658  18.439  0.00  0.00    +0.000 A 
ATOM      9  N   UNL     1       3.068   4.291  18.427  0.00  0.00    +0.000 N 
ATOM     10  C   UNL     1       4.077   3.776  17.586  0.00  0.00    +0.000 A 
ATOM     11  O   UNL     1       4.309   2.564  17.540  0.00  0.00    +0.000 OA
ATOM     12  H   UNL     1       1.337   6.064  19.828  0.00  0.00    +0.000 HD
ENDROOT
BRANCH   6  13
ATOM     13  C   UNL     1       1.474   8.836  19.468  0.00  0.00    +0.000 A 
ATOM     14  C   UNL     1       1.121   8.812  20.822  0.00  0.00    +0.000 A 
ATOM     15  F   UNL     1       1.449   7.777  21.608  0.00  0.00    +0.000 F 
ATOM     16  C   UNL     1       0.412   9.862  21.412  0.00  0.00    +0.000 A 
ATOM     17  C   UNL     1       0.039  10.968  20.652  0.00  0.00    +0.000 A 
ATOM     18  C   UNL     1       0.374  11.013  19.303  0.00  0.00    +0.000 A 
ATOM     19  C   UNL     1       1.084   9.958  18.726  0.00  0.00    +0.000 A 
ATOM     20  F   UNL     1       1.384  10.046  17.420  0.00  0.00    +0.000 F 
ENDBRANCH   6  13
BRANCH   1  21
ATOM     21  C   UNL     1       5.791   4.162  15.865  0.00  0.00    +0.000 C 
BRANCH  21  23
ATOM     22  C   UNL     1       7.631   4.510  17.616  0.00  0.00    +0.000 C 
ATOM     23  C   UNL     1       7.224   4.621  16.155  0.00  0.00    +0.000 C 
ENDBRANCH  21  23
ENDBRANCH   1  21
BRANCH   9  24
ATOM     24  C   UNL     1       2.245   3.368  19.210  0.00  0.00    +0.000 C 
BRANCH  24  25
ATOM     25  C   UNL     1       2.700   3.187  20.661  0.00  0.00    +0.000 C 
ATOM     26  C   UNL     1       1.603   2.725  21.608  0.00  0.00    +0.000 C 
ENDBRANCH  24  25
ENDBRANCH   9  24
TORSDOF 5
ENDMDL
MODEL 7
REMARK VINA RESULT:      -7.2      1.215      1.486
REMARK  Name = 
REMARK  7 active torsions:
REMARK  status: ('A' for Active; 'I' for Inactive)
REMARK    1  A    between atoms: C_1  and  C_2
REMARK    2  A    between atoms: C_2  and  C_3
REMARK    3  A    between atoms: C_3  and  N_4
REMARK    4  A    between atoms: C_9  and  C_10
REMARK    5  A    between atoms: N_20  and  C_21
REMARK    6  A    between atoms: C_21  and  C_22
REMARK    7  A    between atoms: C_22  and  C_23
REMARK                            x       y       z     vdW  Elec       q    Type
REMARK                         _______ _______ _______ _____ _____    ______ ____
ROOT
ATOM      1  N   UNL     1       4.579   5.107  17.642  0.00  0.00    +0.000 N 
ATOM      2  C   UNL     1       4.211   6.377  17.153  0.00  0.00    +0.000 A 
ATOM      3  O   UNL     1       4.605   6.845  16.088  0.00  0.00    +0.000 OA
ATOM      4  C   UNL     1       3.311   7.082  18.033  0.00  0.00    +0.000 A 
ATOM      5  N   UNL     1       2.760   8.332  17.887  0.00  0.00    +0.000 NA
ATOM      6  C   UNL     1       1.994   8.526  18.949  0.00  0.00    +0.000 A 
ATOM      7  N   UNL     1       2.039   7.406  19.761  0.00  0.00    +0.000 N 
ATOM      8  C   UNL     1       2.881   6.501  19.189  0.00  0.00    +0.000 A 
ATOM      9  N   UNL     1       3.242   5.254  19.647  0.00  0.00    +0.000 N 
ATOM     10  C   UNL     1       4.153   4.521  18.858  0.00  0.00    +0.000 A 
ATOM     11  O   UNL     1       4.550   3.407  19.213  0.00  0.00    +0.000 OA
ATOM     12  H   UNL     1       1.540   7.310  20.634  0.00  0.00    +0.000 HD
ENDROOT
BRANCH   6  13
ATOM     13  C   UNL     1       1.202   9.722  19.255  0.00  0.00    +0.000 A 
ATOM     14  C   UNL     1       0.169   9.685  20.199  0.00  0.00    +0.000 A 
ATOM     15  F   UNL     1      -0.143   8.552  20.844  0.00  0.00    +0.000 F 
ATOM     16  C   UNL     1      -0.583  10.823  20.506  0.00  0.00    +0.000 A 
ATOM     17  C   UNL     1      -0.312  12.032  19.870  0.00  0.00    +0.000 A 
ATOM     18  C   UNL     1       0.707  12.093  18.926  0.00  0.00    +0.000 A 
ATOM     19  C   UNL     1       1.451  10.950  18.629  0.00  0.00    +0.000 A 
ATOM     20  F   UNL     1       2.425  11.058  17.710  0.00  0.00    +0.000 F 
ENDBRANCH   6  13
BRANCH   1  21
ATOM     21  C   UNL     1       5.465   4.319  16.788  0.00  0.00    +0.000 C 
BRANCH  21  23
ATOM     22  C   UNL     1       7.712   4.673  17.971  0.00  0.00    +0.000 C 
ATOM     23  C   UNL     1       6.895   4.864  16.703  0.00  0.00    +0.000 C 
ENDBRANCH  21  23
ENDBRANCH   1  21
BRANCH   9  24
ATOM     24  C   UNL     1       2.712   4.657  20.875  0.00  0.00    +0.000 C 
BRANCH  24  25
ATOM     25  C   UNL     1       1.407   3.878  20.689  0.00  0.00    +0.000 C 
ATOM     26  C   UNL     1       1.321   2.598  21.506  0.00  0.00    +0.000 C 
ENDBRANCH  24  25
ENDBRANCH   9  24
TORSDOF 5
ENDMDL
MODEL 8
REMARK VINA RESULT:      -7.1      3.386      7.565
REMARK  Name = 
REMARK  7 active torsions:
REMARK  status: ('A' for Active; 'I' for Inactive)
REMARK    1  A    between atoms: C_1  and  C_2
REMARK    2  A    between atoms: C_2  and  C_3
REMARK    3  A    between atoms: C_3  and  N_4
REMARK    4  A    between atoms: C_9  and  C_10
REMARK    5  A    between atoms: N_20  and  C_21
REMARK    6  A    between atoms: C_21  and  C_22
REMARK    7  A    between atoms: C_22  and  C_23
REMARK                            x       y       z     vdW  Elec       q    Type
REMARK                         _______ _______ _______ _____ _____    ______ ____
ROOT
ATOM      1  N   UNL     1       3.190   4.129  19.530  0.00  0.00    +0.000 N 
ATOM      2  C   UNL     1       3.823   3.271  18.608  0.00  0.00    +0.000 A 
ATOM      3  O   UNL     1       3.910   2.054  18.747  0.00  0.00    +0.000 OA
ATOM      4  C   UNL     1       4.361   3.967  17.464  0.00  0.00    +0.000 A 
ATOM      5  N   UNL     1       5.044   3.462  16.386  0.00  0.00    +0.000 NA
ATOM      6  C   UNL     1       5.315   4.494  15.602  0.00  0.00    +0.000 A 
ATOM      7  N   UNL     1       4.798   5.649  16.164  0.00  0.00    +0.000 N 
ATOM      8  C   UNL     1       4.208   5.317  17.345  0.00  0.00    +0.000 A 
ATOM      9  N   UNL     1       3.577   6.140  18.251  0.00  0.00    +0.000 N 
ATOM     10  C   UNL     1       3.061   5.533  19.416  0.00  0.00    +0.000 A 
ATOM     11  O   UNL     1       2.507   6.205  20.291  0.00  0.00    +0.000 OA
ATOM     12  H   UNL     1       4.876   6.570  15.756  0.00  0.00    +0.000 HD
ENDROOT
BRANCH   6  13
ATOM     13  C   UNL     1       6.044   4.464  14.328  0.00  0.00    +0.000 A 
ATOM     14  C   UNL     1       5.507   3.830  13.202  0.00  0.00    +0.000 A 
ATOM     15  F   UNL     1       4.317   3.216  13.250  0.00  0.00    +0.000 F 
ATOM     16  C   UNL     1       6.188   3.807  11.981  0.00  0.00    +0.000 A 
ATOM     17  C   UNL     1       7.431   4.425  11.863  0.00  0.00    +0.000 A 
ATOM     18  C   UNL     1       7.987   5.058  12.969  0.00  0.00    +0.000 A 
ATOM     19  C   UNL     1       7.295   5.075  14.182  0.00  0.00    +0.000 A 
ATOM     20  F   UNL     1       7.872   5.698  15.223  0.00  0.00    +0.000 F 
ENDBRANCH   6  13
BRANCH   1  21
ATOM     21  C   UNL     1       2.592   3.489  20.700  0.00  0.00    +0.000 C 
BRANCH  21  23
ATOM     22  C   UNL     1       0.565   2.801  19.289  0.00  0.00    +0.000 C 
ATOM     23  C   UNL     1       1.068   3.341  20.618  0.00  0.00    +0.000 C 
ENDBRANCH  21  23
ENDBRANCH   1  21
BRANCH   9  24
ATOM     24  C   UNL     1       3.398   7.580  18.051  0.00  0.00    +0.000 C 
BRANCH  24  25
ATOM     25  C   UNL     1       1.974   7.994  17.669  0.00  0.00    +0.000 C 
ATOM     26  C   UNL     1       1.598   9.404  18.096  0.00  0.00    +0.000 C 
ENDBRANCH  24  25
ENDBRANCH   9  24
TORSDOF 5
ENDMDL
MODEL 9
REMARK VINA RESULT:      -7.1      1.443      3.716
REMARK  Name = 
REMARK  7 active torsions:
REMARK  status: ('A' for Active; 'I' for Inactive)
REMARK    1  A    between atoms: C_1  and  C_2
REMARK    2  A    between atoms: C_2  and  C_3
REMARK    3  A    between atoms: C_3  and  N_4
REMARK    4  A    between atoms: C_9  and  C_10
REMARK    5  A    between atoms: N_20  and  C_21
REMARK    6  A    between atoms: C_21  and  C_22
REMARK    7  A    between atoms: C_22  and  C_23
REMARK                            x       y       z     vdW  Elec       q    Type
REMARK                         _______ _______ _______ _____ _____    ______ ____
ROOT
ATOM      1  N   UNL     1       3.755   3.962  19.301  0.00  0.00    +0.000 N 
ATOM      2  C   UNL     1       2.821   4.572  20.162  0.00  0.00    +0.000 A 
ATOM      3  O   UNL     1       2.300   4.009  21.122  0.00  0.00    +0.000 OA
ATOM      4  C   UNL     1       2.534   5.941  19.808  0.00  0.00    +0.000 A 
ATOM      5  N   UNL     1       1.677   6.829  20.408  0.00  0.00    +0.000 NA
ATOM      6  C   UNL     1       1.774   7.958  19.724  0.00  0.00    +0.000 A 
ATOM      7  N   UNL     1       2.697   7.802  18.704  0.00  0.00    +0.000 N 
ATOM      8  C   UNL     1       3.166   6.525  18.750  0.00  0.00    +0.000 A 
ATOM      9  N   UNL     1       4.086   5.918  17.924  0.00  0.00    +0.000 N 
ATOM     10  C   UNL     1       4.385   4.564  18.186  0.00  0.00    +0.000 A 
ATOM     11  O   UNL     1       5.177   3.939  17.474  0.00  0.00    +0.000 OA
ATOM     12  H   UNL     1       2.946   8.523  18.042  0.00  0.00    +0.000 HD
ENDROOT
BRANCH   6  13
ATOM     13  C   UNL     1       1.040   9.204  19.975  0.00  0.00    +0.000 A 
ATOM     14  C   UNL     1       0.382   9.878  18.939  0.00  0.00    +0.000 A 
ATOM     15  F   UNL     1       0.409   9.416  17.682  0.00  0.00    +0.000 F 
ATOM     16  C   UNL     1      -0.330  11.059  19.171  0.00  0.00    +0.000 A 
ATOM     17  C   UNL     1      -0.397  11.594  20.456  0.00  0.00    +0.000 A 
ATOM     18  C   UNL     1       0.253  10.945  21.500  0.00  0.00    +0.000 A 
ATOM     19  C   UNL     1       0.959   9.765  21.255  0.00  0.00    +0.000 A 
ATOM     20  F   UNL     1       1.571   9.176  22.295  0.00  0.00    +0.000 F 
ENDBRANCH   6  13
BRANCH   1  21
ATOM     21  C   UNL     1       4.120   2.582  19.617  0.00  0.00    +0.000 C 
BRANCH  21  23
ATOM     22  C   UNL     1       2.059   1.836  18.287  0.00  0.00    +0.000 C 
ATOM     23  C   UNL     1       3.500   1.543  18.677  0.00  0.00    +0.000 C 
ENDBRANCH  21  23
ENDBRANCH   1  21
BRANCH   9  24
ATOM     24  C   UNL     1       4.771   6.607  16.829  0.00  0.00    +0.000 C 
BRANCH  24  25
ATOM     25  C   UNL     1       6.024   7.379  17.252  0.00  0.00    +0.000 C 
ATOM     26  C   UNL     1       7.305   6.561  17.213  0.00  0.00    +0.000 C 
ENDBRANCH  24  25
ENDBRANCH   9  24
TORSDOF 5
ENDMDL
