MODEL 1
REMARK VINA RESULT:      -7.6      0.000      0.000
REMARK  Name = 
REMARK  5 active torsions:
REMARK  status: ('A' for Active; 'I' for Inactive)
REMARK    1  A    between atoms: C_1  and  C_2
REMARK    2  A    between atoms: C_2  and  C_3
REMARK    3  A    between atoms: C_3  and  C_4
REMARK    4  A    between atoms: C_9  and  C_10
REMARK    5  A    between atoms: C_19  and  C_20
REMARK                            x       y       z     vdW  Elec       q    Type
REMARK                         _______ _______ _______ _____ _____    ______ ____
ROOT
ATOM      1  C   UNL     1       1.951   5.074  20.172  0.00  0.00    +0.000 C 
ATOM      2  O   UNL     1       0.928   5.083  20.856  0.00  0.00    +0.000 OA
ATOM      3  N   UNL     1       2.650   6.237  19.877  0.00  0.00    +0.000 N 
ATOM      4  C   UNL     1       3.823   6.329  19.030  0.00  0.00    +0.000 C 
ATOM      5  C   UNL     1       3.500   7.186  17.851  0.00  0.00    +0.000 C 
ATOM      6  C   UNL     1       3.945   6.982  16.595  0.00  0.00    +0.000 C 
ATOM      7  C   UNL     1       2.598   8.365  18.058  0.00  0.00    +0.000 C 
ATOM      8  O   UNL     1       2.463   9.221  17.185  0.00  0.00    +0.000 OA
ATOM      9  C   UNL     1       1.885   8.471  19.371  0.00  0.00    +0.000 C 
ATOM     10  C   UNL     1       0.985   9.468  19.496  0.00  0.00    +0.000 C 
ATOM     11  C   UNL     1       2.217   7.495  20.456  0.00  0.00    +0.000 C 
ENDROOT
BRANCH   6  12
ATOM     12  C   UNL     1       4.796   5.865  16.186  0.00  0.00    +0.000 A 
ATOM     13  C   UNL     1       4.498   4.569  16.625  0.00  0.00    +0.000 A 
ATOM     14  C   UNL     1       5.290   3.492  16.222  0.00  0.00    +0.000 A 
ATOM     15  C   UNL     1       6.376   3.704  15.375  0.00  0.00    +0.000 A 
ATOM     16  C   UNL     1       6.684   4.995  14.944  0.00  0.00    +0.000 A 
ATOM     17  C   UNL     1       5.899   6.075  15.355  0.00  0.00    +0.000 A 
ENDBRANCH   6  12
BRANCH  10  18
ATOM     18  C   UNL     1       0.274   9.768  20.741  0.00  0.00    +0.000 A 
ATOM     19  C   UNL     1      -0.042  11.095  21.053  0.00  0.00    +0.000 A 
ATOM     20  C   UNL     1      -0.694  11.400  22.249  0.00  0.00    +0.000 A 
ATOM     21  C   UNL     1      -1.034  10.381  23.137  0.00  0.00    +0.000 A 
ATOM     22  C   UNL     1      -0.721   9.057  22.832  0.00  0.00    +0.000 A 
ATOM     23  C   UNL     1      -0.065   8.749  21.637  0.00  0.00    +0.000 A 
ENDBRANCH  10  18
BRANCH   1  24
ATOM     24  C   UNL     1       2.516   3.775  19.620  0.00  0.00    +0.000 C 
BRANCH  24  26
ATOM     25  C   UNL     1       2.316   1.982  17.866  0.00  0.00    +0.000 C 
ATOM     26  C   UNL     1       1.652   3.193  18.502  0.00  0.00    +0.000 C 
ENDBRANCH  24  26
ENDBRANCH   1  24
TORSDOF 4
ENDMDL
MODEL 2
REMARK VINA RESULT:      -7.6      3.150      9.320
REMARK  Name = 
REMARK  5 active torsions:
REMARK  status: ('A' for Active; 'I' for Inactive)
REMARK    1  A    between atoms: C_1  and  C_2
REMARK    2  A    between atoms: C_2  and  C_3
REMARK    3  A    between atoms: C_3  and  C_4
REMARK    4  A    between atoms: C_9  and  C_10
REMARK    5  A    between atoms: C_19  and  C_20
REMARK                            x       y       z     vdW  Elec       q    Type
REMARK                         _______ _______ _______ _____ _____    ______ ____
ROOT
ATOM      1  C   UNL     1      -1.567  10.759  18.624  0.00  0.00    +0.000 C 
ATOM      2  O   UNL     1      -1.466   9.885  17.762  0.00  0.00    +0.000 OA
ATOM      3  N   UNL     1      -0.631  10.904  19.639  0.00  0.00    +0.000 N 
ATOM      4  C   UNL     1      -0.703  11.859  20.727  0.00  0.00    +0.000 C 
ATOM      5  C   UNL     1      -0.790  11.112  22.018  0.00  0.00    +0.000 C 
ATOM      6  C   UNL     1      -1.528  11.483  23.083  0.00  0.00    +0.000 C 
ATOM      7  C   UNL     1      -0.013   9.838  22.153  0.00  0.00    +0.000 C 
ATOM      8  O   UNL     1       0.124   9.292  23.247  0.00  0.00    +0.000 OA
ATOM      9  C   UNL     1       0.605   9.267  20.914  0.00  0.00    +0.000 C 
ATOM     10  C   UNL     1       1.195   8.060  21.029  0.00  0.00    +0.000 C 
ATOM     11  C   UNL     1       0.550  10.061  19.645  0.00  0.00    +0.000 C 
ENDROOT
BRANCH   6  12
ATOM     12  C   UNL     1      -2.385  12.668  23.128  0.00  0.00    +0.000 A 
ATOM     13  C   UNL     1      -3.713  12.581  22.693  0.00  0.00    +0.000 A 
ATOM     14  C   UNL     1      -4.546  13.700  22.755  0.00  0.00    +0.000 A 
ATOM     15  C   UNL     1      -4.058  14.905  23.255  0.00  0.00    +0.000 A 
ATOM     16  C   UNL     1      -2.732  15.000  23.679  0.00  0.00    +0.000 A 
ATOM     17  C   UNL     1      -1.894  13.885  23.609  0.00  0.00    +0.000 A 
ENDBRANCH   6  12
BRANCH  10  18
ATOM     18  C   UNL     1       1.926   7.406  19.940  0.00  0.00    +0.000 A 
ATOM     19  C   UNL     1       2.283   6.059  20.061  0.00  0.00    +0.000 A 
ATOM     20  C   UNL     1       3.006   5.429  19.044  0.00  0.00    +0.000 A 
ATOM     21  C   UNL     1       3.371   6.142  17.905  0.00  0.00    +0.000 A 
ATOM     22  C   UNL     1       3.018   7.486  17.780  0.00  0.00    +0.000 A 
ATOM     23  C   UNL     1       2.299   8.119  18.796  0.00  0.00    +0.000 A 
ENDBRANCH  10  18
BRANCH   1  24
ATOM     24  C   UNL     1      -2.727  11.742  18.613  0.00  0.00    +0.000 C 
BRANCH  24  26
ATOM     25  C   UNL     1      -4.474  11.536  16.814  0.00  0.00    +0.000 C 
ATOM     26  C   UNL     1      -4.042  11.084  18.201  0.00  0.00    +0.000 C 
ENDBRANCH  24  26
ENDBRANCH   1  24
TORSDOF 4
ENDMDL
MODEL 3
REMARK VINA RESULT:      -7.5      0.305      1.058
REMARK  Name = 
REMARK  5 active torsions:
REMARK  status: ('A' for Active; 'I' for Inactive)
REMARK    1  A    between atoms: C_1  and  C_2
REMARK    2  A    between atoms: C_2  and  C_3
REMARK    3  A    between atoms: C_3  and  C_4
REMARK    4  A    between atoms: C_9  and  C_10
REMARK    5  A    between atoms: C_19  and  C_20
REMARK                            x       y       z     vdW  Elec       q    Type
REMARK                         _______ _______ _______ _____ _____    ______ ____
ROOT
ATOM      1  C   UNL     1       2.025   5.054  20.172  0.00  0.00    +0.000 C 
ATOM      2  O   UNL     1       1.009   5.065  20.867  0.00  0.00    +0.000 OA
ATOM      3  N   UNL     1       2.719   6.215  19.862  0.00  0.00    +0.000 N 
ATOM      4  C   UNL     1       3.883   6.303  19.002  0.00  0.00    +0.000 C 
ATOM      5  C   UNL     1       3.546   7.153  17.821  0.00  0.00    +0.000 C 
ATOM      6  C   UNL     1       3.978   6.942  16.562  0.00  0.00    +0.000 C 
ATOM      7  C   UNL     1       2.646   8.332  18.031  0.00  0.00    +0.000 C 
ATOM      8  O   UNL     1       2.500   9.183  17.154  0.00  0.00    +0.000 OA
ATOM      9  C   UNL     1       1.947   8.445  19.351  0.00  0.00    +0.000 C 
ATOM     10  C   UNL     1       1.047   9.442  19.479  0.00  0.00    +0.000 C 
ATOM     11  C   UNL     1       2.291   7.476  20.439  0.00  0.00    +0.000 C 
ENDROOT
BRANCH   6  12
ATOM     12  C   UNL     1       4.827   5.823  16.152  0.00  0.00    +0.000 A 
ATOM     13  C   UNL     1       4.577   4.541  16.657  0.00  0.00    +0.000 A 
ATOM     14  C   UNL     1       5.365   3.461  16.253  0.00  0.00    +0.000 A 
ATOM     15  C   UNL     1       6.400   3.658  15.340  0.00  0.00    +0.000 A 
ATOM     16  C   UNL     1       6.660   4.935  14.842  0.00  0.00    +0.000 A 
ATOM     17  C   UNL     1       5.879   6.017  15.253  0.00  0.00    +0.000 A 
ENDBRANCH   6  12
BRANCH  10  18
ATOM     18  C   UNL     1       0.348   9.748  20.730  0.00  0.00    +0.000 A 
ATOM     19  C   UNL     1      -0.056   8.704  21.568  0.00  0.00    +0.000 A 
ATOM     20  C   UNL     1      -0.749   8.978  22.750  0.00  0.00    +0.000 A 
ATOM     21  C   UNL     1      -1.039  10.295  23.098  0.00  0.00    +0.000 A 
ATOM     22  C   UNL     1      -0.640  11.340  22.265  0.00  0.00    +0.000 A 
ATOM     23  C   UNL     1       0.050  11.069  21.081  0.00  0.00    +0.000 A 
ENDBRANCH  10  18
BRANCH   1  24
ATOM     24  C   UNL     1       2.586   3.751  19.623  0.00  0.00    +0.000 C 
BRANCH  24  26
ATOM     25  C   UNL     1       1.278   4.080  17.498  0.00  0.00    +0.000 C 
ATOM     26  C   UNL     1       1.654   3.102  18.601  0.00  0.00    +0.000 C 
ENDBRANCH  24  26
ENDBRANCH   1  24
TORSDOF 4
ENDMDL
MODEL 4
REMARK VINA RESULT:      -7.5      0.308      1.390
REMARK  Name = 
REMARK  5 active torsions:
REMARK  status: ('A' for Active; 'I' for Inactive)
REMARK    1  A    between atoms: C_1  and  C_2
REMARK    2  A    between atoms: C_2  and  C_3
REMARK    3  A    between atoms: C_3  and  C_4
REMARK    4  A    between atoms: C_9  and  C_10
REMARK    5  A    between atoms: C_19  and  C_20
REMARK                            x       y       z     vdW  Elec       q    Type
REMARK                         _______ _______ _______ _____ _____    ______ ____
ROOT
ATOM      1  C   UNL     1       1.943   5.051  20.128  0.00  0.00    +0.000 C 
ATOM      2  O   UNL     1       0.926   5.077  20.820  0.00  0.00    +0.000 OA
ATOM      3  N   UNL     1       2.665   6.201  19.837  0.00  0.00    +0.000 N 
ATOM      4  C   UNL     1       3.833   6.273  18.981  0.00  0.00    +0.000 C 
ATOM      5  C   UNL     1       3.520   7.148  17.811  0.00  0.00    +0.000 C 
ATOM      6  C   UNL     1       3.950   6.945  16.550  0.00  0.00    +0.000 C 
ATOM      7  C   UNL     1       2.647   8.344  18.036  0.00  0.00    +0.000 C 
ATOM      8  O   UNL     1       2.523   9.211  17.171  0.00  0.00    +0.000 OA
ATOM      9  C   UNL     1       1.947   8.455  19.355  0.00  0.00    +0.000 C 
ATOM     10  C   UNL     1       1.070   9.471  19.496  0.00  0.00    +0.000 C 
ATOM     11  C   UNL     1       2.265   7.463  20.430  0.00  0.00    +0.000 C 
ENDROOT
BRANCH   6  12
ATOM     12  C   UNL     1       4.773   5.812  16.126  0.00  0.00    +0.000 A 
ATOM     13  C   UNL     1       5.850   6.024  15.256  0.00  0.00    +0.000 A 
ATOM     14  C   UNL     1       6.657   4.954  14.864  0.00  0.00    +0.000 A 
ATOM     15  C   UNL     1       6.395   3.672  15.343  0.00  0.00    +0.000 A 
ATOM     16  C   UNL     1       5.317   3.453  16.201  0.00  0.00    +0.000 A 
ATOM     17  C   UNL     1       4.502   4.521  16.587  0.00  0.00    +0.000 A 
ENDBRANCH   6  12
BRANCH  10  18
ATOM     18  C   UNL     1       0.375   9.776  20.749  0.00  0.00    +0.000 A 
ATOM     19  C   UNL     1      -0.029   8.730  21.586  0.00  0.00    +0.000 A 
ATOM     20  C   UNL     1      -0.718   9.003  22.770  0.00  0.00    +0.000 A 
ATOM     21  C   UNL     1      -1.004  10.320  23.122  0.00  0.00    +0.000 A 
ATOM     22  C   UNL     1      -0.606  11.366  22.291  0.00  0.00    +0.000 A 
ATOM     23  C   UNL     1       0.081  11.097  21.104  0.00  0.00    +0.000 A 
ENDBRANCH  10  18
BRANCH   1  24
ATOM     24  C   UNL     1       2.474   3.744  19.561  0.00  0.00    +0.000 C 
BRANCH  24  26
ATOM     25  C   UNL     1       0.703   2.157  18.740  0.00  0.00    +0.000 C 
ATOM     26  C   UNL     1       1.671   3.265  18.354  0.00  0.00    +0.000 C 
ENDBRANCH  24  26
ENDBRANCH   1  24
TORSDOF 4
ENDMDL
MODEL 5
REMARK VINA RESULT:      -7.5      3.163      9.308
REMARK  Name = 
REMARK  5 active torsions:
REMARK  status: ('A' for Active; 'I' for Inactive)
REMARK    1  A    between atoms: C_1  and  C_2
REMARK    2  A    between atoms: C_2  and  C_3
REMARK    3  A    between atoms: C_3  and  C_4
REMARK    4  A    between atoms: C_9  and  C_10
REMARK    5  A    between atoms: C_19  and  C_20
REMARK                            x       y       z     vdW  Elec       q    Type
REMARK                         _______ _______ _______ _____ _____    ______ ____
ROOT
ATOM      1  C   UNL     1      -1.590  10.706  18.680  0.00  0.00    +0.000 C 
ATOM      2  O   UNL     1      -1.492   9.814  17.837  0.00  0.00    +0.000 OA
ATOM      3  N   UNL     1      -0.655  10.868  19.693  0.00  0.00    +0.000 N 
ATOM      4  C   UNL     1      -0.724  11.846  20.761  0.00  0.00    +0.000 C 
ATOM      5  C   UNL     1      -0.818  11.126  22.067  0.00  0.00    +0.000 C 
ATOM      6  C   UNL     1      -1.556  11.524  23.123  0.00  0.00    +0.000 C 
ATOM      7  C   UNL     1      -0.048   9.852  22.230  0.00  0.00    +0.000 C 
ATOM      8  O   UNL     1       0.083   9.327  23.336  0.00  0.00    +0.000 OA
ATOM      9  C   UNL     1       0.568   9.251  21.005  0.00  0.00    +0.000 C 
ATOM     10  C   UNL     1       1.152   8.043  21.147  0.00  0.00    +0.000 C 
ATOM     11  C   UNL     1       0.521  10.018  19.720  0.00  0.00    +0.000 C 
ENDROOT
BRANCH   6  12
ATOM     12  C   UNL     1      -2.406  12.715  23.141  0.00  0.00    +0.000 A 
ATOM     13  C   UNL     1      -1.900  13.921  23.641  0.00  0.00    +0.000 A 
ATOM     14  C   UNL     1      -2.694  15.069  23.640  0.00  0.00    +0.000 A 
ATOM     15  C   UNL     1      -3.992  15.018  23.137  0.00  0.00    +0.000 A 
ATOM     16  C   UNL     1      -4.505  13.816  22.648  0.00  0.00    +0.000 A 
ATOM     17  C   UNL     1      -3.715  12.664  22.656  0.00  0.00    +0.000 A 
ENDBRANCH   6  12
BRANCH  10  18
ATOM     18  C   UNL     1       1.881   7.363  20.073  0.00  0.00    +0.000 A 
ATOM     19  C   UNL     1       2.288   8.088  18.948  0.00  0.00    +0.000 A 
ATOM     20  C   UNL     1       2.958   7.448  17.903  0.00  0.00    +0.000 A 
ATOM     21  C   UNL     1       3.225   6.083  17.979  0.00  0.00    +0.000 A 
ATOM     22  C   UNL     1       2.821   5.355  19.097  0.00  0.00    +0.000 A 
ATOM     23  C   UNL     1       2.147   5.991  20.143  0.00  0.00    +0.000 A 
ENDBRANCH  10  18
BRANCH   1  24
ATOM     24  C   UNL     1      -2.744  11.695  18.646  0.00  0.00    +0.000 C 
BRANCH  24  26
ATOM     25  C   UNL     1      -5.089  11.164  17.904  0.00  0.00    +0.000 C 
ATOM     26  C   UNL     1      -3.670  11.469  17.452  0.00  0.00    +0.000 C 
ENDBRANCH  24  26
ENDBRANCH   1  24
TORSDOF 4
ENDMDL
MODEL 6
REMARK VINA RESULT:      -7.5      2.995      9.286
REMARK  Name = 
REMARK  5 active torsions:
REMARK  status: ('A' for Active; 'I' for Inactive)
REMARK    1  A    between atoms: C_1  and  C_2
REMARK    2  A    between atoms: C_2  and  C_3
REMARK    3  A    between atoms: C_3  and  C_4
REMARK    4  A    between atoms: C_9  and  C_10
REMARK    5  A    between atoms: C_19  and  C_20
REMARK                            x       y       z     vdW  Elec       q    Type
REMARK                         _______ _______ _______ _____ _____    ______ ____
ROOT
ATOM      1  C   UNL     1      -1.277  10.824  18.568  0.00  0.00    +0.000 C 
ATOM      2  O   UNL     1      -1.214   9.948  17.706  0.00  0.00    +0.000 OA
ATOM      3  N   UNL     1      -0.355  10.909  19.602  0.00  0.00    +0.000 N 
ATOM      4  C   UNL     1      -0.389  11.864  20.692  0.00  0.00    +0.000 C 
ATOM      5  C   UNL     1      -0.550  11.122  21.978  0.00  0.00    +0.000 C 
ATOM      6  C   UNL     1      -1.284  11.537  23.029  0.00  0.00    +0.000 C 
ATOM      7  C   UNL     1       0.143   9.802  22.125  0.00  0.00    +0.000 C 
ATOM      8  O   UNL     1       0.223   9.246  23.220  0.00  0.00    +0.000 OA
ATOM      9  C   UNL     1       0.749   9.195  20.897  0.00  0.00    +0.000 C 
ATOM     10  C   UNL     1       1.259   7.953  21.021  0.00  0.00    +0.000 C 
ATOM     11  C   UNL     1       0.770   9.992  19.630  0.00  0.00    +0.000 C 
ENDROOT
BRANCH   6  12
ATOM     12  C   UNL     1      -2.065  12.774  23.061  0.00  0.00    +0.000 A 
ATOM     13  C   UNL     1      -1.489  13.946  23.565  0.00  0.00    +0.000 A 
ATOM     14  C   UNL     1      -2.217  15.137  23.577  0.00  0.00    +0.000 A 
ATOM     15  C   UNL     1      -3.519  15.163  23.081  0.00  0.00    +0.000 A 
ATOM     16  C   UNL     1      -4.102  13.996  22.587  0.00  0.00    +0.000 A 
ATOM     17  C   UNL     1      -3.378  12.801  22.583  0.00  0.00    +0.000 A 
ENDBRANCH   6  12
BRANCH  10  18
ATOM     18  C   UNL     1       1.970   7.256  19.945  0.00  0.00    +0.000 A 
ATOM     19  C   UNL     1       2.213   5.883  20.055  0.00  0.00    +0.000 A 
ATOM     20  C   UNL     1       2.914   5.210  19.052  0.00  0.00    +0.000 A 
ATOM     21  C   UNL     1       3.372   5.906  17.935  0.00  0.00    +0.000 A 
ATOM     22  C   UNL     1       3.134   7.275  17.821  0.00  0.00    +0.000 A 
ATOM     23  C   UNL     1       2.436   7.952  18.825  0.00  0.00    +0.000 A 
ENDBRANCH  10  18
BRANCH   1  24
ATOM     24  C   UNL     1      -2.373  11.878  18.537  0.00  0.00    +0.000 C 
BRANCH  24  26
ATOM     25  C   UNL     1      -4.867  11.891  18.871  0.00  0.00    +0.000 C 
ATOM     26  C   UNL     1      -3.712  11.312  18.068  0.00  0.00    +0.000 C 
ENDBRANCH  24  26
ENDBRANCH   1  24
TORSDOF 4
ENDMDL
MODEL 7
REMARK VINA RESULT:      -7.1      3.718      7.186
REMARK  Name = 
REMARK  5 active torsions:
REMARK  status: ('A' for Active; 'I' for Inactive)
REMARK    1  A    between atoms: C_1  and  C_2
REMARK    2  A    between atoms: C_2  and  C_3
REMARK    3  A    between atoms: C_3  and  C_4
REMARK    4  A    between atoms: C_9  and  C_10
REMARK    5  A    between atoms: C_19  and  C_20
REMARK                            x       y       z     vdW  Elec       q    Type
REMARK                         _______ _______ _______ _____ _____    ______ ____
ROOT
ATOM      1  C   UNL     1      -0.743  13.283  19.381  0.00  0.00    +0.000 C 
ATOM      2  O   UNL     1      -1.040  14.451  19.633  0.00  0.00    +0.000 OA
ATOM      3  N   UNL     1      -1.297  12.216  20.075  0.00  0.00    +0.000 N 
ATOM      4  C   UNL     1      -0.959  10.818  19.890  0.00  0.00    +0.000 C 
ATOM      5  C   UNL     1      -0.375  10.292  21.160  0.00  0.00    +0.000 C 
ATOM      6  C   UNL     1       0.636   9.405  21.243  0.00  0.00    +0.000 C 
ATOM      7  C   UNL     1      -0.936  10.790  22.457  0.00  0.00    +0.000 C 
ATOM      8  O   UNL     1      -0.648  10.247  23.523  0.00  0.00    +0.000 OA
ATOM      9  C   UNL     1      -1.873  11.957  22.405  0.00  0.00    +0.000 C 
ATOM     10  C   UNL     1      -2.272  12.470  23.588  0.00  0.00    +0.000 C 
ATOM     11  C   UNL     1      -2.321  12.468  21.071  0.00  0.00    +0.000 C 
ENDROOT
BRANCH   6  12
ATOM     12  C   UNL     1       1.341   8.838  20.092  0.00  0.00    +0.000 A 
ATOM     13  C   UNL     1       1.911   7.563  20.187  0.00  0.00    +0.000 A 
ATOM     14  C   UNL     1       2.565   7.003  19.087  0.00  0.00    +0.000 A 
ATOM     15  C   UNL     1       2.645   7.711  17.890  0.00  0.00    +0.000 A 
ATOM     16  C   UNL     1       2.087   8.986  17.793  0.00  0.00    +0.000 A 
ATOM     17  C   UNL     1       1.442   9.553  18.895  0.00  0.00    +0.000 A 
ENDBRANCH   6  12
BRANCH  10  18
ATOM     18  C   UNL     1      -3.257  13.547  23.714  0.00  0.00    +0.000 A 
ATOM     19  C   UNL     1      -4.622  13.239  23.698  0.00  0.00    +0.000 A 
ATOM     20  C   UNL     1      -5.574  14.257  23.788  0.00  0.00    +0.000 A 
ATOM     21  C   UNL     1      -5.166  15.585  23.897  0.00  0.00    +0.000 A 
ATOM     22  C   UNL     1      -3.807  15.897  23.912  0.00  0.00    +0.000 A 
ATOM     23  C   UNL     1      -2.852  14.881  23.818  0.00  0.00    +0.000 A 
ENDBRANCH  10  18
BRANCH   1  24
ATOM     24  C   UNL     1       0.247  12.946  18.277  0.00  0.00    +0.000 C 
BRANCH  24  26
ATOM     25  C   UNL     1       2.139  13.114  19.927  0.00  0.00    +0.000 C 
ATOM     26  C   UNL     1       1.638  13.516  18.549  0.00  0.00    +0.000 C 
ENDBRANCH  24  26
ENDBRANCH   1  24
TORSDOF 4
ENDMDL
MODEL 8
REMARK VINA RESULT:      -7.1      4.314     10.336
REMARK  Name = 
REMARK  5 active torsions:
REMARK  status: ('A' for Active; 'I' for Inactive)
REMARK    1  A    between atoms: C_1  and  C_2
REMARK    2  A    between atoms: C_2  and  C_3
REMARK    3  A    between atoms: C_3  and  C_4
REMARK    4  A    between atoms: C_9  and  C_10
REMARK    5  A    between atoms: C_19  and  C_20
REMARK                            x       y       z     vdW  Elec       q    Type
REMARK                         _______ _______ _______ _____ _____    ______ ____
ROOT
ATOM      1  C   UNL     1      -3.197  11.560  18.981  0.00  0.00    +0.000 C 
ATOM      2  O   UNL     1      -2.964  10.694  18.137  0.00  0.00    +0.000 OA
ATOM      3  N   UNL     1      -2.238  11.977  19.894  0.00  0.00    +0.000 N 
ATOM      4  C   UNL     1      -2.443  12.940  20.958  0.00  0.00    +0.000 C 
ATOM      5  C   UNL     1      -2.229  12.260  22.270  0.00  0.00    +0.000 C 
ATOM      6  C   UNL     1      -2.937  12.496  23.393  0.00  0.00    +0.000 C 
ATOM      7  C   UNL     1      -1.156  11.219  22.362  0.00  0.00    +0.000 C 
ATOM      8  O   UNL     1      -0.792  10.777  23.451  0.00  0.00    +0.000 OA
ATOM      9  C   UNL     1      -0.532  10.751  21.084  0.00  0.00    +0.000 C 
ATOM     10  C   UNL     1       0.343   9.728  21.172  0.00  0.00    +0.000 C 
ATOM     11  C   UNL     1      -0.892  11.443  19.806  0.00  0.00    +0.000 C 
ENDROOT
BRANCH   6  12
ATOM     12  C   UNL     1      -4.049  13.442  23.490  0.00  0.00    +0.000 A 
ATOM     13  C   UNL     1      -5.350  13.016  23.195  0.00  0.00    +0.000 A 
ATOM     14  C   UNL     1      -6.422  13.904  23.308  0.00  0.00    +0.000 A 
ATOM     15  C   UNL     1      -6.198  15.216  23.722  0.00  0.00    +0.000 A 
ATOM     16  C   UNL     1      -4.903  15.648  24.007  0.00  0.00    +0.000 A 
ATOM     17  C   UNL     1      -3.828  14.764  23.885  0.00  0.00    +0.000 A 
ENDBRANCH   6  12
BRANCH  10  18
ATOM     18  C   UNL     1       1.110   9.215  20.034  0.00  0.00    +0.000 A 
ATOM     19  C   UNL     1       1.228   9.991  18.876  0.00  0.00    +0.000 A 
ATOM     20  C   UNL     1       1.931   9.503  17.771  0.00  0.00    +0.000 A 
ATOM     21  C   UNL     1       2.520   8.242  17.822  0.00  0.00    +0.000 A 
ATOM     22  C   UNL     1       2.405   7.464  18.973  0.00  0.00    +0.000 A 
ATOM     23  C   UNL     1       1.699   7.947  20.078  0.00  0.00    +0.000 A 
ENDBRANCH  10  18
BRANCH   1  24
ATOM     24  C   UNL     1      -4.558  12.234  19.058  0.00  0.00    +0.000 C 
BRANCH  24  26
ATOM     25  C   UNL     1      -6.778  11.541  18.099  0.00  0.00    +0.000 C 
ATOM     26  C   UNL     1      -5.377  12.040  17.784  0.00  0.00    +0.000 C 
ENDBRANCH  24  26
ENDBRANCH   1  24
TORSDOF 4
ENDMDL
MODEL 9
REMARK VINA RESULT:      -7.1      3.850      7.352
REMARK  Name = 
REMARK  5 active torsions:
REMARK  status: ('A' for Active; 'I' for Inactive)
REMARK    1  A    between atoms: C_1  and  C_2
REMARK    2  A    between atoms: C_2  and  C_3
REMARK    3  A    between atoms: C_3  and  C_4
REMARK    4  A    between atoms: C_9  and  C_10
REMARK    5  A    between atoms: C_19  and  C_20
REMARK                            x       y       z     vdW  Elec       q    Type
REMARK                         _______ _______ _______ _____ _____    ______ ____
ROOT
ATOM      1  C   UNL     1      -0.802  13.454  19.454  0.00  0.00    +0.000 C 
ATOM      2  O   UNL     1      -1.091  14.619  19.728  0.00  0.00    +0.000 OA
ATOM      3  N   UNL     1      -1.371  12.377  20.120  0.00  0.00    +0.000 N 
ATOM      4  C   UNL     1      -1.044  10.981  19.908  0.00  0.00    +0.000 C 
ATOM      5  C   UNL     1      -0.476  10.423  21.172  0.00  0.00    +0.000 C 
ATOM      6  C   UNL     1       0.526   9.525  21.244  0.00  0.00    +0.000 C 
ATOM      7  C   UNL     1      -1.045  10.897  22.474  0.00  0.00    +0.000 C 
ATOM      8  O   UNL     1      -0.772  10.330  23.530  0.00  0.00    +0.000 OA
ATOM      9  C   UNL     1      -1.971  12.074  22.439  0.00  0.00    +0.000 C 
ATOM     10  C   UNL     1      -2.377  12.565  23.628  0.00  0.00    +0.000 C 
ATOM     11  C   UNL     1      -2.402  12.617  21.112  0.00  0.00    +0.000 C 
ENDROOT
BRANCH   6  12
ATOM     12  C   UNL     1       1.236   8.977  20.088  0.00  0.00    +0.000 A 
ATOM     13  C   UNL     1       1.323   9.726  18.909  0.00  0.00    +0.000 A 
ATOM     14  C   UNL     1       2.019   9.223  17.807  0.00  0.00    +0.000 A 
ATOM     15  C   UNL     1       2.634   7.975  17.883  0.00  0.00    +0.000 A 
ATOM     16  C   UNL     1       2.541   7.220  19.053  0.00  0.00    +0.000 A 
ATOM     17  C   UNL     1       1.837   7.717  20.152  0.00  0.00    +0.000 A 
ENDBRANCH   6  12
BRANCH  10  18
ATOM     18  C   UNL     1      -3.354  13.648  23.769  0.00  0.00    +0.000 A 
ATOM     19  C   UNL     1      -4.719  13.366  23.646  0.00  0.00    +0.000 A 
ATOM     20  C   UNL     1      -5.661  14.392  23.748  0.00  0.00    +0.000 A 
ATOM     21  C   UNL     1      -5.243  15.701  23.975  0.00  0.00    +0.000 A 
ATOM     22  C   UNL     1      -3.884  15.988  24.097  0.00  0.00    +0.000 A 
ATOM     23  C   UNL     1      -2.939  14.965  23.991  0.00  0.00    +0.000 A 
ENDBRANCH  10  18
BRANCH   1  24
ATOM     24  C   UNL     1       0.195  13.132  18.352  0.00  0.00    +0.000 C 
BRANCH  24  26
ATOM     25  C   UNL     1       2.699  12.933  18.210  0.00  0.00    +0.000 C 
ATOM     26  C   UNL     1       1.531  13.845  18.549  0.00  0.00    +0.000 C 
ENDBRANCH  24  26
ENDBRANCH   1  24
TORSDOF 4
ENDMDL
