MODEL 1
REMARK VINA RESULT:      -8.0      0.000      0.000
REMARK  Name = 
REMARK  7 active torsions:
REMARK  status: ('A' for Active; 'I' for Inactive)
REMARK    1  A    between atoms: C_1  and  C_2
REMARK    2  A    between atoms: C_6  and  C_7
REMARK    3  A    between atoms: C_8  and  O_9
REMARK    4  A    between atoms: O_9  and  C_10
REMARK    5  A    between atoms: C_10  and  C_11
REMARK    6  A    between atoms: C_15  and  C_16
REMARK    7  A    between atoms: C_22  and  C_23
REMARK                            x       y       z     vdW  Elec       q    Type
REMARK                         _______ _______ _______ _____ _____    ______ ____
ROOT
ATOM      1  C   UNL     1      -4.209  14.359  21.576  0.00  0.00    +0.000 A 
ATOM      2  N   UNL     1      -3.732  13.472  20.595  0.00  0.00    +0.000 NA
ATOM      3  C   UNL     1      -2.654  12.954  21.153  0.00  0.00    +0.000 A 
ATOM      4  C   UNL     1      -1.618  11.949  20.748  0.00  0.00    +0.000 A 
ATOM      5  C   UNL     1      -1.308  11.070  19.656  0.00  0.00    +0.000 A 
ATOM      6  C   UNL     1      -0.119  10.424  20.041  0.00  0.00    +0.000 A 
ATOM      7  O   UNL     1       0.252  10.854  21.288  0.00  0.00    +0.000 OA
ATOM      8  C   UNL     1      -0.638  11.771  21.723  0.00  0.00    +0.000 A 
ATOM      9  N   UNL     1      -0.500  12.375  22.940  0.00  0.00    +0.000 NA
ATOM     10  C   UNL     1      -1.428  13.242  23.251  0.00  0.00    +0.000 A 
ATOM     11  N   UNL     1      -2.481  13.527  22.389  0.00  0.00    +0.000 N 
ATOM     12  N   UNL     1      -3.434  14.428  22.675  0.00  0.00    +0.000 NA
ENDROOT
BRANCH   5  13
ATOM     13  C   UNL     1      -1.989  10.835  18.381  0.00  0.00    +0.000 A 
ATOM     14  C   UNL     1      -1.929  11.782  17.353  0.00  0.00    +0.000 A 
ATOM     15  C   UNL     1      -2.503  11.516  16.102  0.00  0.00    +0.000 A 
ATOM     16  C   UNL     1      -3.132  10.297  15.855  0.00  0.00    +0.000 A 
ATOM     17  C   UNL     1      -3.219   9.353  16.871  0.00  0.00    +0.000 A 
ATOM     18  C   UNL     1      -2.681   9.635  18.130  0.00  0.00    +0.000 A 
ENDBRANCH   5  13
BRANCH   6  19
ATOM     19  C   UNL     1       0.835   9.439  19.496  0.00  0.00    +0.000 A 
ATOM     20  C   UNL     1       1.318   9.498  18.181  0.00  0.00    +0.000 A 
ATOM     21  C   UNL     1       2.199   8.524  17.686  0.00  0.00    +0.000 A 
ATOM     22  C   UNL     1       2.646   7.495  18.510  0.00  0.00    +0.000 A 
ATOM     23  C   UNL     1       2.212   7.438  19.829  0.00  0.00    +0.000 A 
ATOM     24  C   UNL     1       1.315   8.396  20.314  0.00  0.00    +0.000 A 
ENDBRANCH   6  19
BRANCH   1  25
ATOM     25  C   UNL     1      -5.396  15.299  21.412  0.00  0.00    +0.000 C 
BRANCH  25  26
ATOM     26  O   UNL     1      -6.584  14.645  20.948  0.00  0.00    +0.000 OA
BRANCH  26  34
ATOM     27  C   UNL     1      -6.521  16.507  18.370  0.00  0.00    +0.000 C 
ATOM     28  C   UNL     1      -6.717  15.019  18.457  0.00  0.00    +0.000 A 
ATOM     29  C   UNL     1      -6.901  14.373  17.207  0.00  0.00    +0.000 A 
ATOM     30  C   UNL     1      -7.117  13.003  17.106  0.00  0.00    +0.000 A 
ATOM     31  C   UNL     1      -7.161  12.244  18.261  0.00  0.00    +0.000 A 
ATOM     32  C   UNL     1      -6.982  12.848  19.520  0.00  0.00    +0.000 A 
ATOM     33  C   UNL     1      -7.064  11.961  20.735  0.00  0.00    +0.000 C 
ATOM     34  C   UNL     1      -6.748  14.246  19.639  0.00  0.00    +0.000 A 
ENDBRANCH  26  34
ENDBRANCH  25  26
ENDBRANCH   1  25
TORSDOF 5
ENDMDL
MODEL 2
REMARK VINA RESULT:      -7.8      3.258      6.255
REMARK  Name = 
REMARK  7 active torsions:
REMARK  status: ('A' for Active; 'I' for Inactive)
REMARK    1  A    between atoms: C_1  and  C_2
REMARK    2  A    between atoms: C_6  and  C_7
REMARK    3  A    between atoms: C_8  and  O_9
REMARK    4  A    between atoms: O_9  and  C_10
REMARK    5  A    between atoms: C_10  and  C_11
REMARK    6  A    between atoms: C_15  and  C_16
REMARK    7  A    between atoms: C_22  and  C_23
REMARK                            x       y       z     vdW  Elec       q    Type
REMARK                         _______ _______ _______ _____ _____    ______ ____
ROOT
ATOM      1  C   UNL     1      -0.101  10.132  20.888  0.00  0.00    +0.000 A 
ATOM      2  N   UNL     1       0.376   8.832  20.649  0.00  0.00    +0.000 NA
ATOM      3  C   UNL     1       1.217   8.996  19.645  0.00  0.00    +0.000 A 
ATOM      4  C   UNL     1       2.108   8.101  18.839  0.00  0.00    +0.000 A 
ATOM      5  C   UNL     1       2.512   6.725  18.771  0.00  0.00    +0.000 A 
ATOM      6  C   UNL     1       3.414   6.668  17.693  0.00  0.00    +0.000 A 
ATOM      7  O   UNL     1       3.574   7.921  17.164  0.00  0.00    +0.000 OA
ATOM      8  C   UNL     1       2.794   8.790  17.840  0.00  0.00    +0.000 A 
ATOM      9  N   UNL     1       2.752  10.115  17.509  0.00  0.00    +0.000 NA
ATOM     10  C   UNL     1       1.963  10.857  18.242  0.00  0.00    +0.000 A 
ATOM     11  N   UNL     1       1.215  10.322  19.285  0.00  0.00    +0.000 N 
ATOM     12  N   UNL     1       0.382  11.058  20.037  0.00  0.00    +0.000 NA
ENDROOT
BRANCH   5  13
ATOM     13  C   UNL     1       2.122   5.563  19.573  0.00  0.00    +0.000 A 
ATOM     14  C   UNL     1       1.325   4.552  19.025  0.00  0.00    +0.000 A 
ATOM     15  C   UNL     1       1.030   3.397  19.763  0.00  0.00    +0.000 A 
ATOM     16  C   UNL     1       1.536   3.229  21.050  0.00  0.00    +0.000 A 
ATOM     17  C   UNL     1       2.312   4.231  21.617  0.00  0.00    +0.000 A 
ATOM     18  C   UNL     1       2.574   5.401  20.896  0.00  0.00    +0.000 A 
ENDBRANCH   5  13
BRANCH   6  19
ATOM     19  C   UNL     1       4.221   5.663  16.974  0.00  0.00    +0.000 A 
ATOM     20  C   UNL     1       4.153   4.292  17.259  0.00  0.00    +0.000 A 
ATOM     21  C   UNL     1       4.960   3.368  16.576  0.00  0.00    +0.000 A 
ATOM     22  C   UNL     1       5.820   3.794  15.567  0.00  0.00    +0.000 A 
ATOM     23  C   UNL     1       5.875   5.143  15.240  0.00  0.00    +0.000 A 
ATOM     24  C   UNL     1       5.088   6.066  15.938  0.00  0.00    +0.000 A 
ENDBRANCH   6  19
BRANCH   1  25
ATOM     25  C   UNL     1      -1.181  10.504  21.895  0.00  0.00    +0.000 C 
BRANCH  25  26
ATOM     26  O   UNL     1      -1.588  11.876  21.816  0.00  0.00    +0.000 OA
BRANCH  26  34
ATOM     27  C   UNL     1      -2.539  12.017  18.784  0.00  0.00    +0.000 C 
ATOM     28  C   UNL     1      -3.316  12.326  20.034  0.00  0.00    +0.000 A 
ATOM     29  C   UNL     1      -4.655  12.738  19.810  0.00  0.00    +0.000 A 
ATOM     30  C   UNL     1      -5.507  13.082  20.853  0.00  0.00    +0.000 A 
ATOM     31  C   UNL     1      -5.035  13.028  22.151  0.00  0.00    +0.000 A 
ATOM     32  C   UNL     1      -3.713  12.624  22.414  0.00  0.00    +0.000 A 
ATOM     33  C   UNL     1      -3.261  12.609  23.852  0.00  0.00    +0.000 C 
ATOM     34  C   UNL     1      -2.831  12.256  21.359  0.00  0.00    +0.000 A 
ENDBRANCH  26  34
ENDBRANCH  25  26
ENDBRANCH   1  25
TORSDOF 5
ENDMDL
MODEL 3
REMARK VINA RESULT:      -7.7      4.457      9.161
REMARK  Name = 
REMARK  7 active torsions:
REMARK  status: ('A' for Active; 'I' for Inactive)
REMARK    1  A    between atoms: C_1  and  C_2
REMARK    2  A    between atoms: C_6  and  C_7
REMARK    3  A    between atoms: C_8  and  O_9
REMARK    4  A    between atoms: O_9  and  C_10
REMARK    5  A    between atoms: C_10  and  C_11
REMARK    6  A    between atoms: C_15  and  C_16
REMARK    7  A    between atoms: C_22  and  C_23
REMARK                            x       y       z     vdW  Elec       q    Type
REMARK                         _______ _______ _______ _____ _____    ______ ____
ROOT
ATOM      1  C   UNL     1       1.563   8.432  19.994  0.00  0.00    +0.000 A 
ATOM      2  N   UNL     1       1.466   9.832  19.919  0.00  0.00    +0.000 NA
ATOM      3  C   UNL     1       0.715  10.141  20.959  0.00  0.00    +0.000 A 
ATOM      4  C   UNL     1       0.175  11.408  21.550  0.00  0.00    +0.000 A 
ATOM      5  C   UNL     1       0.224  12.827  21.339  0.00  0.00    +0.000 A 
ATOM      6  C   UNL     1      -0.581  13.370  22.357  0.00  0.00    +0.000 A 
ATOM      7  O   UNL     1      -1.059  12.360  23.149  0.00  0.00    +0.000 OA
ATOM      8  C   UNL     1      -0.616  11.177  22.675  0.00  0.00    +0.000 A 
ATOM      9  N   UNL     1      -0.955   9.997  23.274  0.00  0.00    +0.000 NA
ATOM     10  C   UNL     1      -0.459   8.919  22.725  0.00  0.00    +0.000 A 
ATOM     11  N   UNL     1       0.357   8.981  21.601  0.00  0.00    +0.000 N 
ATOM     12  N   UNL     1       0.862   7.888  21.006  0.00  0.00    +0.000 NA
ENDROOT
BRANCH   5  13
ATOM     13  C   UNL     1       0.904  13.630  20.320  0.00  0.00    +0.000 A 
ATOM     14  C   UNL     1       0.198  14.570  19.562  0.00  0.00    +0.000 A 
ATOM     15  C   UNL     1       0.866  15.401  18.653  0.00  0.00    +0.000 A 
ATOM     16  C   UNL     1       2.248  15.316  18.497  0.00  0.00    +0.000 A 
ATOM     17  C   UNL     1       2.962  14.374  19.226  0.00  0.00    +0.000 A 
ATOM     18  C   UNL     1       2.291  13.518  20.104  0.00  0.00    +0.000 A 
ENDBRANCH   5  13
BRANCH   6  19
ATOM     19  C   UNL     1      -1.059  14.692  22.807  0.00  0.00    +0.000 A 
ATOM     20  C   UNL     1      -2.414  14.972  23.034  0.00  0.00    +0.000 A 
ATOM     21  C   UNL     1      -2.835  16.250  23.430  0.00  0.00    +0.000 A 
ATOM     22  C   UNL     1      -1.904  17.263  23.647  0.00  0.00    +0.000 A 
ATOM     23  C   UNL     1      -0.552  16.999  23.466  0.00  0.00    +0.000 A 
ATOM     24  C   UNL     1      -0.136  15.730  23.048  0.00  0.00    +0.000 A 
ENDBRANCH   6  19
BRANCH   1  25
ATOM     25  C   UNL     1       2.252   7.540  18.969  0.00  0.00    +0.000 C 
BRANCH  25  26
ATOM     26  O   UNL     1       2.716   6.298  19.513  0.00  0.00    +0.000 OA
BRANCH  26  34
ATOM     27  C   UNL     1       4.482   5.763  16.922  0.00  0.00    +0.000 C 
ATOM     28  C   UNL     1       3.534   4.834  17.629  0.00  0.00    +0.000 A 
ATOM     29  C   UNL     1       3.422   3.545  17.043  0.00  0.00    +0.000 A 
ATOM     30  C   UNL     1       2.575   2.571  17.557  0.00  0.00    +0.000 A 
ATOM     31  C   UNL     1       1.810   2.865  18.670  0.00  0.00    +0.000 A 
ATOM     32  C   UNL     1       1.893   4.131  19.280  0.00  0.00    +0.000 A 
ATOM     33  C   UNL     1       1.014   4.387  20.477  0.00  0.00    +0.000 C 
ATOM     34  C   UNL     1       2.765   5.136  18.774  0.00  0.00    +0.000 A 
ENDBRANCH  26  34
ENDBRANCH  25  26
ENDBRANCH   1  25
TORSDOF 5
ENDMDL
MODEL 4
REMARK VINA RESULT:      -7.6      4.433      9.182
REMARK  Name = 
REMARK  7 active torsions:
REMARK  status: ('A' for Active; 'I' for Inactive)
REMARK    1  A    between atoms: C_1  and  C_2
REMARK    2  A    between atoms: C_6  and  C_7
REMARK    3  A    between atoms: C_8  and  O_9
REMARK    4  A    between atoms: O_9  and  C_10
REMARK    5  A    between atoms: C_10  and  C_11
REMARK    6  A    between atoms: C_15  and  C_16
REMARK    7  A    between atoms: C_22  and  C_23
REMARK                            x       y       z     vdW  Elec       q    Type
REMARK                         _______ _______ _______ _____ _____    ______ ____
ROOT
ATOM      1  C   UNL     1       1.520   8.672  19.770  0.00  0.00    +0.000 A 
ATOM      2  N   UNL     1       1.291  10.059  19.790  0.00  0.00    +0.000 NA
ATOM      3  C   UNL     1       0.604  10.236  20.903  0.00  0.00    +0.000 A 
ATOM      4  C   UNL     1       0.003  11.412  21.612  0.00  0.00    +0.000 A 
ATOM      5  C   UNL     1      -0.094  12.838  21.488  0.00  0.00    +0.000 A 
ATOM      6  C   UNL     1      -0.858  13.246  22.597  0.00  0.00    +0.000 A 
ATOM      7  O   UNL     1      -1.176  12.153  23.358  0.00  0.00    +0.000 OA
ATOM      8  C   UNL     1      -0.668  11.045  22.778  0.00  0.00    +0.000 A 
ATOM      9  N   UNL     1      -0.849   9.807  23.327  0.00  0.00    +0.000 NA
ATOM     10  C   UNL     1      -0.305   8.813  22.674  0.00  0.00    +0.000 A 
ATOM     11  N   UNL     1       0.406   9.014  21.496  0.00  0.00    +0.000 N 
ATOM     12  N   UNL     1       0.956   8.009  20.797  0.00  0.00    +0.000 NA
ENDROOT
BRANCH   5  13
ATOM     13  C   UNL     1       0.424  13.757  20.471  0.00  0.00    +0.000 A 
ATOM     14  C   UNL     1      -0.440  14.386  19.569  0.00  0.00    +0.000 A 
ATOM     15  C   UNL     1       0.046  15.334  18.658  0.00  0.00    +0.000 A 
ATOM     16  C   UNL     1       1.396  15.678  18.644  0.00  0.00    +0.000 A 
ATOM     17  C   UNL     1       2.272  15.049  19.518  0.00  0.00    +0.000 A 
ATOM     18  C   UNL     1       1.794  14.074  20.401  0.00  0.00    +0.000 A 
ENDBRANCH   5  13
BRANCH   6  19
ATOM     19  C   UNL     1      -1.413  14.490  23.165  0.00  0.00    +0.000 A 
ATOM     20  C   UNL     1      -2.592  14.516  23.924  0.00  0.00    +0.000 A 
ATOM     21  C   UNL     1      -3.109  15.723  24.420  0.00  0.00    +0.000 A 
ATOM     22  C   UNL     1      -2.434  16.921  24.202  0.00  0.00    +0.000 A 
ATOM     23  C   UNL     1      -1.243  16.914  23.486  0.00  0.00    +0.000 A 
ATOM     24  C   UNL     1      -0.742  15.714  22.971  0.00  0.00    +0.000 A 
ENDBRANCH   6  19
BRANCH   1  25
ATOM     25  C   UNL     1       2.198   7.907  18.641  0.00  0.00    +0.000 C 
BRANCH  25  26
ATOM     26  O   UNL     1       3.013   6.819  19.096  0.00  0.00    +0.000 OA
BRANCH  26  34
ATOM     27  C   UNL     1       1.110   4.618  20.382  0.00  0.00    +0.000 C 
ATOM     28  C   UNL     1       1.999   4.511  19.174  0.00  0.00    +0.000 A 
ATOM     29  C   UNL     1       1.976   3.244  18.534  0.00  0.00    +0.000 A 
ATOM     30  C   UNL     1       2.754   2.965  17.417  0.00  0.00    +0.000 A 
ATOM     31  C   UNL     1       3.584   3.950  16.914  0.00  0.00    +0.000 A 
ATOM     32  C   UNL     1       3.635   5.220  17.520  0.00  0.00    +0.000 A 
ATOM     33  C   UNL     1       4.577   6.237  16.930  0.00  0.00    +0.000 C 
ATOM     34  C   UNL     1       2.835   5.525  18.658  0.00  0.00    +0.000 A 
ENDBRANCH  26  34
ENDBRANCH  25  26
ENDBRANCH   1  25
TORSDOF 5
ENDMDL
MODEL 5
REMARK VINA RESULT:      -7.6      3.271      6.217
REMARK  Name = 
REMARK  7 active torsions:
REMARK  status: ('A' for Active; 'I' for Inactive)
REMARK    1  A    between atoms: C_1  and  C_2
REMARK    2  A    between atoms: C_6  and  C_7
REMARK    3  A    between atoms: C_8  and  O_9
REMARK    4  A    between atoms: O_9  and  C_10
REMARK    5  A    between atoms: C_10  and  C_11
REMARK    6  A    between atoms: C_15  and  C_16
REMARK    7  A    between atoms: C_22  and  C_23
REMARK                            x       y       z     vdW  Elec       q    Type
REMARK                         _______ _______ _______ _____ _____    ______ ____
ROOT
ATOM      1  C   UNL     1      -0.068  10.067  20.828  0.00  0.00    +0.000 A 
ATOM      2  N   UNL     1       0.432   8.784  20.550  0.00  0.00    +0.000 NA
ATOM      3  C   UNL     1       1.278   8.996  19.559  0.00  0.00    +0.000 A 
ATOM      4  C   UNL     1       2.191   8.143  18.731  0.00  0.00    +0.000 A 
ATOM      5  C   UNL     1       2.617   6.777  18.620  0.00  0.00    +0.000 A 
ATOM      6  C   UNL     1       3.529   6.771  17.548  0.00  0.00    +0.000 A 
ATOM      7  O   UNL     1       3.672   8.043  17.063  0.00  0.00    +0.000 OA
ATOM      8  C   UNL     1       2.873   8.877  17.762  0.00  0.00    +0.000 A 
ATOM      9  N   UNL     1       2.812  10.211  17.476  0.00  0.00    +0.000 NA
ATOM     10  C   UNL     1       2.005  10.915  18.227  0.00  0.00    +0.000 A 
ATOM     11  N   UNL     1       1.258  10.332  19.244  0.00  0.00    +0.000 N 
ATOM     12  N   UNL     1       0.407  11.029  20.014  0.00  0.00    +0.000 NA
ENDROOT
BRANCH   5  13
ATOM     13  C   UNL     1       2.240   5.581  19.377  0.00  0.00    +0.000 A 
ATOM     14  C   UNL     1       2.632   5.427  20.711  0.00  0.00    +0.000 A 
ATOM     15  C   UNL     1       2.194   4.327  21.462  0.00  0.00    +0.000 A 
ATOM     16  C   UNL     1       1.348   3.375  20.897  0.00  0.00    +0.000 A 
ATOM     17  C   UNL     1       0.965   3.501  19.568  0.00  0.00    +0.000 A 
ATOM     18  C   UNL     1       1.434   4.577  18.808  0.00  0.00    +0.000 A 
ENDBRANCH   5  13
BRANCH   6  19
ATOM     19  C   UNL     1       4.358   5.804  16.802  0.00  0.00    +0.000 A 
ATOM     20  C   UNL     1       5.168   6.176  15.720  0.00  0.00    +0.000 A 
ATOM     21  C   UNL     1       5.917   5.223  15.013  0.00  0.00    +0.000 A 
ATOM     22  C   UNL     1       5.902   3.886  15.400  0.00  0.00    +0.000 A 
ATOM     23  C   UNL     1       5.137   3.499  16.494  0.00  0.00    +0.000 A 
ATOM     24  C   UNL     1       4.372   4.447  17.183  0.00  0.00    +0.000 A 
ENDBRANCH   6  19
BRANCH   1  25
ATOM     25  C   UNL     1      -1.163  10.387  21.838  0.00  0.00    +0.000 C 
BRANCH  25  26
ATOM     26  O   UNL     1      -1.536  11.771  21.857  0.00  0.00    +0.000 OA
BRANCH  26  34
ATOM     27  C   UNL     1      -2.494  12.032  18.835  0.00  0.00    +0.000 C 
ATOM     28  C   UNL     1      -3.252  12.338  20.097  0.00  0.00    +0.000 A 
ATOM     29  C   UNL     1      -4.575  12.811  19.892  0.00  0.00    +0.000 A 
ATOM     30  C   UNL     1      -5.407  13.161  20.949  0.00  0.00    +0.000 A 
ATOM     31  C   UNL     1      -4.931  13.053  22.242  0.00  0.00    +0.000 A 
ATOM     32  C   UNL     1      -3.625  12.588  22.487  0.00  0.00    +0.000 A 
ATOM     33  C   UNL     1      -3.168  12.516  23.921  0.00  0.00    +0.000 C 
ATOM     34  C   UNL     1      -2.765  12.214  21.417  0.00  0.00    +0.000 A 
ENDBRANCH  26  34
ENDBRANCH  25  26
ENDBRANCH   1  25
TORSDOF 5
ENDMDL
MODEL 6
REMARK VINA RESULT:      -7.5      4.372      9.434
REMARK  Name = 
REMARK  7 active torsions:
REMARK  status: ('A' for Active; 'I' for Inactive)
REMARK    1  A    between atoms: C_1  and  C_2
REMARK    2  A    between atoms: C_6  and  C_7
REMARK    3  A    between atoms: C_8  and  O_9
REMARK    4  A    between atoms: O_9  and  C_10
REMARK    5  A    between atoms: C_10  and  C_11
REMARK    6  A    between atoms: C_15  and  C_16
REMARK    7  A    between atoms: C_22  and  C_23
REMARK                            x       y       z     vdW  Elec       q    Type
REMARK                         _______ _______ _______ _____ _____    ______ ____
ROOT
ATOM      1  C   UNL     1       1.822   8.684  19.154  0.00  0.00    +0.000 A 
ATOM      2  N   UNL     1       1.464  10.029  19.352  0.00  0.00    +0.000 NA
ATOM      3  C   UNL     1       0.813  10.004  20.499  0.00  0.00    +0.000 A 
ATOM      4  C   UNL     1       0.136  11.022  21.366  0.00  0.00    +0.000 A 
ATOM      5  C   UNL     1      -0.101  12.436  21.420  0.00  0.00    +0.000 A 
ATOM      6  C   UNL     1      -0.850  12.631  22.595  0.00  0.00    +0.000 A 
ATOM      7  O   UNL     1      -1.030  11.430  23.227  0.00  0.00    +0.000 OA
ATOM      8  C   UNL     1      -0.446  10.455  22.499  0.00  0.00    +0.000 A 
ATOM      9  N   UNL     1      -0.485   9.149  22.898  0.00  0.00    +0.000 NA
ATOM     10  C   UNL     1       0.122   8.298  22.112  0.00  0.00    +0.000 A 
ATOM     11  N   UNL     1       0.758   8.706  20.945  0.00  0.00    +0.000 N 
ATOM     12  N   UNL     1       1.369   7.851  20.110  0.00  0.00    +0.000 NA
ENDROOT
BRANCH   5  13
ATOM     13  C   UNL     1       0.283  13.517  20.508  0.00  0.00    +0.000 A 
ATOM     14  C   UNL     1      -0.568  13.912  19.471  0.00  0.00    +0.000 A 
ATOM     15  C   UNL     1      -0.240  15.005  18.657  0.00  0.00    +0.000 A 
ATOM     16  C   UNL     1       0.932  15.726  18.875  0.00  0.00    +0.000 A 
ATOM     17  C   UNL     1       1.798  15.335  19.887  0.00  0.00    +0.000 A 
ATOM     18  C   UNL     1       1.491  14.220  20.674  0.00  0.00    +0.000 A 
ENDBRANCH   5  13
BRANCH   6  19
ATOM     19  C   UNL     1      -1.495  13.738  23.329  0.00  0.00    +0.000 A 
ATOM     20  C   UNL     1      -2.824  13.679  23.774  0.00  0.00    +0.000 A 
ATOM     21  C   UNL     1      -3.414  14.764  24.440  0.00  0.00    +0.000 A 
ATOM     22  C   UNL     1      -2.675  15.913  24.710  0.00  0.00    +0.000 A 
ATOM     23  C   UNL     1      -1.345  15.979  24.313  0.00  0.00    +0.000 A 
ATOM     24  C   UNL     1      -0.765  14.906  23.627  0.00  0.00    +0.000 A 
ENDBRANCH   6  19
BRANCH   1  25
ATOM     25  C   UNL     1       2.519   8.129  17.919  0.00  0.00    +0.000 C 
BRANCH  25  26
ATOM     26  O   UNL     1       3.710   7.390  18.218  0.00  0.00    +0.000 OA
BRANCH  26  34
ATOM     27  C   UNL     1       1.776   4.865  18.184  0.00  0.00    +0.000 C 
ATOM     28  C   UNL     1       3.157   5.006  17.607  0.00  0.00    +0.000 A 
ATOM     29  C   UNL     1       3.651   3.840  16.964  0.00  0.00    +0.000 A 
ATOM     30  C   UNL     1       4.917   3.790  16.394  0.00  0.00    +0.000 A 
ATOM     31  C   UNL     1       5.728   4.909  16.460  0.00  0.00    +0.000 A 
ATOM     32  C   UNL     1       5.274   6.084  17.089  0.00  0.00    +0.000 A 
ATOM     33  C   UNL     1       6.219   7.256  17.141  0.00  0.00    +0.000 C 
ATOM     34  C   UNL     1       3.975   6.156  17.666  0.00  0.00    +0.000 A 
ENDBRANCH  26  34
ENDBRANCH  25  26
ENDBRANCH   1  25
TORSDOF 5
ENDMDL
MODEL 7
REMARK VINA RESULT:      -7.5      2.749      8.794
REMARK  Name = 
REMARK  7 active torsions:
REMARK  status: ('A' for Active; 'I' for Inactive)
REMARK    1  A    between atoms: C_1  and  C_2
REMARK    2  A    between atoms: C_6  and  C_7
REMARK    3  A    between atoms: C_8  and  O_9
REMARK    4  A    between atoms: O_9  and  C_10
REMARK    5  A    between atoms: C_10  and  C_11
REMARK    6  A    between atoms: C_15  and  C_16
REMARK    7  A    between atoms: C_22  and  C_23
REMARK                            x       y       z     vdW  Elec       q    Type
REMARK                         _______ _______ _______ _____ _____    ______ ____
ROOT
ATOM      1  C   UNL     1       1.482   8.459  19.369  0.00  0.00    +0.000 A 
ATOM      2  N   UNL     1       0.339   9.183  18.988  0.00  0.00    +0.000 NA
ATOM      3  C   UNL     1       0.023   9.851  20.081  0.00  0.00    +0.000 A 
ATOM      4  C   UNL     1      -1.049  10.824  20.468  0.00  0.00    +0.000 A 
ATOM      5  C   UNL     1      -2.169  11.511  19.891  0.00  0.00    +0.000 A 
ATOM      6  C   UNL     1      -2.700  12.279  20.943  0.00  0.00    +0.000 A 
ATOM      7  O   UNL     1      -1.942  12.099  22.069  0.00  0.00    +0.000 OA
ATOM      8  C   UNL     1      -0.949  11.225  21.799  0.00  0.00    +0.000 A 
ATOM      9  N   UNL     1      -0.047  10.856  22.756  0.00  0.00    +0.000 NA
ATOM     10  C   UNL     1       0.871  10.008  22.372  0.00  0.00    +0.000 A 
ATOM     11  N   UNL     1       0.914   9.516  21.071  0.00  0.00    +0.000 N 
ATOM     12  N   UNL     1       1.833   8.629  20.658  0.00  0.00    +0.000 NA
ENDROOT
BRANCH   5  13
ATOM     13  C   UNL     1      -2.731  11.478  18.539  0.00  0.00    +0.000 A 
ATOM     14  C   UNL     1      -1.911  11.253  17.429  0.00  0.00    +0.000 A 
ATOM     15  C   UNL     1      -2.462  11.130  16.146  0.00  0.00    +0.000 A 
ATOM     16  C   UNL     1      -3.840  11.218  15.955  0.00  0.00    +0.000 A 
ATOM     17  C   UNL     1      -4.668  11.462  17.043  0.00  0.00    +0.000 A 
ATOM     18  C   UNL     1      -4.114  11.623  18.317  0.00  0.00    +0.000 A 
ENDBRANCH   5  13
BRANCH   6  19
ATOM     19  C   UNL     1      -3.826  13.204  21.183  0.00  0.00    +0.000 A 
ATOM     20  C   UNL     1      -3.762  14.571  20.877  0.00  0.00    +0.000 A 
ATOM     21  C   UNL     1      -4.841  15.426  21.150  0.00  0.00    +0.000 A 
ATOM     22  C   UNL     1      -6.019  14.924  21.696  0.00  0.00    +0.000 A 
ATOM     23  C   UNL     1      -6.119  13.565  21.971  0.00  0.00    +0.000 A 
ATOM     24  C   UNL     1      -5.034  12.718  21.721  0.00  0.00    +0.000 A 
ENDBRANCH   6  19
BRANCH   1  25
ATOM     25  C   UNL     1       2.211   7.441  18.502  0.00  0.00    +0.000 C 
BRANCH  25  26
ATOM     26  O   UNL     1       2.744   6.336  19.244  0.00  0.00    +0.000 OA
BRANCH  26  34
ATOM     27  C   UNL     1       4.631   5.470  16.834  0.00  0.00    +0.000 C 
ATOM     28  C   UNL     1       3.694   4.626  17.652  0.00  0.00    +0.000 A 
ATOM     29  C   UNL     1       3.658   3.255  17.282  0.00  0.00    +0.000 A 
ATOM     30  C   UNL     1       2.832   2.339  17.920  0.00  0.00    +0.000 A 
ATOM     31  C   UNL     1       2.012   2.773  18.945  0.00  0.00    +0.000 A 
ATOM     32  C   UNL     1       2.019   4.124  19.341  0.00  0.00    +0.000 A 
ATOM     33  C   UNL     1       1.084   4.530  20.451  0.00  0.00    +0.000 C 
ATOM     34  C   UNL     1       2.868   5.073  18.707  0.00  0.00    +0.000 A 
ENDBRANCH  26  34
ENDBRANCH  25  26
ENDBRANCH   1  25
TORSDOF 5
ENDMDL
MODEL 8
REMARK VINA RESULT:      -7.5      4.295      9.152
REMARK  Name = 
REMARK  7 active torsions:
REMARK  status: ('A' for Active; 'I' for Inactive)
REMARK    1  A    between atoms: C_1  and  C_2
REMARK    2  A    between atoms: C_6  and  C_7
REMARK    3  A    between atoms: C_8  and  O_9
REMARK    4  A    between atoms: O_9  and  C_10
REMARK    5  A    between atoms: C_10  and  C_11
REMARK    6  A    between atoms: C_15  and  C_16
REMARK    7  A    between atoms: C_22  and  C_23
REMARK                            x       y       z     vdW  Elec       q    Type
REMARK                         _______ _______ _______ _____ _____    ______ ____
ROOT
ATOM      1  C   UNL     1       1.456   8.807  19.814  0.00  0.00    +0.000 A 
ATOM      2  N   UNL     1       1.244  10.196  19.838  0.00  0.00    +0.000 NA
ATOM      3  C   UNL     1       0.539  10.377  20.939  0.00  0.00    +0.000 A 
ATOM      4  C   UNL     1      -0.061  11.556  21.644  0.00  0.00    +0.000 A 
ATOM      5  C   UNL     1      -0.138  12.984  21.525  0.00  0.00    +0.000 A 
ATOM      6  C   UNL     1      -0.917  13.395  22.622  0.00  0.00    +0.000 A 
ATOM      7  O   UNL     1      -1.262  12.302  23.372  0.00  0.00    +0.000 OA
ATOM      8  C   UNL     1      -0.757  11.192  22.795  0.00  0.00    +0.000 A 
ATOM      9  N   UNL     1      -0.963   9.953  23.334  0.00  0.00    +0.000 NA
ATOM     10  C   UNL     1      -0.419   8.956  22.687  0.00  0.00    +0.000 A 
ATOM     11  N   UNL     1       0.316   9.154  21.522  0.00  0.00    +0.000 N 
ATOM     12  N   UNL     1       0.866   8.146  20.828  0.00  0.00    +0.000 NA
ENDROOT
BRANCH   5  13
ATOM     13  C   UNL     1       0.409  13.902  20.523  0.00  0.00    +0.000 A 
ATOM     14  C   UNL     1       1.777  13.908  20.231  0.00  0.00    +0.000 A 
ATOM     15  C   UNL     1       2.286  14.721  19.209  0.00  0.00    +0.000 A 
ATOM     16  C   UNL     1       1.436  15.528  18.455  0.00  0.00    +0.000 A 
ATOM     17  C   UNL     1       0.078  15.550  18.745  0.00  0.00    +0.000 A 
ATOM     18  C   UNL     1      -0.424  14.769  19.791  0.00  0.00    +0.000 A 
ENDBRANCH   5  13
BRANCH   6  19
ATOM     19  C   UNL     1      -1.468  14.643  23.187  0.00  0.00    +0.000 A 
ATOM     20  C   UNL     1      -0.693  15.546  23.929  0.00  0.00    +0.000 A 
ATOM     21  C   UNL     1      -1.259  16.706  24.479  0.00  0.00    +0.000 A 
ATOM     22  C   UNL     1      -2.601  17.007  24.262  0.00  0.00    +0.000 A 
ATOM     23  C   UNL     1      -3.379  16.147  23.496  0.00  0.00    +0.000 A 
ATOM     24  C   UNL     1      -2.819  14.978  22.969  0.00  0.00    +0.000 A 
ENDBRANCH   6  19
BRANCH   1  25
ATOM     25  C   UNL     1       2.145   8.040  18.694  0.00  0.00    +0.000 C 
BRANCH  25  26
ATOM     26  O   UNL     1       2.970   6.965  19.161  0.00  0.00    +0.000 OA
BRANCH  26  34
ATOM     27  C   UNL     1       1.087   4.690  20.344  0.00  0.00    +0.000 C 
ATOM     28  C   UNL     1       2.017   4.629  19.165  0.00  0.00    +0.000 A 
ATOM     29  C   UNL     1       2.049   3.374  18.501  0.00  0.00    +0.000 A 
ATOM     30  C   UNL     1       2.869   3.137  17.405  0.00  0.00    +0.000 A 
ATOM     31  C   UNL     1       3.688   4.153  16.947  0.00  0.00    +0.000 A 
ATOM     32  C   UNL     1       3.685   5.412  17.577  0.00  0.00    +0.000 A 
ATOM     33  C   UNL     1       4.618   6.464  17.037  0.00  0.00    +0.000 C 
ATOM     34  C   UNL     1       2.842   5.674  18.693  0.00  0.00    +0.000 A 
ENDBRANCH  26  34
ENDBRANCH  25  26
ENDBRANCH   1  25
TORSDOF 5
ENDMDL
MODEL 9
REMARK VINA RESULT:      -7.5      4.431      9.130
REMARK  Name = 
REMARK  7 active torsions:
REMARK  status: ('A' for Active; 'I' for Inactive)
REMARK    1  A    between atoms: C_1  and  C_2
REMARK    2  A    between atoms: C_6  and  C_7
REMARK    3  A    between atoms: C_8  and  O_9
REMARK    4  A    between atoms: O_9  and  C_10
REMARK    5  A    between atoms: C_10  and  C_11
REMARK    6  A    between atoms: C_15  and  C_16
REMARK    7  A    between atoms: C_22  and  C_23
REMARK                            x       y       z     vdW  Elec       q    Type
REMARK                         _______ _______ _______ _____ _____    ______ ____
ROOT
ATOM      1  C   UNL     1       1.415   8.831  20.000  0.00  0.00    +0.000 A 
ATOM      2  N   UNL     1       1.317  10.232  19.980  0.00  0.00    +0.000 NA
ATOM      3  C   UNL     1       0.569  10.500  21.034  0.00  0.00    +0.000 A 
ATOM      4  C   UNL     1       0.030  11.743  21.675  0.00  0.00    +0.000 A 
ATOM      5  C   UNL     1       0.077  13.169  21.519  0.00  0.00    +0.000 A 
ATOM      6  C   UNL     1      -0.725  13.671  22.560  0.00  0.00    +0.000 A 
ATOM      7  O   UNL     1      -1.200  12.632  23.314  0.00  0.00    +0.000 OA
ATOM      8  C   UNL     1      -0.757  11.468  22.793  0.00  0.00    +0.000 A 
ATOM      9  N   UNL     1      -1.093  10.266  23.347  0.00  0.00    +0.000 NA
ATOM     10  C   UNL     1      -0.598   9.210  22.756  0.00  0.00    +0.000 A 
ATOM     11  N   UNL     1       0.214   9.316  21.631  0.00  0.00    +0.000 N 
ATOM     12  N   UNL     1       0.717   8.247  20.993  0.00  0.00    +0.000 NA
ENDROOT
BRANCH   5  13
ATOM     13  C   UNL     1       0.753  14.011  20.529  0.00  0.00    +0.000 A 
ATOM     14  C   UNL     1       2.123  13.866  20.284  0.00  0.00    +0.000 A 
ATOM     15  C   UNL     1       2.749  14.608  19.273  0.00  0.00    +0.000 A 
ATOM     16  C   UNL     1       2.017  15.494  18.485  0.00  0.00    +0.000 A 
ATOM     17  C   UNL     1       0.660  15.666  18.729  0.00  0.00    +0.000 A 
ATOM     18  C   UNL     1       0.043  14.954  19.763  0.00  0.00    +0.000 A 
ENDBRANCH   5  13
BRANCH   6  19
ATOM     19  C   UNL     1      -1.202  14.975  23.062  0.00  0.00    +0.000 A 
ATOM     20  C   UNL     1      -0.330  15.993  23.475  0.00  0.00    +0.000 A 
ATOM     21  C   UNL     1      -0.820  17.208  23.979  0.00  0.00    +0.000 A 
ATOM     22  C   UNL     1      -2.191  17.443  24.041  0.00  0.00    +0.000 A 
ATOM     23  C   UNL     1      -3.074  16.464  23.601  0.00  0.00    +0.000 A 
ATOM     24  C   UNL     1      -2.584  15.244  23.121  0.00  0.00    +0.000 A 
ENDBRANCH   6  19
BRANCH   1  25
ATOM     25  C   UNL     1       2.100   7.979  18.940  0.00  0.00    +0.000 C 
BRANCH  25  26
ATOM     26  O   UNL     1       2.733   6.807  19.469  0.00  0.00    +0.000 OA
BRANCH  26  34
ATOM     27  C   UNL     1       4.604   6.486  16.917  0.00  0.00    +0.000 C 
ATOM     28  C   UNL     1       3.743   5.456  17.593  0.00  0.00    +0.000 A 
ATOM     29  C   UNL     1       3.781   4.169  16.996  0.00  0.00    +0.000 A 
ATOM     30  C   UNL     1       3.030   3.105  17.481  0.00  0.00    +0.000 A 
ATOM     31  C   UNL     1       2.213   3.306  18.578  0.00  0.00    +0.000 A 
ATOM     32  C   UNL     1       2.148   4.567  19.199  0.00  0.00    +0.000 A 
ATOM     33  C   UNL     1       1.220   4.718  20.377  0.00  0.00    +0.000 C 
ATOM     34  C   UNL     1       2.920   5.664  18.722  0.00  0.00    +0.000 A 
ENDBRANCH  26  34
ENDBRANCH  25  26
ENDBRANCH   1  25
TORSDOF 5
ENDMDL
