MODEL 1
REMARK VINA RESULT:      -7.5      0.000      0.000
REMARK  Name = 
REMARK  3 active torsions:
REMARK  status: ('A' for Active; 'I' for Inactive)
REMARK    1  A    between atoms: C_2  and  C_19
REMARK    2  A    between atoms: N_3  and  C_4
REMARK    3  A    between atoms: C_10  and  C_12
REMARK                            x       y       z     vdW  Elec       q    Type
REMARK                         _______ _______ _______ _____ _____    ______ ____
ROOT
ATOM      1  C   UNL     1       7.413   5.417  17.379  0.00  0.00    +0.000 C 
ATOM      2  C   UNL     1       7.384   6.675  18.209  0.00  0.00    +0.000 C 
ATOM      3  C   UNL     1       6.168   5.785  18.164  0.00  0.00    +0.000 C 
ATOM      4  C   UNL     1       5.829   4.971  19.402  0.00  0.00    +0.000 C 
ATOM      5  C   UNL     1       4.895   3.817  19.020  0.00  0.00    +0.000 C 
ATOM      6  N   UNL     1       3.707   4.350  18.342  0.00  0.00    +0.000 N 
ATOM      7  C   UNL     1       2.379   4.293  18.768  0.00  0.00    +0.000 C 
ATOM      8  O   UNL     1       1.463   4.722  18.059  0.00  0.00    +0.000 OA
ATOM      9  C   UNL     1       4.024   5.059  17.101  0.00  0.00    +0.000 C 
ATOM     10  C   UNL     1       4.934   6.255  17.409  0.00  0.00    +0.000 C 
ENDROOT
BRANCH   7  11
ATOM     11  C   UNL     1       2.061   3.702  20.059  0.00  0.00    +0.000 A 
ATOM     12  C   UNL     1       1.382   2.504  20.435  0.00  0.00    +0.000 A 
ATOM     13  C   UNL     1       1.308   2.498  21.807  0.00  0.00    +0.000 A 
ATOM     14  O   UNL     1       1.992   3.549  22.318  0.00  0.00    +0.000 OA
ATOM     15  C   UNL     1       2.472   4.253  21.262  0.00  0.00    +0.000 A 
ENDBRANCH   7  11
BRANCH   1  18
ATOM     16  O   UNL     1       6.414   3.439  15.628  0.00  0.00    +0.000 OA
ATOM     17  C   UNL     1       6.929   4.451  15.165  0.00  0.00    +0.000 C 
ATOM     18  N   UNL     1       7.428   5.478  15.948  0.00  0.00    +0.000 N 
ATOM     19  H   UNL     1       7.894   6.261  15.510  0.00  0.00    +0.000 HD
BRANCH  17  20
ATOM     20  C   UNL     1       7.078   4.599  13.690  0.00  0.00    +0.000 A 
ATOM     21  C   UNL     1       7.823   5.628  13.101  0.00  0.00    +0.000 A 
ATOM     22  C   UNL     1       7.912   5.716  11.709  0.00  0.00    +0.000 A 
ATOM     23  C   UNL     1       7.261   4.780  10.902  0.00  0.00    +0.000 A 
ATOM     24  C   UNL     1       6.518   3.757  11.483  0.00  0.00    +0.000 A 
ATOM     25  C   UNL     1       6.421   3.667  12.871  0.00  0.00    +0.000 A 
ENDBRANCH  17  20
ENDBRANCH   1  18
TORSDOF 3
ENDMDL
MODEL 2
REMARK VINA RESULT:      -7.4      3.080      3.712
REMARK  Name = 
REMARK  3 active torsions:
REMARK  status: ('A' for Active; 'I' for Inactive)
REMARK    1  A    between atoms: C_2  and  C_19
REMARK    2  A    between atoms: N_3  and  C_4
REMARK    3  A    between atoms: C_10  and  C_12
REMARK                            x       y       z     vdW  Elec       q    Type
REMARK                         _______ _______ _______ _____ _____    ______ ____
ROOT
ATOM      1  C   UNL     1       4.928   4.332  17.781  0.00  0.00    +0.000 C 
ATOM      2  C   UNL     1       5.958   4.833  18.760  0.00  0.00    +0.000 C 
ATOM      3  C   UNL     1       4.748   5.678  18.458  0.00  0.00    +0.000 C 
ATOM      4  C   UNL     1       3.679   5.810  19.531  0.00  0.00    +0.000 C 
ATOM      5  C   UNL     1       2.366   6.280  18.894  0.00  0.00    +0.000 C 
ATOM      6  N   UNL     1       2.596   7.530  18.158  0.00  0.00    +0.000 N 
ATOM      7  C   UNL     1       2.051   8.789  18.416  0.00  0.00    +0.000 C 
ATOM      8  O   UNL     1       2.276   9.746  17.668  0.00  0.00    +0.000 OA
ATOM      9  C   UNL     1       3.560   7.384  17.067  0.00  0.00    +0.000 C 
ATOM     10  C   UNL     1       4.917   6.945  17.633  0.00  0.00    +0.000 C 
ENDROOT
BRANCH   7  11
ATOM     11  C   UNL     1       1.189   8.978  19.572  0.00  0.00    +0.000 A 
ATOM     12  C   UNL     1       1.228   8.466  20.904  0.00  0.00    +0.000 A 
ATOM     13  C   UNL     1       0.103   8.927  21.545  0.00  0.00    +0.000 A 
ATOM     14  O   UNL     1      -0.574   9.783  20.744  0.00  0.00    +0.000 OA
ATOM     15  C   UNL     1       0.101   9.836  19.569  0.00  0.00    +0.000 A 
ENDBRANCH   7  11
BRANCH   1  18
ATOM     16  O   UNL     1       7.500   4.439  16.620  0.00  0.00    +0.000 OA
ATOM     17  C   UNL     1       6.516   4.322  15.898  0.00  0.00    +0.000 C 
ATOM     18  N   UNL     1       5.221   4.243  16.383  0.00  0.00    +0.000 N 
ATOM     19  H   UNL     1       4.446   4.207  15.735  0.00  0.00    +0.000 HD
BRANCH  17  20
ATOM     20  C   UNL     1       6.681   4.299  14.417  0.00  0.00    +0.000 A 
ATOM     21  C   UNL     1       5.974   3.421  13.587  0.00  0.00    +0.000 A 
ATOM     22  C   UNL     1       6.185   3.444  12.206  0.00  0.00    +0.000 A 
ATOM     23  C   UNL     1       7.100   4.341  11.649  0.00  0.00    +0.000 A 
ATOM     24  C   UNL     1       7.807   5.214  12.470  0.00  0.00    +0.000 A 
ATOM     25  C   UNL     1       7.603   5.192  13.850  0.00  0.00    +0.000 A 
ENDBRANCH  17  20
ENDBRANCH   1  18
TORSDOF 3
ENDMDL
MODEL 3
REMARK VINA RESULT:      -7.0      6.566      8.733
REMARK  Name = 
REMARK  3 active torsions:
REMARK  status: ('A' for Active; 'I' for Inactive)
REMARK    1  A    between atoms: C_2  and  C_19
REMARK    2  A    between atoms: N_3  and  C_4
REMARK    3  A    between atoms: C_10  and  C_12
REMARK                            x       y       z     vdW  Elec       q    Type
REMARK                         _______ _______ _______ _____ _____    ______ ____
ROOT
ATOM      1  C   UNL     1       0.594  11.232  20.605  0.00  0.00    +0.000 C 
ATOM      2  C   UNL     1      -0.835  10.842  20.328  0.00  0.00    +0.000 C 
ATOM      3  C   UNL     1       0.271   9.853  20.062  0.00  0.00    +0.000 C 
ATOM      4  C   UNL     1       0.406   8.660  20.994  0.00  0.00    +0.000 C 
ATOM      5  C   UNL     1       1.812   8.064  20.865  0.00  0.00    +0.000 C 
ATOM      6  N   UNL     1       2.077   7.726  19.461  0.00  0.00    +0.000 N 
ATOM      7  C   UNL     1       2.304   6.463  18.912  0.00  0.00    +0.000 C 
ATOM      8  O   UNL     1       2.588   6.330  17.716  0.00  0.00    +0.000 OA
ATOM      9  C   UNL     1       2.035   8.889  18.574  0.00  0.00    +0.000 C 
ATOM     10  C   UNL     1       0.640   9.524  18.623  0.00  0.00    +0.000 C 
ENDROOT
BRANCH   7  11
ATOM     11  C   UNL     1       2.226   5.283  19.759  0.00  0.00    +0.000 A 
ATOM     12  C   UNL     1       1.151   4.674  20.474  0.00  0.00    +0.000 A 
ATOM     13  C   UNL     1       1.682   3.616  21.171  0.00  0.00    +0.000 A 
ATOM     14  O   UNL     1       2.987   3.452  20.853  0.00  0.00    +0.000 OA
ATOM     15  C   UNL     1       3.302   4.438  19.976  0.00  0.00    +0.000 A 
ENDBRANCH   7  11
BRANCH   1  18
ATOM     16  O   UNL     1       1.632  13.701  21.503  0.00  0.00    +0.000 OA
ATOM     17  C   UNL     1       1.727  13.401  20.318  0.00  0.00    +0.000 C 
ATOM     18  N   UNL     1       1.263  12.206  19.795  0.00  0.00    +0.000 N 
ATOM     19  H   UNL     1       1.316  12.041  18.799  0.00  0.00    +0.000 HD
BRANCH  17  20
ATOM     20  C   UNL     1       2.331  14.365  19.355  0.00  0.00    +0.000 A 
ATOM     21  C   UNL     1       3.541  14.122  18.695  0.00  0.00    +0.000 A 
ATOM     22  C   UNL     1       4.058  15.075  17.813  0.00  0.00    +0.000 A 
ATOM     23  C   UNL     1       3.372  16.270  17.587  0.00  0.00    +0.000 A 
ATOM     24  C   UNL     1       2.170  16.517  18.244  0.00  0.00    +0.000 A 
ATOM     25  C   UNL     1       1.652  15.572  19.129  0.00  0.00    +0.000 A 
ENDBRANCH  17  20
ENDBRANCH   1  18
TORSDOF 3
ENDMDL
MODEL 4
REMARK VINA RESULT:      -7.0      6.473      8.691
REMARK  Name = 
REMARK  3 active torsions:
REMARK  status: ('A' for Active; 'I' for Inactive)
REMARK    1  A    between atoms: C_2  and  C_19
REMARK    2  A    between atoms: N_3  and  C_4
REMARK    3  A    between atoms: C_10  and  C_12
REMARK                            x       y       z     vdW  Elec       q    Type
REMARK                         _______ _______ _______ _____ _____    ______ ____
ROOT
ATOM      1  C   UNL     1       0.668  11.075  20.803  0.00  0.00    +0.000 C 
ATOM      2  C   UNL     1      -0.764  10.712  20.506  0.00  0.00    +0.000 C 
ATOM      3  C   UNL     1       0.330   9.716  20.220  0.00  0.00    +0.000 C 
ATOM      4  C   UNL     1       0.442   8.496  21.119  0.00  0.00    +0.000 C 
ATOM      5  C   UNL     1       1.841   7.884  20.984  0.00  0.00    +0.000 C 
ATOM      6  N   UNL     1       2.111   7.581  19.572  0.00  0.00    +0.000 N 
ATOM      7  C   UNL     1       2.324   6.331  18.989  0.00  0.00    +0.000 C 
ATOM      8  O   UNL     1       2.614   6.227  17.792  0.00  0.00    +0.000 OA
ATOM      9  C   UNL     1       2.091   8.768  18.717  0.00  0.00    +0.000 C 
ATOM     10  C   UNL     1       0.704   9.422  18.775  0.00  0.00    +0.000 C 
ENDROOT
BRANCH   7  11
ATOM     11  C   UNL     1       2.224   5.129  19.803  0.00  0.00    +0.000 A 
ATOM     12  C   UNL     1       1.124   4.480  20.440  0.00  0.00    +0.000 A 
ATOM     13  C   UNL     1       1.638   3.416  21.142  0.00  0.00    +0.000 A 
ATOM     14  O   UNL     1       2.962   3.288  20.896  0.00  0.00    +0.000 OA
ATOM     15  C   UNL     1       3.304   4.302  20.062  0.00  0.00    +0.000 A 
ENDBRANCH   7  11
BRANCH   1  18
ATOM     16  O   UNL     1       1.188  13.737  21.591  0.00  0.00    +0.000 OA
ATOM     17  C   UNL     1       1.553  13.352  20.485  0.00  0.00    +0.000 C 
ATOM     18  N   UNL     1       1.356  12.061  20.025  0.00  0.00    +0.000 N 
ATOM     19  H   UNL     1       1.626  11.819  19.082  0.00  0.00    +0.000 HD
BRANCH  17  20
ATOM     20  C   UNL     1       2.209  14.306  19.547  0.00  0.00    +0.000 A 
ATOM     21  C   UNL     1       1.811  15.642  19.421  0.00  0.00    +0.000 A 
ATOM     22  C   UNL     1       2.461  16.481  18.513  0.00  0.00    +0.000 A 
ATOM     23  C   UNL     1       3.508  15.991  17.728  0.00  0.00    +0.000 A 
ATOM     24  C   UNL     1       3.905  14.663  17.847  0.00  0.00    +0.000 A 
ATOM     25  C   UNL     1       3.256  13.820  18.749  0.00  0.00    +0.000 A 
ENDBRANCH  17  20
ENDBRANCH   1  18
TORSDOF 3
ENDMDL
MODEL 5
REMARK VINA RESULT:      -6.8      7.004      9.172
REMARK  Name = 
REMARK  3 active torsions:
REMARK  status: ('A' for Active; 'I' for Inactive)
REMARK    1  A    between atoms: C_2  and  C_19
REMARK    2  A    between atoms: N_3  and  C_4
REMARK    3  A    between atoms: C_10  and  C_12
REMARK                            x       y       z     vdW  Elec       q    Type
REMARK                         _______ _______ _______ _____ _____    ______ ____
ROOT
ATOM      1  C   UNL     1       1.795   9.216  19.050  0.00  0.00    +0.000 C 
ATOM      2  C   UNL     1       0.795   9.504  17.960  0.00  0.00    +0.000 C 
ATOM      3  C   UNL     1       0.577  10.073  19.338  0.00  0.00    +0.000 C 
ATOM      4  C   UNL     1       0.775  11.566  19.538  0.00  0.00    +0.000 C 
ATOM      5  C   UNL     1       0.979  11.863  21.029  0.00  0.00    +0.000 C 
ATOM      6  N   UNL     1      -0.154  11.329  21.796  0.00  0.00    +0.000 N 
ATOM      7  C   UNL     1      -1.090  12.038  22.549  0.00  0.00    +0.000 C 
ATOM      8  O   UNL     1      -1.955  11.451  23.208  0.00  0.00    +0.000 OA
ATOM      9  C   UNL     1      -0.293   9.877  21.675  0.00  0.00    +0.000 C 
ATOM     10  C   UNL     1      -0.534   9.502  20.208  0.00  0.00    +0.000 C 
ENDROOT
BRANCH   7  11
ATOM     11  C   UNL     1      -1.040  13.492  22.577  0.00  0.00    +0.000 A 
ATOM     12  C   UNL     1      -0.966  14.479  21.549  0.00  0.00    +0.000 A 
ATOM     13  C   UNL     1      -0.868  15.700  22.171  0.00  0.00    +0.000 A 
ATOM     14  O   UNL     1      -0.990  15.555  23.511  0.00  0.00    +0.000 OA
ATOM     15  C   UNL     1      -1.127  14.226  23.749  0.00  0.00    +0.000 A 
ENDBRANCH   7  11
BRANCH   1  18
ATOM     16  O   UNL     1       3.262   7.079  17.928  0.00  0.00    +0.000 OA
ATOM     17  C   UNL     1       2.650   6.907  18.977  0.00  0.00    +0.000 C 
ATOM     18  N   UNL     1       1.922   7.902  19.605  0.00  0.00    +0.000 N 
ATOM     19  H   UNL     1       1.390   7.684  20.437  0.00  0.00    +0.000 HD
BRANCH  17  20
ATOM     20  C   UNL     1       2.636   5.560  19.615  0.00  0.00    +0.000 A 
ATOM     21  C   UNL     1       1.709   5.195  20.599  0.00  0.00    +0.000 A 
ATOM     22  C   UNL     1       1.759   3.919  21.165  0.00  0.00    +0.000 A 
ATOM     23  C   UNL     1       2.731   3.004  20.754  0.00  0.00    +0.000 A 
ATOM     24  C   UNL     1       3.656   3.363  19.778  0.00  0.00    +0.000 A 
ATOM     25  C   UNL     1       3.614   4.638  19.213  0.00  0.00    +0.000 A 
ENDBRANCH  17  20
ENDBRANCH   1  18
TORSDOF 3
ENDMDL
MODEL 6
REMARK VINA RESULT:      -6.7      6.831      9.185
REMARK  Name = 
REMARK  3 active torsions:
REMARK  status: ('A' for Active; 'I' for Inactive)
REMARK    1  A    between atoms: C_2  and  C_19
REMARK    2  A    between atoms: N_3  and  C_4
REMARK    3  A    between atoms: C_10  and  C_12
REMARK                            x       y       z     vdW  Elec       q    Type
REMARK                         _______ _______ _______ _____ _____    ______ ____
ROOT
ATOM      1  C   UNL     1       2.054   8.918  18.919  0.00  0.00    +0.000 C 
ATOM      2  C   UNL     1       1.359   9.295  17.636  0.00  0.00    +0.000 C 
ATOM      3  C   UNL     1       0.953   9.961  18.926  0.00  0.00    +0.000 C 
ATOM      4  C   UNL     1       1.339  11.417  19.133  0.00  0.00    +0.000 C 
ATOM      5  C   UNL     1       1.275  11.758  20.626  0.00  0.00    +0.000 C 
ATOM      6  N   UNL     1      -0.061  11.441  21.146  0.00  0.00    +0.000 N 
ATOM      7  C   UNL     1      -1.009  12.322  21.669  0.00  0.00    +0.000 C 
ATOM      8  O   UNL     1      -2.073  11.907  22.141  0.00  0.00    +0.000 OA
ATOM      9  C   UNL     1      -0.400  10.022  21.028  0.00  0.00    +0.000 C 
ATOM     10  C   UNL     1      -0.389   9.611  19.550  0.00  0.00    +0.000 C 
ENDROOT
BRANCH   7  11
ATOM     11  C   UNL     1      -0.737  13.751  21.679  0.00  0.00    +0.000 A 
ATOM     12  C   UNL     1      -0.733  14.743  20.652  0.00  0.00    +0.000 A 
ATOM     13  C   UNL     1      -0.325  15.920  21.233  0.00  0.00    +0.000 A 
ATOM     14  O   UNL     1      -0.186  15.759  22.570  0.00  0.00    +0.000 OA
ATOM     15  C   UNL     1      -0.467  14.459  22.838  0.00  0.00    +0.000 A 
ENDBRANCH   7  11
BRANCH   1  18
ATOM     16  O   UNL     1       3.228   6.496  18.061  0.00  0.00    +0.000 OA
ATOM     17  C   UNL     1       2.459   6.490  19.017  0.00  0.00    +0.000 C 
ATOM     18  N   UNL     1       1.855   7.631  19.515  0.00  0.00    +0.000 N 
ATOM     19  H   UNL     1       1.185   7.554  20.269  0.00  0.00    +0.000 HD
BRANCH  17  20
ATOM     20  C   UNL     1       2.105   5.200  19.676  0.00  0.00    +0.000 A 
ATOM     21  C   UNL     1       2.397   4.927  21.017  0.00  0.00    +0.000 A 
ATOM     22  C   UNL     1       2.048   3.692  21.570  0.00  0.00    +0.000 A 
ATOM     23  C   UNL     1       1.408   2.728  20.788  0.00  0.00    +0.000 A 
ATOM     24  C   UNL     1       1.118   2.994  19.454  0.00  0.00    +0.000 A 
ATOM     25  C   UNL     1       1.469   4.223  18.895  0.00  0.00    +0.000 A 
ENDBRANCH  17  20
ENDBRANCH   1  18
TORSDOF 3
ENDMDL
MODEL 7
REMARK VINA RESULT:      -6.7      6.927      9.168
REMARK  Name = 
REMARK  3 active torsions:
REMARK  status: ('A' for Active; 'I' for Inactive)
REMARK    1  A    between atoms: C_2  and  C_19
REMARK    2  A    between atoms: N_3  and  C_4
REMARK    3  A    between atoms: C_10  and  C_12
REMARK                            x       y       z     vdW  Elec       q    Type
REMARK                         _______ _______ _______ _____ _____    ______ ____
ROOT
ATOM      1  C   UNL     1       1.854   9.125  18.996  0.00  0.00    +0.000 C 
ATOM      2  C   UNL     1       1.033   9.633  17.839  0.00  0.00    +0.000 C 
ATOM      3  C   UNL     1       0.742  10.130  19.231  0.00  0.00    +0.000 C 
ATOM      4  C   UNL     1       1.122  11.560  19.577  0.00  0.00    +0.000 C 
ATOM      5  C   UNL     1       1.195  11.720  21.099  0.00  0.00    +0.000 C 
ATOM      6  N   UNL     1      -0.080  11.306  21.699  0.00  0.00    +0.000 N 
ATOM      7  C   UNL     1      -0.988  12.092  22.411  0.00  0.00    +0.000 C 
ATOM      8  O   UNL     1      -1.995  11.594  22.926  0.00  0.00    +0.000 OA
ATOM      9  C   UNL     1      -0.406   9.903  21.442  0.00  0.00    +0.000 C 
ATOM     10  C   UNL     1      -0.529   9.670  19.931  0.00  0.00    +0.000 C 
ENDROOT
BRANCH   7  11
ATOM     11  C   UNL     1      -0.740  13.517  22.568  0.00  0.00    +0.000 A 
ATOM     12  C   UNL     1      -0.172  14.502  21.705  0.00  0.00    +0.000 A 
ATOM     13  C   UNL     1      -0.118  15.676  22.417  0.00  0.00    +0.000 A 
ATOM     14  O   UNL     1      -0.717  15.522  23.621  0.00  0.00    +0.000 OA
ATOM     15  C   UNL     1      -1.119  14.228  23.694  0.00  0.00    +0.000 A 
ENDBRANCH   7  11
BRANCH   1  18
ATOM     16  O   UNL     1       3.207   6.893  17.917  0.00  0.00    +0.000 OA
ATOM     17  C   UNL     1       2.424   6.733  18.848  0.00  0.00    +0.000 C 
ATOM     18  N   UNL     1       1.733   7.772  19.448  0.00  0.00    +0.000 N 
ATOM     19  H   UNL     1       1.057   7.570  20.172  0.00  0.00    +0.000 HD
BRANCH  17  20
ATOM     20  C   UNL     1       2.149   5.360  19.358  0.00  0.00    +0.000 A 
ATOM     21  C   UNL     1       1.810   4.292  18.519  0.00  0.00    +0.000 A 
ATOM     22  C   UNL     1       1.552   3.032  19.064  0.00  0.00    +0.000 A 
ATOM     23  C   UNL     1       1.631   2.833  20.445  0.00  0.00    +0.000 A 
ATOM     24  C   UNL     1       1.966   3.892  21.282  0.00  0.00    +0.000 A 
ATOM     25  C   UNL     1       2.219   5.154  20.744  0.00  0.00    +0.000 A 
ENDBRANCH  17  20
ENDBRANCH   1  18
TORSDOF 3
ENDMDL
MODEL 8
REMARK VINA RESULT:      -6.7      7.306      9.360
REMARK  Name = 
REMARK  3 active torsions:
REMARK  status: ('A' for Active; 'I' for Inactive)
REMARK    1  A    between atoms: C_2  and  C_19
REMARK    2  A    between atoms: N_3  and  C_4
REMARK    3  A    between atoms: C_10  and  C_12
REMARK                            x       y       z     vdW  Elec       q    Type
REMARK                         _______ _______ _______ _____ _____    ______ ____
ROOT
ATOM      1  C   UNL     1       1.461   9.682  18.915  0.00  0.00    +0.000 C 
ATOM      2  C   UNL     1       0.352   9.895  17.918  0.00  0.00    +0.000 C 
ATOM      3  C   UNL     1       0.205  10.430  19.319  0.00  0.00    +0.000 C 
ATOM      4  C   UNL     1       0.294  11.933  19.526  0.00  0.00    +0.000 C 
ATOM      5  C   UNL     1       0.598  12.232  20.998  0.00  0.00    +0.000 C 
ATOM      6  N   UNL     1      -0.417  11.597  21.849  0.00  0.00    +0.000 N 
ATOM      7  C   UNL     1      -1.342  12.218  22.689  0.00  0.00    +0.000 C 
ATOM      8  O   UNL     1      -2.096  11.554  23.409  0.00  0.00    +0.000 OA
ATOM      9  C   UNL     1      -0.445  10.140  21.717  0.00  0.00    +0.000 C 
ATOM     10  C   UNL     1      -0.777   9.760  20.268  0.00  0.00    +0.000 C 
ENDROOT
BRANCH   7  11
ATOM     11  C   UNL     1      -1.411  13.670  22.738  0.00  0.00    +0.000 A 
ATOM     12  C   UNL     1      -1.779  14.655  21.772  0.00  0.00    +0.000 A 
ATOM     13  C   UNL     1      -1.580  15.883  22.356  0.00  0.00    +0.000 A 
ATOM     14  O   UNL     1      -1.223  15.734  23.653  0.00  0.00    +0.000 OA
ATOM     15  C   UNL     1      -1.155  14.399  23.888  0.00  0.00    +0.000 A 
ENDBRANCH   7  11
BRANCH   1  18
ATOM     16  O   UNL     1       3.095   7.729  17.692  0.00  0.00    +0.000 OA
ATOM     17  C   UNL     1       2.546   7.476  18.760  0.00  0.00    +0.000 C 
ATOM     18  N   UNL     1       1.744   8.379  19.436  0.00  0.00    +0.000 N 
ATOM     19  H   UNL     1       1.271   8.092  20.282  0.00  0.00    +0.000 HD
BRANCH  17  20
ATOM     20  C   UNL     1       2.695   6.123  19.368  0.00  0.00    +0.000 A 
ATOM     21  C   UNL     1       3.667   5.206  18.951  0.00  0.00    +0.000 A 
ATOM     22  C   UNL     1       3.745   3.949  19.556  0.00  0.00    +0.000 A 
ATOM     23  C   UNL     1       2.855   3.603  20.576  0.00  0.00    +0.000 A 
ATOM     24  C   UNL     1       1.885   4.510  20.991  0.00  0.00    +0.000 A 
ATOM     25  C   UNL     1       1.800   5.765  20.387  0.00  0.00    +0.000 A 
ENDBRANCH  17  20
ENDBRANCH   1  18
TORSDOF 3
ENDMDL
MODEL 9
REMARK VINA RESULT:      -6.6      8.878     10.588
REMARK  Name = 
REMARK  3 active torsions:
REMARK  status: ('A' for Active; 'I' for Inactive)
REMARK    1  A    between atoms: C_2  and  C_19
REMARK    2  A    between atoms: N_3  and  C_4
REMARK    3  A    between atoms: C_10  and  C_12
REMARK                            x       y       z     vdW  Elec       q    Type
REMARK                         _______ _______ _______ _____ _____    ______ ____
ROOT
ATOM      1  C   UNL     1       0.389  12.440  19.933  0.00  0.00    +0.000 C 
ATOM      2  C   UNL     1       0.447  13.744  19.180  0.00  0.00    +0.000 C 
ATOM      3  C   UNL     1      -0.859  12.998  19.274  0.00  0.00    +0.000 C 
ATOM      4  C   UNL     1      -1.950  13.571  20.163  0.00  0.00    +0.000 C 
ATOM      5  C   UNL     1      -2.968  12.476  20.499  0.00  0.00    +0.000 C 
ATOM      6  N   UNL     1      -3.490  11.891  19.258  0.00  0.00    +0.000 N 
ATOM      7  C   UNL     1      -4.801  11.920  18.781  0.00  0.00    +0.000 C 
ATOM      8  O   UNL     1      -5.118  11.320  17.748  0.00  0.00    +0.000 OA
ATOM      9  C   UNL     1      -2.452  11.259  18.441  0.00  0.00    +0.000 C 
ATOM     10  C   UNL     1      -1.408  12.306  18.035  0.00  0.00    +0.000 C 
ENDROOT
BRANCH   7  11
ATOM     11  C   UNL     1      -5.820  12.651  19.519  0.00  0.00    +0.000 A 
ATOM     12  C   UNL     1      -6.617  12.320  20.656  0.00  0.00    +0.000 A 
ATOM     13  C   UNL     1      -7.472  13.375  20.868  0.00  0.00    +0.000 A 
ATOM     14  O   UNL     1      -7.187  14.388  20.016  0.00  0.00    +0.000 OA
ATOM     15  C   UNL     1      -6.169  13.960  19.227  0.00  0.00    +0.000 A 
ENDBRANCH   7  11
BRANCH   1  18
ATOM     16  O   UNL     1      -0.064   9.795  20.815  0.00  0.00    +0.000 OA
ATOM     17  C   UNL     1       0.758  10.005  19.929  0.00  0.00    +0.000 C 
ATOM     18  N   UNL     1       1.030  11.265  19.424  0.00  0.00    +0.000 N 
ATOM     19  H   UNL     1       1.760  11.382  18.736  0.00  0.00    +0.000 HD
BRANCH  17  20
ATOM     20  C   UNL     1       1.553   8.873  19.371  0.00  0.00    +0.000 A 
ATOM     21  C   UNL     1       2.104   8.894  18.085  0.00  0.00    +0.000 A 
ATOM     22  C   UNL     1       2.828   7.794  17.619  0.00  0.00    +0.000 A 
ATOM     23  C   UNL     1       3.005   6.672  18.432  0.00  0.00    +0.000 A 
ATOM     24  C   UNL     1       2.456   6.646  19.710  0.00  0.00    +0.000 A 
ATOM     25  C   UNL     1       1.728   7.740  20.179  0.00  0.00    +0.000 A 
ENDBRANCH  17  20
ENDBRANCH   1  18
TORSDOF 3
ENDMDL
