MODEL 1
REMARK VINA RESULT:      -8.1      0.000      0.000
REMARK  Name = 
REMARK  7 active torsions:
REMARK  status: ('A' for Active; 'I' for Inactive)
REMARK    1  A    between atoms: C_1  and  C_2
REMARK    2  A    between atoms: C_4  and  C_5
REMARK    3  A    between atoms: C_7  and  N_8
REMARK    4  A    between atoms: C_9  and  C_11
REMARK    5  A    between atoms: C_11  and  O_12
REMARK    6  A    between atoms: O_12  and  C_13
REMARK    7  A    between atoms: C_13  and  C_15
REMARK                            x       y       z     vdW  Elec       q    Type
REMARK                         _______ _______ _______ _____ _____    ______ ____
ROOT
ATOM      1  N   UNL     1       5.589   4.562  16.064  0.00  0.00    +0.000 N 
ATOM      2  C   UNL     1       4.983   5.686  16.611  0.00  0.00    +0.000 C 
ATOM      3  O   UNL     1       4.780   6.757  16.036  0.00  0.00    +0.000 OA
ATOM      4  H   UNL     1       5.762   3.784  16.693  0.00  0.00    +0.000 HD
ENDROOT
BRANCH   1  11
ATOM      5  C   UNL     1       8.865   5.938  12.608  0.00  0.00    +0.000 C 
ATOM      6  C   UNL     1       7.683   5.112  13.027  0.00  0.00    +0.000 A 
ATOM      7  C   UNL     1       7.080   4.243  12.110  0.00  0.00    +0.000 A 
ATOM      8  C   UNL     1       5.987   3.463  12.490  0.00  0.00    +0.000 A 
ATOM      9  C   UNL     1       5.312   2.538  11.520  0.00  0.00    +0.000 C 
ATOM     10  C   UNL     1       5.495   3.555  13.802  0.00  0.00    +0.000 A 
ATOM     11  C   UNL     1       6.071   4.420  14.737  0.00  0.00    +0.000 A 
ATOM     12  C   UNL     1       7.172   5.196  14.336  0.00  0.00    +0.000 A 
ENDBRANCH   1  11
BRANCH   2  13
ATOM     13  C   UNL     1       4.568   5.537  18.076  0.00  0.00    +0.000 C 
BRANCH  13  14
ATOM     14  O   UNL     1       3.841   4.323  18.283  0.00  0.00    +0.000 OA
BRANCH  14  15
ATOM     15  C   UNL     1       4.331   3.539  19.276  0.00  0.00    +0.000 C 
ATOM     16  O   UNL     1       5.506   3.552  19.629  0.00  0.00    +0.000 OA
BRANCH  15  17
ATOM     17  C   UNL     1       3.250   2.755  19.987  0.00  0.00    +0.000 C 
ATOM     18  C   UNL     1       1.945   2.655  19.139  0.00  0.00    +0.000 C 
ATOM     19  C   UNL     1       0.850   3.093  20.133  0.00  0.00    +0.000 C 
ATOM     20  C   UNL     1       1.031   4.560  20.441  0.00  0.00    +0.000 C 
ATOM     21  C   UNL     1       2.144   4.677  21.180  0.00  0.00    +0.000 C 
ATOM     22  C   UNL     1       2.722   3.290  21.344  0.00  0.00    +0.000 C 
ATOM     23  C   UNL     1       1.396   2.516  21.442  0.00  0.00    +0.000 C 
ENDBRANCH  15  17
ENDBRANCH  14  15
ENDBRANCH  13  14
ENDBRANCH   2  13
TORSDOF 5
ENDMDL
MODEL 2
REMARK VINA RESULT:      -8.1      0.179      1.843
REMARK  Name = 
REMARK  7 active torsions:
REMARK  status: ('A' for Active; 'I' for Inactive)
REMARK    1  A    between atoms: C_1  and  C_2
REMARK    2  A    between atoms: C_4  and  C_5
REMARK    3  A    between atoms: C_7  and  N_8
REMARK    4  A    between atoms: C_9  and  C_11
REMARK    5  A    between atoms: C_11  and  O_12
REMARK    6  A    between atoms: O_12  and  C_13
REMARK    7  A    between atoms: C_13  and  C_15
REMARK                            x       y       z     vdW  Elec       q    Type
REMARK                         _______ _______ _______ _____ _____    ______ ____
ROOT
ATOM      1  N   UNL     1       5.314   4.570  16.019  0.00  0.00    +0.000 N 
ATOM      2  C   UNL     1       4.788   5.715  16.603  0.00  0.00    +0.000 C 
ATOM      3  O   UNL     1       4.775   6.844  16.110  0.00  0.00    +0.000 OA
ATOM      4  H   UNL     1       5.327   3.730  16.590  0.00  0.00    +0.000 HD
ENDROOT
BRANCH   1  11
ATOM      5  C   UNL     1       5.363   2.444  11.542  0.00  0.00    +0.000 C 
ATOM      6  C   UNL     1       5.948   3.410  12.532  0.00  0.00    +0.000 A 
ATOM      7  C   UNL     1       7.069   4.172  12.183  0.00  0.00    +0.000 A 
ATOM      8  C   UNL     1       7.616   5.080  13.091  0.00  0.00    +0.000 A 
ATOM      9  C   UNL     1       8.828   5.895  12.746  0.00  0.00    +0.000 C 
ATOM     10  C   UNL     1       7.032   5.225  14.359  0.00  0.00    +0.000 A 
ATOM     11  C   UNL     1       5.918   4.472  14.739  0.00  0.00    +0.000 A 
ATOM     12  C   UNL     1       5.380   3.564  13.811  0.00  0.00    +0.000 A 
ENDBRANCH   1  11
BRANCH   2  13
ATOM     13  C   UNL     1       4.202   5.507  18.001  0.00  0.00    +0.000 C 
BRANCH  13  14
ATOM     14  O   UNL     1       3.643   4.198  18.133  0.00  0.00    +0.000 OA
BRANCH  14  15
ATOM     15  C   UNL     1       4.216   3.440  19.104  0.00  0.00    +0.000 C 
ATOM     16  O   UNL     1       5.419   3.448  19.345  0.00  0.00    +0.000 OA
BRANCH  15  17
ATOM     17  C   UNL     1       3.197   2.697  19.940  0.00  0.00    +0.000 C 
ATOM     18  C   UNL     1       1.836   2.533  19.197  0.00  0.00    +0.000 C 
ATOM     19  C   UNL     1       0.810   3.027  20.236  0.00  0.00    +0.000 C 
ATOM     20  C   UNL     1       0.996   4.513  20.433  0.00  0.00    +0.000 C 
ATOM     21  C   UNL     1       2.157   4.686  21.081  0.00  0.00    +0.000 C 
ATOM     22  C   UNL     1       2.761   3.317  21.294  0.00  0.00    +0.000 C 
ATOM     23  C   UNL     1       1.454   2.542  21.537  0.00  0.00    +0.000 C 
ENDBRANCH  15  17
ENDBRANCH  14  15
ENDBRANCH  13  14
ENDBRANCH   2  13
TORSDOF 5
ENDMDL
MODEL 3
REMARK VINA RESULT:      -8.1      1.123      2.252
REMARK  Name = 
REMARK  7 active torsions:
REMARK  status: ('A' for Active; 'I' for Inactive)
REMARK    1  A    between atoms: C_1  and  C_2
REMARK    2  A    between atoms: C_4  and  C_5
REMARK    3  A    between atoms: C_7  and  N_8
REMARK    4  A    between atoms: C_9  and  C_11
REMARK    5  A    between atoms: C_11  and  O_12
REMARK    6  A    between atoms: O_12  and  C_13
REMARK    7  A    between atoms: C_13  and  C_15
REMARK                            x       y       z     vdW  Elec       q    Type
REMARK                         _______ _______ _______ _____ _____    ______ ____
ROOT
ATOM      1  N   UNL     1       5.624   4.384  16.034  0.00  0.00    +0.000 N 
ATOM      2  C   UNL     1       6.370   4.444  17.205  0.00  0.00    +0.000 C 
ATOM      3  O   UNL     1       7.599   4.465  17.286  0.00  0.00    +0.000 OA
ATOM      4  H   UNL     1       4.619   4.286  16.137  0.00  0.00    +0.000 HD
ENDROOT
BRANCH   1  11
ATOM      5  C   UNL     1       5.450   2.380  11.505  0.00  0.00    +0.000 C 
ATOM      6  C   UNL     1       6.050   3.356  12.475  0.00  0.00    +0.000 A 
ATOM      7  C   UNL     1       7.091   4.196  12.063  0.00  0.00    +0.000 A 
ATOM      8  C   UNL     1       7.651   5.114  12.953  0.00  0.00    +0.000 A 
ATOM      9  C   UNL     1       8.780   6.014  12.541  0.00  0.00    +0.000 C 
ATOM     10  C   UNL     1       7.162   5.190  14.266  0.00  0.00    +0.000 A 
ATOM     11  C   UNL     1       6.130   4.357  14.709  0.00  0.00    +0.000 A 
ATOM     12  C   UNL     1       5.578   3.441  13.798  0.00  0.00    +0.000 A 
ENDBRANCH   1  11
BRANCH   2  13
ATOM     13  C   UNL     1       5.539   4.459  18.490  0.00  0.00    +0.000 C 
BRANCH  13  14
ATOM     14  O   UNL     1       4.966   3.174  18.746  0.00  0.00    +0.000 OA
BRANCH  14  15
ATOM     15  C   UNL     1       3.661   3.062  18.393  0.00  0.00    +0.000 C 
ATOM     16  O   UNL     1       3.245   3.290  17.261  0.00  0.00    +0.000 OA
BRANCH  15  17
ATOM     17  C   UNL     1       2.803   2.497  19.504  0.00  0.00    +0.000 C 
ATOM     18  C   UNL     1       1.284   2.556  19.158  0.00  0.00    +0.000 C 
ATOM     19  C   UNL     1       0.667   3.213  20.410  0.00  0.00    +0.000 C 
ATOM     20  C   UNL     1       1.129   4.649  20.482  0.00  0.00    +0.000 C 
ATOM     21  C   UNL     1       2.435   4.632  20.788  0.00  0.00    +0.000 C 
ATOM     22  C   UNL     1       2.852   3.183  20.895  0.00  0.00    +0.000 C 
ATOM     23  C   UNL     1       1.555   2.632  21.513  0.00  0.00    +0.000 C 
ENDBRANCH  15  17
ENDBRANCH  14  15
ENDBRANCH  13  14
ENDBRANCH   2  13
TORSDOF 5
ENDMDL
MODEL 4
REMARK VINA RESULT:      -8.0      1.198      2.478
REMARK  Name = 
REMARK  7 active torsions:
REMARK  status: ('A' for Active; 'I' for Inactive)
REMARK    1  A    between atoms: C_1  and  C_2
REMARK    2  A    between atoms: C_4  and  C_5
REMARK    3  A    between atoms: C_7  and  N_8
REMARK    4  A    between atoms: C_9  and  C_11
REMARK    5  A    between atoms: C_11  and  O_12
REMARK    6  A    between atoms: O_12  and  C_13
REMARK    7  A    between atoms: C_13  and  C_15
REMARK                            x       y       z     vdW  Elec       q    Type
REMARK                         _______ _______ _______ _____ _____    ______ ____
ROOT
ATOM      1  N   UNL     1       5.632   4.732  16.121  0.00  0.00    +0.000 N 
ATOM      2  C   UNL     1       6.349   4.603  17.304  0.00  0.00    +0.000 C 
ATOM      3  O   UNL     1       7.548   4.335  17.403  0.00  0.00    +0.000 OA
ATOM      4  H   UNL     1       4.629   4.870  16.208  0.00  0.00    +0.000 HD
ENDROOT
BRANCH   1  11
ATOM      5  C   UNL     1       5.384   2.467  11.720  0.00  0.00    +0.000 C 
ATOM      6  C   UNL     1       6.024   3.472  12.633  0.00  0.00    +0.000 A 
ATOM      7  C   UNL     1       7.102   4.239  12.178  0.00  0.00    +0.000 A 
ATOM      8  C   UNL     1       7.699   5.184  13.014  0.00  0.00    +0.000 A 
ATOM      9  C   UNL     1       8.868   6.006  12.555  0.00  0.00    +0.000 C 
ATOM     10  C   UNL     1       7.209   5.361  14.318  0.00  0.00    +0.000 A 
ATOM     11  C   UNL     1       6.140   4.602  14.803  0.00  0.00    +0.000 A 
ATOM     12  C   UNL     1       5.551   3.658  13.946  0.00  0.00    +0.000 A 
ENDBRANCH   1  11
BRANCH   2  13
ATOM     13  C   UNL     1       5.523   4.797  18.576  0.00  0.00    +0.000 C 
BRANCH  13  14
ATOM     14  O   UNL     1       5.532   3.615  19.380  0.00  0.00    +0.000 OA
BRANCH  14  15
ATOM     15  C   UNL     1       4.347   2.953  19.417  0.00  0.00    +0.000 C 
ATOM     16  O   UNL     1       4.191   1.822  18.968  0.00  0.00    +0.000 OA
BRANCH  15  17
ATOM     17  C   UNL     1       3.285   3.703  20.190  0.00  0.00    +0.000 C 
ATOM     18  C   UNL     1       2.442   2.756  21.098  0.00  0.00    +0.000 C 
ATOM     19  C   UNL     1       0.990   3.132  20.740  0.00  0.00    +0.000 C 
ATOM     20  C   UNL     1       0.712   2.697  19.320  0.00  0.00    +0.000 C 
ATOM     21  C   UNL     1       1.417   3.503  18.513  0.00  0.00    +0.000 C 
ATOM     22  C   UNL     1       2.188   4.459  19.394  0.00  0.00    +0.000 C 
ATOM     23  C   UNL     1       1.129   4.637  20.495  0.00  0.00    +0.000 C 
ENDBRANCH  15  17
ENDBRANCH  14  15
ENDBRANCH  13  14
ENDBRANCH   2  13
TORSDOF 5
ENDMDL
MODEL 5
REMARK VINA RESULT:      -7.9      1.272      2.594
REMARK  Name = 
REMARK  7 active torsions:
REMARK  status: ('A' for Active; 'I' for Inactive)
REMARK    1  A    between atoms: C_1  and  C_2
REMARK    2  A    between atoms: C_4  and  C_5
REMARK    3  A    between atoms: C_7  and  N_8
REMARK    4  A    between atoms: C_9  and  C_11
REMARK    5  A    between atoms: C_11  and  O_12
REMARK    6  A    between atoms: O_12  and  C_13
REMARK    7  A    between atoms: C_13  and  C_15
REMARK                            x       y       z     vdW  Elec       q    Type
REMARK                         _______ _______ _______ _____ _____    ______ ____
ROOT
ATOM      1  N   UNL     1       5.969   4.600  16.060  0.00  0.00    +0.000 N 
ATOM      2  C   UNL     1       6.807   4.517  17.165  0.00  0.00    +0.000 C 
ATOM      3  O   UNL     1       8.027   4.344  17.142  0.00  0.00    +0.000 OA
ATOM      4  H   UNL     1       4.972   4.658  16.245  0.00  0.00    +0.000 HD
ENDROOT
BRANCH   1  11
ATOM      5  C   UNL     1       5.437   2.394  11.654  0.00  0.00    +0.000 C 
ATOM      6  C   UNL     1       6.099   3.424  12.524  0.00  0.00    +0.000 A 
ATOM      7  C   UNL     1       7.078   4.266  11.984  0.00  0.00    +0.000 A 
ATOM      8  C   UNL     1       7.694   5.234  12.780  0.00  0.00    +0.000 A 
ATOM      9  C   UNL     1       8.759   6.136  12.229  0.00  0.00    +0.000 C 
ATOM     10  C   UNL     1       7.322   5.358  14.128  0.00  0.00    +0.000 A 
ATOM     11  C   UNL     1       6.354   4.525  14.697  0.00  0.00    +0.000 A 
ATOM     12  C   UNL     1       5.745   3.559  13.879  0.00  0.00    +0.000 A 
ENDBRANCH   1  11
BRANCH   2  13
ATOM     13  C   UNL     1       6.096   4.633  18.515  0.00  0.00    +0.000 C 
BRANCH  13  14
ATOM     14  O   UNL     1       4.719   4.266  18.403  0.00  0.00    +0.000 OA
BRANCH  14  15
ATOM     15  C   UNL     1       3.860   5.124  19.010  0.00  0.00    +0.000 C 
ATOM     16  O   UNL     1       3.751   6.306  18.695  0.00  0.00    +0.000 OA
BRANCH  15  17
ATOM     17  C   UNL     1       2.962   4.437  20.014  0.00  0.00    +0.000 C 
ATOM     18  C   UNL     1       3.329   2.932  20.195  0.00  0.00    +0.000 C 
ATOM     19  C   UNL     1       1.971   2.220  20.033  0.00  0.00    +0.000 C 
ATOM     20  C   UNL     1       1.515   2.364  18.600  0.00  0.00    +0.000 C 
ATOM     21  C   UNL     1       1.181   3.649  18.416  0.00  0.00    +0.000 C 
ATOM     22  C   UNL     1       1.440   4.371  19.719  0.00  0.00    +0.000 C 
ATOM     23  C   UNL     1       1.027   3.240  20.676  0.00  0.00    +0.000 C 
ENDBRANCH  15  17
ENDBRANCH  14  15
ENDBRANCH  13  14
ENDBRANCH   2  13
TORSDOF 5
ENDMDL
MODEL 6
REMARK VINA RESULT:      -7.9      1.314      2.511
REMARK  Name = 
REMARK  7 active torsions:
REMARK  status: ('A' for Active; 'I' for Inactive)
REMARK    1  A    between atoms: C_1  and  C_2
REMARK    2  A    between atoms: C_4  and  C_5
REMARK    3  A    between atoms: C_7  and  N_8
REMARK    4  A    between atoms: C_9  and  C_11
REMARK    5  A    between atoms: C_11  and  O_12
REMARK    6  A    between atoms: O_12  and  C_13
REMARK    7  A    between atoms: C_13  and  C_15
REMARK                            x       y       z     vdW  Elec       q    Type
REMARK                         _______ _______ _______ _____ _____    ______ ____
ROOT
ATOM      1  N   UNL     1       6.098   4.611  16.137  0.00  0.00    +0.000 N 
ATOM      2  C   UNL     1       6.974   4.456  17.204  0.00  0.00    +0.000 C 
ATOM      3  O   UNL     1       8.180   4.214  17.128  0.00  0.00    +0.000 OA
ATOM      4  H   UNL     1       5.115   4.722  16.365  0.00  0.00    +0.000 HD
ENDROOT
BRANCH   1  11
ATOM      5  C   UNL     1       5.360   2.437  11.745  0.00  0.00    +0.000 C 
ATOM      6  C   UNL     1       6.066   3.457  12.591  0.00  0.00    +0.000 A 
ATOM      7  C   UNL     1       7.026   4.296  12.015  0.00  0.00    +0.000 A 
ATOM      8  C   UNL     1       7.682   5.254  12.789  0.00  0.00    +0.000 A 
ATOM      9  C   UNL     1       8.728   6.154  12.198  0.00  0.00    +0.000 C 
ATOM     10  C   UNL     1       7.371   5.372  14.152  0.00  0.00    +0.000 A 
ATOM     11  C   UNL     1       6.423   4.542  14.758  0.00  0.00    +0.000 A 
ATOM     12  C   UNL     1       5.772   3.584  13.962  0.00  0.00    +0.000 A 
ENDBRANCH   1  11
BRANCH   2  13
ATOM     13  C   UNL     1       6.327   4.584  18.585  0.00  0.00    +0.000 C 
BRANCH  13  14
ATOM     14  O   UNL     1       5.075   3.894  18.630  0.00  0.00    +0.000 OA
BRANCH  14  15
ATOM     15  C   UNL     1       4.030   4.657  19.041  0.00  0.00    +0.000 C 
ATOM     16  O   UNL     1       4.150   5.813  19.433  0.00  0.00    +0.000 OA
BRANCH  15  17
ATOM     17  C   UNL     1       2.695   3.977  18.831  0.00  0.00    +0.000 C 
ATOM     18  C   UNL     1       1.523   4.772  19.484  0.00  0.00    +0.000 C 
ATOM     19  C   UNL     1       0.784   3.694  20.303  0.00  0.00    +0.000 C 
ATOM     20  C   UNL     1       1.673   3.257  21.444  0.00  0.00    +0.000 C 
ATOM     21  C   UNL     1       2.688   2.560  20.913  0.00  0.00    +0.000 C 
ATOM     22  C   UNL     1       2.492   2.553  19.414  0.00  0.00    +0.000 C 
ATOM     23  C   UNL     1       0.956   2.471  19.399  0.00  0.00    +0.000 C 
ENDBRANCH  15  17
ENDBRANCH  14  15
ENDBRANCH  13  14
ENDBRANCH   2  13
TORSDOF 5
ENDMDL
MODEL 7
REMARK VINA RESULT:      -7.9      1.074      1.147
REMARK  Name = 
REMARK  7 active torsions:
REMARK  status: ('A' for Active; 'I' for Inactive)
REMARK    1  A    between atoms: C_1  and  C_2
REMARK    2  A    between atoms: C_4  and  C_5
REMARK    3  A    between atoms: C_7  and  N_8
REMARK    4  A    between atoms: C_9  and  C_11
REMARK    5  A    between atoms: C_11  and  O_12
REMARK    6  A    between atoms: O_12  and  C_13
REMARK    7  A    between atoms: C_13  and  C_15
REMARK                            x       y       z     vdW  Elec       q    Type
REMARK                         _______ _______ _______ _____ _____    ______ ____
ROOT
ATOM      1  N   UNL     1       5.744   4.593  16.110  0.00  0.00    +0.000 N 
ATOM      2  C   UNL     1       6.527   4.542  17.256  0.00  0.00    +0.000 C 
ATOM      3  O   UNL     1       7.741   4.334  17.300  0.00  0.00    +0.000 OA
ATOM      4  H   UNL     1       4.742   4.688  16.244  0.00  0.00    +0.000 HD
ENDROOT
BRANCH   1  11
ATOM      5  C   UNL     1       8.823   6.040  12.505  0.00  0.00    +0.000 C 
ATOM      6  C   UNL     1       7.703   5.164  12.988  0.00  0.00    +0.000 A 
ATOM      7  C   UNL     1       7.119   4.237  12.117  0.00  0.00    +0.000 A 
ATOM      8  C   UNL     1       6.084   3.410  12.557  0.00  0.00    +0.000 A 
ATOM      9  C   UNL     1       5.430   2.421  11.637  0.00  0.00    +0.000 C 
ATOM     10  C   UNL     1       5.632   3.515  13.882  0.00  0.00    +0.000 A 
ATOM     11  C   UNL     1       6.189   4.438  14.772  0.00  0.00    +0.000 A 
ATOM     12  C   UNL     1       7.232   5.259  14.311  0.00  0.00    +0.000 A 
ENDBRANCH   1  11
BRANCH   2  13
ATOM     13  C   UNL     1       5.759   4.746  18.563  0.00  0.00    +0.000 C 
BRANCH  13  14
ATOM     14  O   UNL     1       4.486   4.095  18.517  0.00  0.00    +0.000 OA
BRANCH  14  15
ATOM     15  C   UNL     1       4.366   3.041  19.363  0.00  0.00    +0.000 C 
ATOM     16  O   UNL     1       5.320   2.516  19.929  0.00  0.00    +0.000 OA
BRANCH  15  17
ATOM     17  C   UNL     1       2.924   2.676  19.637  0.00  0.00    +0.000 C 
ATOM     18  C   UNL     1       1.937   3.448  18.709  0.00  0.00    +0.000 C 
ATOM     19  C   UNL     1       0.906   4.025  19.700  0.00  0.00    +0.000 C 
ATOM     20  C   UNL     1       1.583   5.076  20.547  0.00  0.00    +0.000 C 
ATOM     21  C   UNL     1       2.433   4.440  21.366  0.00  0.00    +0.000 C 
ATOM     22  C   UNL     1       2.344   2.965  21.047  0.00  0.00    +0.000 C 
ATOM     23  C   UNL     1       0.838   2.903  20.739  0.00  0.00    +0.000 C 
ENDBRANCH  15  17
ENDBRANCH  14  15
ENDBRANCH  13  14
ENDBRANCH   2  13
TORSDOF 5
ENDMDL
MODEL 8
REMARK VINA RESULT:      -7.8      1.246      2.660
REMARK  Name = 
REMARK  7 active torsions:
REMARK  status: ('A' for Active; 'I' for Inactive)
REMARK    1  A    between atoms: C_1  and  C_2
REMARK    2  A    between atoms: C_4  and  C_5
REMARK    3  A    between atoms: C_7  and  N_8
REMARK    4  A    between atoms: C_9  and  C_11
REMARK    5  A    between atoms: C_11  and  O_12
REMARK    6  A    between atoms: O_12  and  C_13
REMARK    7  A    between atoms: C_13  and  C_15
REMARK                            x       y       z     vdW  Elec       q    Type
REMARK                         _______ _______ _______ _____ _____    ______ ____
ROOT
ATOM      1  N   UNL     1       6.023   4.610  16.127  0.00  0.00    +0.000 N 
ATOM      2  C   UNL     1       6.315   5.643  17.009  0.00  0.00    +0.000 C 
ATOM      3  O   UNL     1       6.955   6.663  16.751  0.00  0.00    +0.000 OA
ATOM      4  H   UNL     1       5.559   3.795  16.515  0.00  0.00    +0.000 HD
ENDROOT
BRANCH   1  11
ATOM      5  C   UNL     1       5.346   2.482  11.702  0.00  0.00    +0.000 C 
ATOM      6  C   UNL     1       6.057   3.477  12.574  0.00  0.00    +0.000 A 
ATOM      7  C   UNL     1       7.057   4.290  12.030  0.00  0.00    +0.000 A 
ATOM      8  C   UNL     1       7.718   5.225  12.828  0.00  0.00    +0.000 A 
ATOM      9  C   UNL     1       8.806   6.097  12.272  0.00  0.00    +0.000 C 
ATOM     10  C   UNL     1       7.372   5.345  14.183  0.00  0.00    +0.000 A 
ATOM     11  C   UNL     1       6.384   4.539  14.757  0.00  0.00    +0.000 A 
ATOM     12  C   UNL     1       5.729   3.605  13.937  0.00  0.00    +0.000 A 
ENDBRANCH   1  11
BRANCH   2  13
ATOM     13  C   UNL     1       5.791   5.433  18.431  0.00  0.00    +0.000 C 
BRANCH  13  14
ATOM     14  O   UNL     1       5.947   4.073  18.841  0.00  0.00    +0.000 OA
BRANCH  14  15
ATOM     15  C   UNL     1       4.807   3.488  19.289  0.00  0.00    +0.000 C 
ATOM     16  O   UNL     1       4.795   2.549  20.078  0.00  0.00    +0.000 OA
BRANCH  15  17
ATOM     17  C   UNL     1       3.561   4.206  18.820  0.00  0.00    +0.000 C 
ATOM     18  C   UNL     1       2.433   4.186  19.896  0.00  0.00    +0.000 C 
ATOM     19  C   UNL     1       1.204   3.692  19.105  0.00  0.00    +0.000 C 
ATOM     20  C   UNL     1       1.427   2.251  18.713  0.00  0.00    +0.000 C 
ATOM     21  C   UNL     1       2.388   2.236  17.778  0.00  0.00    +0.000 C 
ATOM     22  C   UNL     1       2.828   3.667  17.564  0.00  0.00    +0.000 C 
ATOM     23  C   UNL     1       1.456   4.341  17.740  0.00  0.00    +0.000 C 
ENDBRANCH  15  17
ENDBRANCH  14  15
ENDBRANCH  13  14
ENDBRANCH   2  13
TORSDOF 5
ENDMDL
MODEL 9
REMARK VINA RESULT:      -7.8      1.315      1.708
REMARK  Name = 
REMARK  7 active torsions:
REMARK  status: ('A' for Active; 'I' for Inactive)
REMARK    1  A    between atoms: C_1  and  C_2
REMARK    2  A    between atoms: C_4  and  C_5
REMARK    3  A    between atoms: C_7  and  N_8
REMARK    4  A    between atoms: C_9  and  C_11
REMARK    5  A    between atoms: C_11  and  O_12
REMARK    6  A    between atoms: O_12  and  C_13
REMARK    7  A    between atoms: C_13  and  C_15
REMARK                            x       y       z     vdW  Elec       q    Type
REMARK                         _______ _______ _______ _____ _____    ______ ____
ROOT
ATOM      1  N   UNL     1       5.764   4.435  16.103  0.00  0.00    +0.000 N 
ATOM      2  C   UNL     1       6.581   4.490  17.224  0.00  0.00    +0.000 C 
ATOM      3  O   UNL     1       7.813   4.445  17.232  0.00  0.00    +0.000 OA
ATOM      4  H   UNL     1       4.763   4.396  16.268  0.00  0.00    +0.000 HD
ENDROOT
BRANCH   1  11
ATOM      5  C   UNL     1       8.773   6.044  12.508  0.00  0.00    +0.000 C 
ATOM      6  C   UNL     1       7.664   5.145  12.973  0.00  0.00    +0.000 A 
ATOM      7  C   UNL     1       7.066   4.254  12.074  0.00  0.00    +0.000 A 
ATOM      8  C   UNL     1       6.040   3.407  12.497  0.00  0.00    +0.000 A 
ATOM      9  C   UNL     1       5.371   2.456  11.548  0.00  0.00    +0.000 C 
ATOM     10  C   UNL     1       5.613   3.453  13.833  0.00  0.00    +0.000 A 
ATOM     11  C   UNL     1       6.185   4.339  14.751  0.00  0.00    +0.000 A 
ATOM     12  C   UNL     1       7.217   5.182  14.307  0.00  0.00    +0.000 A 
ENDBRANCH   1  11
BRANCH   2  13
ATOM     13  C   UNL     1       5.833   4.591  18.555  0.00  0.00    +0.000 C 
BRANCH  13  14
ATOM     14  O   UNL     1       4.947   5.713  18.561  0.00  0.00    +0.000 OA
BRANCH  14  15
ATOM     15  C   UNL     1       3.712   5.449  19.058  0.00  0.00    +0.000 C 
ATOM     16  O   UNL     1       3.035   6.277  19.660  0.00  0.00    +0.000 OA
BRANCH  15  17
ATOM     17  C   UNL     1       3.209   4.076  18.670  0.00  0.00    +0.000 C 
ATOM     18  C   UNL     1       1.763   4.124  18.090  0.00  0.00    +0.000 C 
ATOM     19  C   UNL     1       1.026   3.037  18.900  0.00  0.00    +0.000 C 
ATOM     20  C   UNL     1       0.911   3.496  20.335  0.00  0.00    +0.000 C 
ATOM     21  C   UNL     1       2.142   3.456  20.865  0.00  0.00    +0.000 C 
ATOM     22  C   UNL     1       3.085   2.996  19.777  0.00  0.00    +0.000 C 
ATOM     23  C   UNL     1       2.140   2.002  19.081  0.00  0.00    +0.000 C 
ENDBRANCH  15  17
ENDBRANCH  14  15
ENDBRANCH  13  14
ENDBRANCH   2  13
TORSDOF 5
ENDMDL
