MODEL 1
REMARK VINA RESULT:      -7.6      0.000      0.000
REMARK  Name = 
REMARK  13 active torsions:
REMARK  status: ('A' for Active; 'I' for Inactive)
REMARK    1  A    between atoms: C_1  and  C_2
REMARK    2  A    between atoms: C_2  and  C_3
REMARK    3  A    between atoms: C_2  and  N_4
REMARK    4  A    between atoms: N_7  and  C_8
REMARK    5  A    between atoms: C_8  and  C_9
REMARK    6  A    between atoms: C_10  and  C_11
REMARK    7  A    between atoms: C_14  and  C_15
REMARK    8  A    between atoms: C_15  and  N_16
REMARK    9  A    between atoms: N_16  and  C_17
REMARK   10  A    between atoms: C_17  and  C_18
REMARK   11  A    between atoms: C_18  and  C_19
REMARK   12  A    between atoms: C_18  and  C_20
REMARK   13  A    between atoms: C_18  and  C_21
REMARK                            x       y       z     vdW  Elec       q    Type
REMARK                         _______ _______ _______ _____ _____    ______ ____
ROOT
ATOM      1  C   UNL     1       8.840  10.138  18.496  0.00  0.00    +0.000 A 
ATOM      2  C   UNL     1       8.647  11.316  17.777  0.00  0.00    +0.000 A 
ATOM      3  C   UNL     1       9.091  12.545  18.309  0.00  0.00    +0.000 A 
ATOM      4  C   UNL     1       9.735  12.604  19.561  0.00  0.00    +0.000 A 
ATOM      5  C   UNL     1       9.992  11.392  20.215  0.00  0.00    +0.000 A 
ATOM      6  C   UNL     1       9.541  10.179  19.699  0.00  0.00    +0.000 A 
ENDROOT
BRANCH   1   8
ATOM      7  C   UNL     1       7.677   7.935  17.677  0.00  0.00    +0.000 C 
ATOM      8  C   UNL     1       8.327   8.863  18.085  0.00  0.00    +0.000 C 
BRANCH   7   9
ATOM      9  C   UNL     1       6.719   6.952  17.162  0.00  0.00    +0.000 C 
BRANCH   9  13
ATOM     10  N   UNL     1       4.309   4.370  18.418  0.00  0.00    +0.000 NA
ATOM     11  C   UNL     1       5.020   5.285  19.322  0.00  0.00    +0.000 C 
ATOM     12  C   UNL     1       6.545   5.435  19.093  0.00  0.00    +0.000 C 
ATOM     13  N   UNL     1       6.982   5.608  17.690  0.00  0.00    +0.000 NA
ATOM     14  C   UNL     1       6.316   4.586  16.861  0.00  0.00    +0.000 C 
ATOM     15  C   UNL     1       4.781   4.514  17.033  0.00  0.00    +0.000 C 
BRANCH  10  17
ATOM     16  C   UNL     1       3.481   2.735  20.216  0.00  0.00    +0.000 C 
ATOM     17  C   UNL     1       4.120   2.975  18.847  0.00  0.00    +0.000 C 
ATOM     18  C   UNL     1       3.369   2.160  17.784  0.00  0.00    +0.000 C 
ENDBRANCH  10  17
ENDBRANCH   9  13
ENDBRANCH   7   9
ENDBRANCH   1   8
BRANCH   4  19
ATOM     19  C   UNL     1      10.165  13.901  20.241  0.00  0.00    +0.000 C 
BRANCH  19  20
ATOM     20  N   UNL     1       9.020  14.693  20.730  0.00  0.00    +0.000 N 
ATOM     21  C   UNL     1       8.519  15.766  19.990  0.00  0.00    +0.000 A 
ATOM     22  C   UNL     1       9.206  16.381  18.960  0.00  0.00    +0.000 A 
ATOM     23  C   UNL     1       8.601  17.467  18.360  0.00  0.00    +0.000 A 
ATOM     24  N   UNL     1       7.406  17.954  18.713  0.00  0.00    +0.000 NA
ATOM     25  C   UNL     1       6.830  17.298  19.718  0.00  0.00    +0.000 A 
ATOM     26 CL   UNL     1       5.313  17.869  20.253  0.00  0.00    +0.000 Cl
ATOM     27  N   UNL     1       7.332  16.256  20.380  0.00  0.00    +0.000 NA
BRANCH  20  28
ATOM     28  C   UNL     1       8.921  14.982  22.183  0.00  0.00    +0.000 C 
BRANCH  28  29
ATOM     29  C   UNL     1       8.011  14.019  23.009  0.00  0.00    +0.000 C 
ATOM     30  C   UNL     1       8.834  12.770  23.355  0.00  0.00    +0.000 C 
ATOM     31  C   UNL     1       7.560  14.779  24.281  0.00  0.00    +0.000 C 
ATOM     32  C   UNL     1       6.716  13.525  22.338  0.00  0.00    +0.000 C 
ENDBRANCH  28  29
ENDBRANCH  20  28
ENDBRANCH  19  20
ENDBRANCH   4  19
TORSDOF 8
ENDMDL
MODEL 2
REMARK VINA RESULT:      -7.4      0.963      1.796
REMARK  Name = 
REMARK  13 active torsions:
REMARK  status: ('A' for Active; 'I' for Inactive)
REMARK    1  A    between atoms: C_1  and  C_2
REMARK    2  A    between atoms: C_2  and  C_3
REMARK    3  A    between atoms: C_2  and  N_4
REMARK    4  A    between atoms: N_7  and  C_8
REMARK    5  A    between atoms: C_8  and  C_9
REMARK    6  A    between atoms: C_10  and  C_11
REMARK    7  A    between atoms: C_14  and  C_15
REMARK    8  A    between atoms: C_15  and  N_16
REMARK    9  A    between atoms: N_16  and  C_17
REMARK   10  A    between atoms: C_17  and  C_18
REMARK   11  A    between atoms: C_18  and  C_19
REMARK   12  A    between atoms: C_18  and  C_20
REMARK   13  A    between atoms: C_18  and  C_21
REMARK                            x       y       z     vdW  Elec       q    Type
REMARK                         _______ _______ _______ _____ _____    ______ ____
ROOT
ATOM      1  C   UNL     1       8.693  10.195  18.426  0.00  0.00    +0.000 A 
ATOM      2  C   UNL     1       9.339  10.158  19.661  0.00  0.00    +0.000 A 
ATOM      3  C   UNL     1       9.846  11.349  20.225  0.00  0.00    +0.000 A 
ATOM      4  C   UNL     1       9.706  12.583  19.561  0.00  0.00    +0.000 A 
ATOM      5  C   UNL     1       8.974  12.598  18.366  0.00  0.00    +0.000 A 
ATOM      6  C   UNL     1       8.487  11.422  17.800  0.00  0.00    +0.000 A 
ENDROOT
BRANCH   1   8
ATOM      7  C   UNL     1       7.824   7.948  17.392  0.00  0.00    +0.000 C 
ATOM      8  C   UNL     1       8.245   9.025  17.730  0.00  0.00    +0.000 C 
BRANCH   7   9
ATOM      9  C   UNL     1       7.309   6.588  17.200  0.00  0.00    +0.000 C 
BRANCH   9  13
ATOM     10  N   UNL     1       4.345   4.383  17.838  0.00  0.00    +0.000 NA
ATOM     11  C   UNL     1       5.298   4.122  16.749  0.00  0.00    +0.000 C 
ATOM     12  C   UNL     1       5.674   5.331  15.855  0.00  0.00    +0.000 C 
ATOM     13  N   UNL     1       5.987   6.593  16.561  0.00  0.00    +0.000 NA
ATOM     14  C   UNL     1       4.931   6.849  17.558  0.00  0.00    +0.000 C 
ATOM     15  C   UNL     1       4.634   5.662  18.504  0.00  0.00    +0.000 C 
BRANCH  10  17
ATOM     16  C   UNL     1       2.449   2.696  17.451  0.00  0.00    +0.000 C 
ATOM     17  C   UNL     1       2.915   4.148  17.582  0.00  0.00    +0.000 C 
ATOM     18  C   UNL     1       2.037   4.874  18.611  0.00  0.00    +0.000 C 
ENDBRANCH  10  17
ENDBRANCH   9  13
ENDBRANCH   7   9
ENDBRANCH   1   8
BRANCH   4  19
ATOM     19  C   UNL     1      10.302  13.896  20.063  0.00  0.00    +0.000 C 
BRANCH  19  20
ATOM     20  N   UNL     1       9.284  14.802  20.629  0.00  0.00    +0.000 N 
ATOM     21  C   UNL     1       8.912  15.971  19.964  0.00  0.00    +0.000 A 
ATOM     22  C   UNL     1       9.648  16.549  18.948  0.00  0.00    +0.000 A 
ATOM     23  C   UNL     1       9.178  17.738  18.426  0.00  0.00    +0.000 A 
ATOM     24  N   UNL     1       8.066  18.356  18.842  0.00  0.00    +0.000 NA
ATOM     25  C   UNL     1       7.434  17.724  19.829  0.00  0.00    +0.000 A 
ATOM     26 CL   UNL     1       6.020  18.457  20.442  0.00  0.00    +0.000 Cl
ATOM     27  N   UNL     1       7.810  16.589  20.417  0.00  0.00    +0.000 NA
BRANCH  20  28
ATOM     28  C   UNL     1       9.261  15.018  22.098  0.00  0.00    +0.000 C 
BRANCH  28  29
ATOM     29  C   UNL     1       8.324  14.069  22.912  0.00  0.00    +0.000 C 
ATOM     30  C   UNL     1       7.885  14.812  24.181  0.00  0.00    +0.000 C 
ATOM     31  C   UNL     1       7.118  13.715  22.007  0.00  0.00    +0.000 C 
ATOM     32  C   UNL     1       8.913  12.721  23.368  0.00  0.00    +0.000 C 
ENDBRANCH  28  29
ENDBRANCH  20  28
ENDBRANCH  19  20
ENDBRANCH   4  19
TORSDOF 8
ENDMDL
MODEL 3
REMARK VINA RESULT:      -7.2      7.304     11.332
REMARK  Name = 
REMARK  13 active torsions:
REMARK  status: ('A' for Active; 'I' for Inactive)
REMARK    1  A    between atoms: C_1  and  C_2
REMARK    2  A    between atoms: C_2  and  C_3
REMARK    3  A    between atoms: C_2  and  N_4
REMARK    4  A    between atoms: N_7  and  C_8
REMARK    5  A    between atoms: C_8  and  C_9
REMARK    6  A    between atoms: C_10  and  C_11
REMARK    7  A    between atoms: C_14  and  C_15
REMARK    8  A    between atoms: C_15  and  N_16
REMARK    9  A    between atoms: N_16  and  C_17
REMARK   10  A    between atoms: C_17  and  C_18
REMARK   11  A    between atoms: C_18  and  C_19
REMARK   12  A    between atoms: C_18  and  C_20
REMARK   13  A    between atoms: C_18  and  C_21
REMARK                            x       y       z     vdW  Elec       q    Type
REMARK                         _______ _______ _______ _____ _____    ______ ____
ROOT
ATOM      1  C   UNL     1       1.213   9.169  19.499  0.00  0.00    +0.000 A 
ATOM      2  C   UNL     1       1.538   8.092  20.322  0.00  0.00    +0.000 A 
ATOM      3  C   UNL     1       2.160   6.950  19.772  0.00  0.00    +0.000 A 
ATOM      4  C   UNL     1       2.464   6.880  18.398  0.00  0.00    +0.000 A 
ATOM      5  C   UNL     1       2.206   8.014  17.618  0.00  0.00    +0.000 A 
ATOM      6  C   UNL     1       1.578   9.136  18.154  0.00  0.00    +0.000 A 
ENDROOT
BRANCH   1   8
ATOM      7  C   UNL     1      -0.305  11.104  20.406  0.00  0.00    +0.000 C 
ATOM      8  C   UNL     1       0.486  10.320  19.948  0.00  0.00    +0.000 C 
BRANCH   7   9
ATOM      9  C   UNL     1      -1.399  11.882  20.998  0.00  0.00    +0.000 C 
BRANCH   9  13
ATOM     10  N   UNL     1      -4.806  12.134  19.454  0.00  0.00    +0.000 NA
ATOM     11  C   UNL     1      -3.672  11.510  18.756  0.00  0.00    +0.000 C 
ATOM     12  C   UNL     1      -2.339  12.300  18.761  0.00  0.00    +0.000 C 
ATOM     13  N   UNL     1      -1.927  12.879  20.059  0.00  0.00    +0.000 NA
ATOM     14  C   UNL     1      -3.081  13.584  20.647  0.00  0.00    +0.000 C 
ATOM     15  C   UNL     1      -4.380  12.748  20.720  0.00  0.00    +0.000 C 
BRANCH  10  17
ATOM     16  C   UNL     1      -6.468  12.289  17.503  0.00  0.00    +0.000 C 
ATOM     17  C   UNL     1      -5.738  12.959  18.669  0.00  0.00    +0.000 C 
ATOM     18  C   UNL     1      -6.759  13.663  19.573  0.00  0.00    +0.000 C 
ENDBRANCH  10  17
ENDBRANCH   9  13
ENDBRANCH   7   9
ENDBRANCH   1   8
BRANCH   4  19
ATOM     19  C   UNL     1       3.055   5.649  17.715  0.00  0.00    +0.000 C 
BRANCH  19  20
ATOM     20  N   UNL     1       4.203   5.087  18.451  0.00  0.00    +0.000 N 
ATOM     21  C   UNL     1       5.453   5.707  18.416  0.00  0.00    +0.000 A 
ATOM     22  C   UNL     1       5.819   6.654  17.478  0.00  0.00    +0.000 A 
ATOM     23  C   UNL     1       7.112   7.136  17.539  0.00  0.00    +0.000 A 
ATOM     24  N   UNL     1       8.019   6.743  18.441  0.00  0.00    +0.000 NA
ATOM     25  C   UNL     1       7.572   5.823  19.294  0.00  0.00    +0.000 A 
ATOM     26 CL   UNL     1       8.674   5.243  20.461  0.00  0.00    +0.000 Cl
ATOM     27  N   UNL     1       6.357   5.277  19.310  0.00  0.00    +0.000 NA
BRANCH  20  28
ATOM     28  C   UNL     1       4.364   3.611  18.501  0.00  0.00    +0.000 C 
BRANCH  28  29
ATOM     29  C   UNL     1       3.516   2.870  19.583  0.00  0.00    +0.000 C 
ATOM     30  C   UNL     1       4.419   1.830  20.261  0.00  0.00    +0.000 C 
ATOM     31  C   UNL     1       3.010   3.934  20.589  0.00  0.00    +0.000 C 
ATOM     32  C   UNL     1       2.260   2.121  19.101  0.00  0.00    +0.000 C 
ENDBRANCH  28  29
ENDBRANCH  20  28
ENDBRANCH  19  20
ENDBRANCH   4  19
TORSDOF 8
ENDMDL
MODEL 4
REMARK VINA RESULT:      -7.1      7.387      9.022
REMARK  Name = 
REMARK  13 active torsions:
REMARK  status: ('A' for Active; 'I' for Inactive)
REMARK    1  A    between atoms: C_1  and  C_2
REMARK    2  A    between atoms: C_2  and  C_3
REMARK    3  A    between atoms: C_2  and  N_4
REMARK    4  A    between atoms: N_7  and  C_8
REMARK    5  A    between atoms: C_8  and  C_9
REMARK    6  A    between atoms: C_10  and  C_11
REMARK    7  A    between atoms: C_14  and  C_15
REMARK    8  A    between atoms: C_15  and  N_16
REMARK    9  A    between atoms: N_16  and  C_17
REMARK   10  A    between atoms: C_17  and  C_18
REMARK   11  A    between atoms: C_18  and  C_19
REMARK   12  A    between atoms: C_18  and  C_20
REMARK   13  A    between atoms: C_18  and  C_21
REMARK                            x       y       z     vdW  Elec       q    Type
REMARK                         _______ _______ _______ _____ _____    ______ ____
ROOT
ATOM      1  C   UNL     1       1.413   8.245  20.164  0.00  0.00    +0.000 A 
ATOM      2  C   UNL     1       0.682   8.781  21.223  0.00  0.00    +0.000 A 
ATOM      3  C   UNL     1       0.155  10.087  21.122  0.00  0.00    +0.000 A 
ATOM      4  C   UNL     1       0.351  10.862  19.963  0.00  0.00    +0.000 A 
ATOM      5  C   UNL     1       1.013  10.260  18.885  0.00  0.00    +0.000 A 
ATOM      6  C   UNL     1       1.548   8.978  18.987  0.00  0.00    +0.000 A 
ENDROOT
BRANCH   1   8
ATOM      7  C   UNL     1       2.470   5.848  20.059  0.00  0.00    +0.000 C 
ATOM      8  C   UNL     1       2.074   6.974  20.220  0.00  0.00    +0.000 C 
BRANCH   7   9
ATOM      9  C   UNL     1       2.790   4.460  19.711  0.00  0.00    +0.000 C 
BRANCH   9  13
ATOM     10  N   UNL     1       4.752   4.808  16.536  0.00  0.00    +0.000 NA
ATOM     11  C   UNL     1       4.271   3.507  17.023  0.00  0.00    +0.000 C 
ATOM     12  C   UNL     1       4.529   3.190  18.517  0.00  0.00    +0.000 C 
ATOM     13  N   UNL     1       4.227   4.275  19.476  0.00  0.00    +0.000 NA
ATOM     14  C   UNL     1       4.836   5.524  18.981  0.00  0.00    +0.000 C 
ATOM     15  C   UNL     1       4.491   5.873  17.515  0.00  0.00    +0.000 C 
BRANCH  10  17
ATOM     16  C   UNL     1       7.288   4.503  16.796  0.00  0.00    +0.000 C 
ATOM     17  C   UNL     1       6.088   4.870  15.921  0.00  0.00    +0.000 C 
ATOM     18  C   UNL     1       6.141   4.062  14.617  0.00  0.00    +0.000 C 
ENDBRANCH  10  17
ENDBRANCH   9  13
ENDBRANCH   7   9
ENDBRANCH   1   8
BRANCH   4  19
ATOM     19  C   UNL     1      -0.111  12.309  19.813  0.00  0.00    +0.000 C 
BRANCH  19  20
ATOM     20  N   UNL     1      -1.565  12.465  20.009  0.00  0.00    +0.000 N 
ATOM     21  C   UNL     1      -2.472  12.037  19.038  0.00  0.00    +0.000 A 
ATOM     22  C   UNL     1      -2.126  11.758  17.729  0.00  0.00    +0.000 A 
ATOM     23  C   UNL     1      -3.147  11.399  16.871  0.00  0.00    +0.000 A 
ATOM     24  N   UNL     1      -4.434  11.308  17.227  0.00  0.00    +0.000 NA
ATOM     25  C   UNL     1      -4.664  11.605  18.505  0.00  0.00    +0.000 A 
ATOM     26 CL   UNL     1      -6.283  11.543  19.040  0.00  0.00    +0.000 Cl
ATOM     27  N   UNL     1      -3.760  11.981  19.409  0.00  0.00    +0.000 NA
BRANCH  20  28
ATOM     28  C   UNL     1      -2.067  13.695  20.673  0.00  0.00    +0.000 C 
BRANCH  28  29
ATOM     29  C   UNL     1      -2.258  13.604  22.220  0.00  0.00    +0.000 C 
ATOM     30  C   UNL     1      -1.004  14.187  22.887  0.00  0.00    +0.000 C 
ATOM     31  C   UNL     1      -3.529  14.412  22.582  0.00  0.00    +0.000 C 
ATOM     32  C   UNL     1      -2.470  12.202  22.823  0.00  0.00    +0.000 C 
ENDBRANCH  28  29
ENDBRANCH  20  28
ENDBRANCH  19  20
ENDBRANCH   4  19
TORSDOF 8
ENDMDL
MODEL 5
REMARK VINA RESULT:      -7.1      6.623     11.548
REMARK  Name = 
REMARK  13 active torsions:
REMARK  status: ('A' for Active; 'I' for Inactive)
REMARK    1  A    between atoms: C_1  and  C_2
REMARK    2  A    between atoms: C_2  and  C_3
REMARK    3  A    between atoms: C_2  and  N_4
REMARK    4  A    between atoms: N_7  and  C_8
REMARK    5  A    between atoms: C_8  and  C_9
REMARK    6  A    between atoms: C_10  and  C_11
REMARK    7  A    between atoms: C_14  and  C_15
REMARK    8  A    between atoms: C_15  and  N_16
REMARK    9  A    between atoms: N_16  and  C_17
REMARK   10  A    between atoms: C_17  and  C_18
REMARK   11  A    between atoms: C_18  and  C_19
REMARK   12  A    between atoms: C_18  and  C_20
REMARK   13  A    between atoms: C_18  and  C_21
REMARK                            x       y       z     vdW  Elec       q    Type
REMARK                         _______ _______ _______ _____ _____    ______ ____
ROOT
ATOM      1  C   UNL     1       1.234   9.178  19.649  0.00  0.00    +0.000 A 
ATOM      2  C   UNL     1       1.580   8.055  20.397  0.00  0.00    +0.000 A 
ATOM      3  C   UNL     1       2.229   6.968  19.774  0.00  0.00    +0.000 A 
ATOM      4  C   UNL     1       2.541   6.999  18.401  0.00  0.00    +0.000 A 
ATOM      5  C   UNL     1       2.261   8.178  17.699  0.00  0.00    +0.000 A 
ATOM      6  C   UNL     1       1.605   9.246  18.307  0.00  0.00    +0.000 A 
ENDROOT
BRANCH   1   8
ATOM      7  C   UNL     1      -0.253  11.217  20.360  0.00  0.00    +0.000 C 
ATOM      8  C   UNL     1       0.479  10.279  20.171  0.00  0.00    +0.000 C 
BRANCH   7   9
ATOM      9  C   UNL     1      -1.184  12.350  20.371  0.00  0.00    +0.000 C 
BRANCH   9  13
ATOM     10  N   UNL     1      -1.978  14.891  23.010  0.00  0.00    +0.000 NA
ATOM     11  C   UNL     1      -1.018  13.800  23.234  0.00  0.00    +0.000 C 
ATOM     12  C   UNL     1      -1.476  12.381  22.815  0.00  0.00    +0.000 C 
ATOM     13  N   UNL     1      -2.128  12.268  21.492  0.00  0.00    +0.000 NA
ATOM     14  C   UNL     1      -3.155  13.321  21.383  0.00  0.00    +0.000 C 
ATOM     15  C   UNL     1      -2.657  14.746  21.714  0.00  0.00    +0.000 C 
BRANCH  10  17
ATOM     16  C   UNL     1      -3.492  14.144  24.945  0.00  0.00    +0.000 C 
ATOM     17  C   UNL     1      -2.871  15.271  24.117  0.00  0.00    +0.000 C 
ATOM     18  C   UNL     1      -2.197  16.281  25.056  0.00  0.00    +0.000 C 
ENDBRANCH  10  17
ENDBRANCH   9  13
ENDBRANCH   7   9
ENDBRANCH   1   8
BRANCH   4  19
ATOM     19  C   UNL     1       3.162   5.831  17.638  0.00  0.00    +0.000 C 
BRANCH  19  20
ATOM     20  N   UNL     1       4.280   5.205  18.370  0.00  0.00    +0.000 N 
ATOM     21  C   UNL     1       5.546   5.794  18.391  0.00  0.00    +0.000 A 
ATOM     22  C   UNL     1       5.955   6.776  17.509  0.00  0.00    +0.000 A 
ATOM     23  C   UNL     1       7.258   7.220  17.621  0.00  0.00    +0.000 A 
ATOM     24  N   UNL     1       8.135   6.761  18.521  0.00  0.00    +0.000 NA
ATOM     25  C   UNL     1       7.647   5.813  19.318  0.00  0.00    +0.000 A 
ATOM     26 CL   UNL     1       8.707   5.149  20.479  0.00  0.00    +0.000 Cl
ATOM     27  N   UNL     1       6.418   5.299  19.283  0.00  0.00    +0.000 NA
BRANCH  20  28
ATOM     28  C   UNL     1       4.404   3.725  18.352  0.00  0.00    +0.000 C 
BRANCH  28  29
ATOM     29  C   UNL     1       3.158   2.931  18.859  0.00  0.00    +0.000 C 
ATOM     30  C   UNL     1       3.423   1.437  18.628  0.00  0.00    +0.000 C 
ATOM     31  C   UNL     1       2.977   3.257  20.363  0.00  0.00    +0.000 C 
ATOM     32  C   UNL     1       1.804   3.249  18.198  0.00  0.00    +0.000 C 
ENDBRANCH  28  29
ENDBRANCH  20  28
ENDBRANCH  19  20
ENDBRANCH   4  19
TORSDOF 8
ENDMDL
MODEL 6
REMARK VINA RESULT:      -7.1      6.614     11.452
REMARK  Name = 
REMARK  13 active torsions:
REMARK  status: ('A' for Active; 'I' for Inactive)
REMARK    1  A    between atoms: C_1  and  C_2
REMARK    2  A    between atoms: C_2  and  C_3
REMARK    3  A    between atoms: C_2  and  N_4
REMARK    4  A    between atoms: N_7  and  C_8
REMARK    5  A    between atoms: C_8  and  C_9
REMARK    6  A    between atoms: C_10  and  C_11
REMARK    7  A    between atoms: C_14  and  C_15
REMARK    8  A    between atoms: C_15  and  N_16
REMARK    9  A    between atoms: N_16  and  C_17
REMARK   10  A    between atoms: C_17  and  C_18
REMARK   11  A    between atoms: C_18  and  C_19
REMARK   12  A    between atoms: C_18  and  C_20
REMARK   13  A    between atoms: C_18  and  C_21
REMARK                            x       y       z     vdW  Elec       q    Type
REMARK                         _______ _______ _______ _____ _____    ______ ____
ROOT
ATOM      1  C   UNL     1       1.247   9.316  19.624  0.00  0.00    +0.000 A 
ATOM      2  C   UNL     1       1.604   8.172  20.335  0.00  0.00    +0.000 A 
ATOM      3  C   UNL     1       2.237   7.100  19.670  0.00  0.00    +0.000 A 
ATOM      4  C   UNL     1       2.522   7.167  18.292  0.00  0.00    +0.000 A 
ATOM      5  C   UNL     1       2.231   8.366  17.627  0.00  0.00    +0.000 A 
ATOM      6  C   UNL     1       1.592   9.419  18.278  0.00  0.00    +0.000 A 
ENDROOT
BRANCH   1   8
ATOM      7  C   UNL     1       0.123  11.442  20.668  0.00  0.00    +0.000 C 
ATOM      8  C   UNL     1       0.507  10.405  20.192  0.00  0.00    +0.000 C 
BRANCH   7   9
ATOM      9  C   UNL     1      -0.128  12.765  21.250  0.00  0.00    +0.000 C 
BRANCH   9  13
ATOM     10  N   UNL     1      -3.344  14.119  22.621  0.00  0.00    +0.000 NA
ATOM     11  C   UNL     1      -2.064  14.827  22.775  0.00  0.00    +0.000 C 
ATOM     12  C   UNL     1      -0.861  13.981  23.261  0.00  0.00    +0.000 C 
ATOM     13  N   UNL     1      -0.680  12.667  22.606  0.00  0.00    +0.000 NA
ATOM     14  C   UNL     1      -1.978  11.967  22.589  0.00  0.00    +0.000 C 
ATOM     15  C   UNL     1      -3.150  12.794  22.013  0.00  0.00    +0.000 C 
BRANCH  10  17
ATOM     16  C   UNL     1      -5.142  15.383  23.948  0.00  0.00    +0.000 C 
ATOM     17  C   UNL     1      -4.286  14.130  23.751  0.00  0.00    +0.000 C 
ATOM     18  C   UNL     1      -5.192  12.891  23.736  0.00  0.00    +0.000 C 
ENDBRANCH  10  17
ENDBRANCH   9  13
ENDBRANCH   7   9
ENDBRANCH   1   8
BRANCH   4  19
ATOM     19  C   UNL     1       3.123   6.019  17.485  0.00  0.00    +0.000 C 
BRANCH  19  20
ATOM     20  N   UNL     1       4.241   5.358  18.185  0.00  0.00    +0.000 N 
ATOM     21  C   UNL     1       5.506   5.948  18.239  0.00  0.00    +0.000 A 
ATOM     22  C   UNL     1       5.914   6.975  17.409  0.00  0.00    +0.000 A 
ATOM     23  C   UNL     1       7.215   7.416  17.546  0.00  0.00    +0.000 A 
ATOM     24  N   UNL     1       8.093   6.913  18.422  0.00  0.00    +0.000 NA
ATOM     25  C   UNL     1       7.605   5.923  19.169  0.00  0.00    +0.000 A 
ATOM     26 CL   UNL     1       8.666   5.203  20.295  0.00  0.00    +0.000 Cl
ATOM     27  N   UNL     1       6.378   5.409  19.104  0.00  0.00    +0.000 NA
BRANCH  20  28
ATOM     28  C   UNL     1       4.368   3.881  18.091  0.00  0.00    +0.000 C 
BRANCH  28  29
ATOM     29  C   UNL     1       3.205   3.055  18.726  0.00  0.00    +0.000 C 
ATOM     30  C   UNL     1       3.008   3.546  20.167  0.00  0.00    +0.000 C 
ATOM     31  C   UNL     1       1.941   3.289  17.862  0.00  0.00    +0.000 C 
ATOM     32  C   UNL     1       3.385   1.527  18.798  0.00  0.00    +0.000 C 
ENDBRANCH  28  29
ENDBRANCH  20  28
ENDBRANCH  19  20
ENDBRANCH   4  19
TORSDOF 8
ENDMDL
MODEL 7
REMARK VINA RESULT:      -7.1      1.584      3.504
REMARK  Name = 
REMARK  13 active torsions:
REMARK  status: ('A' for Active; 'I' for Inactive)
REMARK    1  A    between atoms: C_1  and  C_2
REMARK    2  A    between atoms: C_2  and  C_3
REMARK    3  A    between atoms: C_2  and  N_4
REMARK    4  A    between atoms: N_7  and  C_8
REMARK    5  A    between atoms: C_8  and  C_9
REMARK    6  A    between atoms: C_10  and  C_11
REMARK    7  A    between atoms: C_14  and  C_15
REMARK    8  A    between atoms: C_15  and  N_16
REMARK    9  A    between atoms: N_16  and  C_17
REMARK   10  A    between atoms: C_17  and  C_18
REMARK   11  A    between atoms: C_18  and  C_19
REMARK   12  A    between atoms: C_18  and  C_20
REMARK   13  A    between atoms: C_18  and  C_21
REMARK                            x       y       z     vdW  Elec       q    Type
REMARK                         _______ _______ _______ _____ _____    ______ ____
ROOT
ATOM      1  C   UNL     1       8.780  10.307  18.520  0.00  0.00    +0.000 A 
ATOM      2  C   UNL     1       9.405  10.255  19.765  0.00  0.00    +0.000 A 
ATOM      3  C   UNL     1      10.093  11.387  20.253  0.00  0.00    +0.000 A 
ATOM      4  C   UNL     1      10.157  12.578  19.504  0.00  0.00    +0.000 A 
ATOM      5  C   UNL     1       9.444  12.624  18.299  0.00  0.00    +0.000 A 
ATOM      6  C   UNL     1       8.777  11.504  17.807  0.00  0.00    +0.000 A 
ENDROOT
BRANCH   1   8
ATOM      7  C   UNL     1       7.752   8.091  17.570  0.00  0.00    +0.000 C 
ATOM      8  C   UNL     1       8.153   9.178  17.899  0.00  0.00    +0.000 C 
BRANCH   7   9
ATOM      9  C   UNL     1       7.398   6.687  17.330  0.00  0.00    +0.000 C 
BRANCH   9  13
ATOM     10  N   UNL     1       4.409   4.482  17.831  0.00  0.00    +0.000 NA
ATOM     11  C   UNL     1       5.512   4.116  16.930  0.00  0.00    +0.000 C 
ATOM     12  C   UNL     1       5.993   5.213  15.947  0.00  0.00    +0.000 C 
ATOM     13  N   UNL     1       6.182   6.565  16.518  0.00  0.00    +0.000 NA
ATOM     14  C   UNL     1       4.990   6.910  17.315  0.00  0.00    +0.000 C 
ATOM     15  C   UNL     1       4.579   5.844  18.357  0.00  0.00    +0.000 C 
BRANCH  10  17
ATOM     16  C   UNL     1       2.616   2.695  17.404  0.00  0.00    +0.000 C 
ATOM     17  C   UNL     1       3.034   4.166  17.411  0.00  0.00    +0.000 C 
ATOM     18  C   UNL     1       2.006   4.985  18.204  0.00  0.00    +0.000 C 
ENDBRANCH  10  17
ENDBRANCH   9  13
ENDBRANCH   7   9
ENDBRANCH   1   8
BRANCH   4  19
ATOM     19  C   UNL     1      10.953  13.811  19.923  0.00  0.00    +0.000 C 
BRANCH  19  20
ATOM     20  N   UNL     1      10.088  14.960  20.253  0.00  0.00    +0.000 N 
ATOM     21  C   UNL     1       9.423  15.031  21.478  0.00  0.00    +0.000 A 
ATOM     22  C   UNL     1       9.235  13.950  22.319  0.00  0.00    +0.000 A 
ATOM     23  C   UNL     1       8.507  14.167  23.472  0.00  0.00    +0.000 A 
ATOM     24  N   UNL     1       7.978  15.347  23.817  0.00  0.00    +0.000 NA
ATOM     25  C   UNL     1       8.207  16.321  22.939  0.00  0.00    +0.000 A 
ATOM     26 CL   UNL     1       7.544  17.854  23.286  0.00  0.00    +0.000 Cl
ATOM     27  N   UNL     1       8.876  16.216  21.791  0.00  0.00    +0.000 NA
BRANCH  20  28
ATOM     28  C   UNL     1       9.250  15.552  19.180  0.00  0.00    +0.000 C 
BRANCH  28  29
ATOM     29  C   UNL     1       9.890  16.740  18.393  0.00  0.00    +0.000 C 
ATOM     30  C   UNL     1      10.410  16.196  17.055  0.00  0.00    +0.000 C 
ATOM     31  C   UNL     1       8.790  17.811  18.188  0.00  0.00    +0.000 C 
ATOM     32  C   UNL     1      11.067  17.474  19.062  0.00  0.00    +0.000 C 
ENDBRANCH  28  29
ENDBRANCH  20  28
ENDBRANCH  19  20
ENDBRANCH   4  19
TORSDOF 8
ENDMDL
MODEL 8
REMARK VINA RESULT:      -7.1      7.667      9.503
REMARK  Name = 
REMARK  13 active torsions:
REMARK  status: ('A' for Active; 'I' for Inactive)
REMARK    1  A    between atoms: C_1  and  C_2
REMARK    2  A    between atoms: C_2  and  C_3
REMARK    3  A    between atoms: C_2  and  N_4
REMARK    4  A    between atoms: N_7  and  C_8
REMARK    5  A    between atoms: C_8  and  C_9
REMARK    6  A    between atoms: C_10  and  C_11
REMARK    7  A    between atoms: C_14  and  C_15
REMARK    8  A    between atoms: C_15  and  N_16
REMARK    9  A    between atoms: N_16  and  C_17
REMARK   10  A    between atoms: C_17  and  C_18
REMARK   11  A    between atoms: C_18  and  C_19
REMARK   12  A    between atoms: C_18  and  C_20
REMARK   13  A    between atoms: C_18  and  C_21
REMARK                            x       y       z     vdW  Elec       q    Type
REMARK                         _______ _______ _______ _____ _____    ______ ____
ROOT
ATOM      1  C   UNL     1       0.970   8.387  20.628  0.00  0.00    +0.000 A 
ATOM      2  C   UNL     1       0.098   8.836  21.618  0.00  0.00    +0.000 A 
ATOM      3  C   UNL     1      -0.480  10.120  21.514  0.00  0.00    +0.000 A 
ATOM      4  C   UNL     1      -0.195  10.959  20.419  0.00  0.00    +0.000 A 
ATOM      5  C   UNL     1       0.614  10.441  19.399  0.00  0.00    +0.000 A 
ATOM      6  C   UNL     1       1.200   9.181  19.507  0.00  0.00    +0.000 A 
ENDROOT
BRANCH   1   8
ATOM      7  C   UNL     1       2.083   6.013  20.622  0.00  0.00    +0.000 C 
ATOM      8  C   UNL     1       1.686   7.147  20.705  0.00  0.00    +0.000 C 
BRANCH   7   9
ATOM      9  C   UNL     1       2.371   4.588  20.420  0.00  0.00    +0.000 C 
BRANCH   9  13
ATOM     10  N   UNL     1       5.209   5.052  18.015  0.00  0.00    +0.000 NA
ATOM     11  C   UNL     1       4.102   6.015  18.118  0.00  0.00    +0.000 C 
ATOM     12  C   UNL     1       2.670   5.422  18.123  0.00  0.00    +0.000 C 
ATOM     13  N   UNL     1       2.452   4.247  18.995  0.00  0.00    +0.000 NA
ATOM     14  C   UNL     1       3.536   3.276  18.755  0.00  0.00    +0.000 C 
ATOM     15  C   UNL     1       4.963   3.865  18.848  0.00  0.00    +0.000 C 
BRANCH  10  17
ATOM     16  C   UNL     1       5.429   5.731  15.549  0.00  0.00    +0.000 C 
ATOM     17  C   UNL     1       5.745   4.749  16.679  0.00  0.00    +0.000 C 
ATOM     18  C   UNL     1       7.259   4.498  16.727  0.00  0.00    +0.000 C 
ENDBRANCH  10  17
ENDBRANCH   9  13
ENDBRANCH   7   9
ENDBRANCH   1   8
BRANCH   4  19
ATOM     19  C   UNL     1      -0.711  12.388  20.280  0.00  0.00    +0.000 C 
BRANCH  19  20
ATOM     20  N   UNL     1      -2.178  12.451  20.136  0.00  0.00    +0.000 N 
ATOM     21  C   UNL     1      -2.810  11.962  18.992  0.00  0.00    +0.000 A 
ATOM     22  C   UNL     1      -2.158  11.699  17.802  0.00  0.00    +0.000 A 
ATOM     23  C   UNL     1      -2.930  11.271  16.741  0.00  0.00    +0.000 A 
ATOM     24  N   UNL     1      -4.256  11.100  16.796  0.00  0.00    +0.000 NA
ATOM     25  C   UNL     1      -4.791  11.387  17.981  0.00  0.00    +0.000 A 
ATOM     26 CL   UNL     1      -6.483  11.225  18.133  0.00  0.00    +0.000 Cl
ATOM     27  N   UNL     1      -4.143  11.826  19.060  0.00  0.00    +0.000 NA
BRANCH  20  28
ATOM     28  C   UNL     1      -2.893  13.650  20.644  0.00  0.00    +0.000 C 
BRANCH  28  29
ATOM     29  C   UNL     1      -3.398  13.568  22.119  0.00  0.00    +0.000 C 
ATOM     30  C   UNL     1      -2.786  14.742  22.895  0.00  0.00    +0.000 C 
ATOM     31  C   UNL     1      -4.945  13.644  22.088  0.00  0.00    +0.000 C 
ATOM     32  C   UNL     1      -3.060  12.289  22.909  0.00  0.00    +0.000 C 
ENDBRANCH  28  29
ENDBRANCH  20  28
ENDBRANCH  19  20
ENDBRANCH   4  19
TORSDOF 8
ENDMDL
MODEL 9
REMARK VINA RESULT:      -7.1      1.800      3.525
REMARK  Name = 
REMARK  13 active torsions:
REMARK  status: ('A' for Active; 'I' for Inactive)
REMARK    1  A    between atoms: C_1  and  C_2
REMARK    2  A    between atoms: C_2  and  C_3
REMARK    3  A    between atoms: C_2  and  N_4
REMARK    4  A    between atoms: N_7  and  C_8
REMARK    5  A    between atoms: C_8  and  C_9
REMARK    6  A    between atoms: C_10  and  C_11
REMARK    7  A    between atoms: C_14  and  C_15
REMARK    8  A    between atoms: C_15  and  N_16
REMARK    9  A    between atoms: N_16  and  C_17
REMARK   10  A    between atoms: C_17  and  C_18
REMARK   11  A    between atoms: C_18  and  C_19
REMARK   12  A    between atoms: C_18  and  C_20
REMARK   13  A    between atoms: C_18  and  C_21
REMARK                            x       y       z     vdW  Elec       q    Type
REMARK                         _______ _______ _______ _____ _____    ______ ____
ROOT
ATOM      1  C   UNL     1       8.721  10.298  18.424  0.00  0.00    +0.000 A 
ATOM      2  C   UNL     1       8.642  11.576  17.873  0.00  0.00    +0.000 A 
ATOM      3  C   UNL     1       9.069  12.692  18.624  0.00  0.00    +0.000 A 
ATOM      4  C   UNL     1       9.580  12.538  19.927  0.00  0.00    +0.000 A 
ATOM      5  C   UNL     1       9.729  11.233  20.415  0.00  0.00    +0.000 A 
ATOM      6  C   UNL     1       9.294  10.131  19.683  0.00  0.00    +0.000 A 
ENDROOT
BRANCH   1   8
ATOM      7  C   UNL     1       7.786   8.035  17.486  0.00  0.00    +0.000 C 
ATOM      8  C   UNL     1       8.213   9.122  17.779  0.00  0.00    +0.000 C 
BRANCH   7   9
ATOM      9  C   UNL     1       7.300   6.658  17.345  0.00  0.00    +0.000 C 
BRANCH   9  13
ATOM     10  N   UNL     1       4.427   4.275  17.691  0.00  0.00    +0.000 NA
ATOM     11  C   UNL     1       5.482   4.092  16.683  0.00  0.00    +0.000 C 
ATOM     12  C   UNL     1       5.860   5.339  15.845  0.00  0.00    +0.000 C 
ATOM     13  N   UNL     1       6.039   6.601  16.596  0.00  0.00    +0.000 NA
ATOM     14  C   UNL     1       4.889   6.775  17.504  0.00  0.00    +0.000 C 
ATOM     15  C   UNL     1       4.584   5.553  18.400  0.00  0.00    +0.000 C 
BRANCH  10  17
ATOM     16  C   UNL     1       2.561   2.522  17.498  0.00  0.00    +0.000 C 
ATOM     17  C   UNL     1       3.040   3.963  17.311  0.00  0.00    +0.000 C 
ATOM     18  C   UNL     1       2.048   4.923  17.983  0.00  0.00    +0.000 C 
ENDBRANCH  10  17
ENDBRANCH   9  13
ENDBRANCH   7   9
ENDBRANCH   1   8
BRANCH   4  19
ATOM     19  C   UNL     1       9.979  13.700  20.833  0.00  0.00    +0.000 C 
BRANCH  19  20
ATOM     20  N   UNL     1       8.818  14.336  21.485  0.00  0.00    +0.000 N 
ATOM     21  C   UNL     1       8.394  13.931  22.752  0.00  0.00    +0.000 A 
ATOM     22  C   UNL     1       8.769  12.742  23.348  0.00  0.00    +0.000 A 
ATOM     23  C   UNL     1       8.221  12.455  24.582  0.00  0.00    +0.000 A 
ATOM     24  N   UNL     1       7.358  13.250  25.226  0.00  0.00    +0.000 NA
ATOM     25  C   UNL     1       7.054  14.366  24.566  0.00  0.00    +0.000 A 
ATOM     26 CL   UNL     1       5.938  15.426  25.301  0.00  0.00    +0.000 Cl
ATOM     27  N   UNL     1       7.507  14.729  23.366  0.00  0.00    +0.000 NA
BRANCH  20  28
ATOM     28  C   UNL     1       7.650  14.715  20.650  0.00  0.00    +0.000 C 
BRANCH  28  29
ATOM     29  C   UNL     1       7.636  16.185  20.125  0.00  0.00    +0.000 C 
ATOM     30  C   UNL     1       7.928  16.153  18.618  0.00  0.00    +0.000 C 
ATOM     31  C   UNL     1       6.236  16.775  20.425  0.00  0.00    +0.000 C 
ATOM     32  C   UNL     1       8.645  17.166  20.751  0.00  0.00    +0.000 C 
ENDBRANCH  28  29
ENDBRANCH  20  28
ENDBRANCH  19  20
ENDBRANCH   4  19
TORSDOF 8
ENDMDL
