MODEL 1
REMARK VINA RESULT:      -7.5      0.000      0.000
REMARK  Name = 
REMARK  6 active torsions:
REMARK  status: ('A' for Active; 'I' for Inactive)
REMARK    1  A    between atoms: C_1  and  C_2
REMARK    2  A    between atoms: C_2  and  C_3
REMARK    3  A    between atoms: C_7  and  C_8
REMARK    4  A    between atoms: C_11  and  C_12
REMARK    5  A    between atoms: C_23  and  C_24
REMARK    6  A    between atoms: C_25  and  C_26
REMARK                            x       y       z     vdW  Elec       q    Type
REMARK                         _______ _______ _______ _____ _____    ______ ____
ROOT
ATOM      1  C   UNL     1      -0.539  10.618  22.055  0.00  0.00    +0.000 A 
ATOM      2  N   UNL     1       0.021  10.555  23.288  0.00  0.00    +0.000 NA
ATOM      3  C   UNL     1       0.974   9.637  23.470  0.00  0.00    +0.000 A 
ATOM      4  N   UNL     1       1.419   8.781  22.537  0.00  0.00    +0.000 NA
ATOM      5  C   UNL     1       0.853   8.860  21.310  0.00  0.00    +0.000 A 
ATOM      6  C   UNL     1      -0.163   9.779  21.005  0.00  0.00    +0.000 A 
ENDROOT
BRANCH   5   7
ATOM      7  C   UNL     1       1.374   7.841  20.368  0.00  0.00    +0.000 A 
ATOM      8  C   UNL     1       1.244   6.476  20.627  0.00  0.00    +0.000 A 
ATOM      9  C   UNL     1       1.915   5.533  19.858  0.00  0.00    +0.000 A 
ATOM     10  C   UNL     1       2.577   5.873  18.678  0.00  0.00    +0.000 A 
ATOM     11  C   UNL     1       2.635   7.235  18.339  0.00  0.00    +0.000 A 
ATOM     12 CL   UNL     1       3.407   7.847  16.916  0.00  0.00    +0.000 Cl
ATOM     13  C   UNL     1       2.054   8.198  19.191  0.00  0.00    +0.000 A 
BRANCH  10  14
ATOM     14  C   UNL     1       3.308   4.804  17.930  0.00  0.00    +0.000 C 
ATOM     15  O   UNL     1       2.645   4.012  17.262  0.00  0.00    +0.000 OA
ATOM     16  N   UNL     1       4.707   4.778  17.888  0.00  0.00    +0.000 N 
ATOM     17  C   UNL     1       5.361   3.981  16.848  0.00  0.00    +0.000 C 
ATOM     18  C   UNL     1       6.357   4.851  16.052  0.00  0.00    +0.000 C 
ATOM     19  N   UNL     1       7.341   5.544  16.909  0.00  0.00    +0.000 NA
ATOM     20  C   UNL     1       6.658   6.303  17.971  0.00  0.00    +0.000 C 
ATOM     21  C   UNL     1       5.678   5.423  18.785  0.00  0.00    +0.000 C 
ATOM     22  H   UNL     1       7.885   6.186  16.332  0.00  0.00    +0.000 HD
ENDBRANCH  10  14
ENDBRANCH   5   7
BRANCH   1  24
ATOM     23  C   UNL     1      -2.343  11.820  23.282  0.00  0.00    +0.000 C 
ATOM     24  C   UNL     1      -1.671  11.609  21.933  0.00  0.00    +0.000 C 
ENDBRANCH   1  24
BRANCH   6  25
ATOM     25  C   UNL     1      -0.810   9.879  19.715  0.00  0.00    +0.000 C 
ATOM     26  C   UNL     1      -1.393   9.996  18.670  0.00  0.00    +0.000 C 
BRANCH  26  27
ATOM     27  C   UNL     1      -2.132  10.147  17.445  0.00  0.00    +0.000 A 
ATOM     28  C   UNL     1      -3.236  10.990  17.367  0.00  0.00    +0.000 A 
ATOM     29  C   UNL     1      -3.956  11.078  16.171  0.00  0.00    +0.000 A 
ATOM     30  C   UNL     1      -3.567  10.305  15.087  0.00  0.00    +0.000 A 
ATOM     31  N   UNL     1      -4.276  10.365  13.890  0.00  0.00    +0.000 N 
ATOM     32  N   UNL     1      -2.475   9.521  15.119  0.00  0.00    +0.000 NA
ATOM     33  C   UNL     1      -1.781   9.462  16.289  0.00  0.00    +0.000 A 
ATOM     34  H   UNL     1      -5.274  10.266  14.023  0.00  0.00    +0.000 HD
ATOM     35  H   UNL     1      -3.898   9.654  13.269  0.00  0.00    +0.000 HD
ENDBRANCH  26  27
ENDBRANCH   6  25
TORSDOF 5
ENDMDL
MODEL 2
REMARK VINA RESULT:      -7.4      1.580      2.356
REMARK  Name = 
REMARK  6 active torsions:
REMARK  status: ('A' for Active; 'I' for Inactive)
REMARK    1  A    between atoms: C_1  and  C_2
REMARK    2  A    between atoms: C_2  and  C_3
REMARK    3  A    between atoms: C_7  and  C_8
REMARK    4  A    between atoms: C_11  and  C_12
REMARK    5  A    between atoms: C_23  and  C_24
REMARK    6  A    between atoms: C_25  and  C_26
REMARK                            x       y       z     vdW  Elec       q    Type
REMARK                         _______ _______ _______ _____ _____    ______ ____
ROOT
ATOM      1  C   UNL     1      -1.030  10.978  22.165  0.00  0.00    +0.000 A 
ATOM      2  N   UNL     1      -0.535  10.955  23.428  0.00  0.00    +0.000 NA
ATOM      3  C   UNL     1       0.458  10.096  23.669  0.00  0.00    +0.000 A 
ATOM      4  N   UNL     1       1.003   9.263  22.769  0.00  0.00    +0.000 NA
ATOM      5  C   UNL     1       0.502   9.302  21.512  0.00  0.00    +0.000 A 
ATOM      6  C   UNL     1      -0.548  10.157  21.144  0.00  0.00    +0.000 A 
ENDROOT
BRANCH   5   7
ATOM      7  C   UNL     1       1.133   8.310  20.608  0.00  0.00    +0.000 A 
ATOM      8  C   UNL     1       1.218   6.962  20.954  0.00  0.00    +0.000 A 
ATOM      9  C   UNL     1       1.992   6.079  20.211  0.00  0.00    +0.000 A 
ATOM     10  C   UNL     1       2.550   6.434  18.982  0.00  0.00    +0.000 A 
ATOM     11  C   UNL     1       2.390   7.764  18.561  0.00  0.00    +0.000 A 
ATOM     12 CL   UNL     1       3.007   8.388  17.069  0.00  0.00    +0.000 Cl
ATOM     13  C   UNL     1       1.705   8.685  19.381  0.00  0.00    +0.000 A 
BRANCH  10  14
ATOM     14  C   UNL     1       3.403   5.437  18.265  0.00  0.00    +0.000 C 
ATOM     15  O   UNL     1       4.585   5.720  18.076  0.00  0.00    +0.000 OA
ATOM     16  N   UNL     1       2.909   4.172  17.929  0.00  0.00    +0.000 N 
ATOM     17  C   UNL     1       3.866   3.112  17.600  0.00  0.00    +0.000 C 
ATOM     18  C   UNL     1       3.612   1.869  18.478  0.00  0.00    +0.000 C 
ATOM     19  N   UNL     1       2.218   1.384  18.416  0.00  0.00    +0.000 NA
ATOM     20  C   UNL     1       1.277   2.479  18.709  0.00  0.00    +0.000 C 
ATOM     21  C   UNL     1       1.515   3.716  17.809  0.00  0.00    +0.000 C 
ATOM     22  H   UNL     1       2.096   0.641  19.105  0.00  0.00    +0.000 HD
ENDBRANCH  10  14
ENDBRANCH   5   7
BRANCH   1  24
ATOM     23  C   UNL     1      -2.862  12.218  23.311  0.00  0.00    +0.000 C 
ATOM     24  C   UNL     1      -2.210  11.900  21.974  0.00  0.00    +0.000 C 
ENDBRANCH   1  24
BRANCH   6  25
ATOM     25  C   UNL     1      -1.128  10.213  19.821  0.00  0.00    +0.000 C 
ATOM     26  C   UNL     1      -1.662  10.233  18.743  0.00  0.00    +0.000 C 
BRANCH  26  27
ATOM     27  C   UNL     1      -2.334  10.223  17.471  0.00  0.00    +0.000 A 
ATOM     28  C   UNL     1      -1.834   9.493  16.397  0.00  0.00    +0.000 A 
ATOM     29  C   UNL     1      -2.491   9.543  15.163  0.00  0.00    +0.000 A 
ATOM     30  C   UNL     1      -3.619  10.338  15.027  0.00  0.00    +0.000 A 
ATOM     31  N   UNL     1      -4.282  10.415  13.804  0.00  0.00    +0.000 N 
ATOM     32  N   UNL     1      -4.152  11.014  16.060  0.00  0.00    +0.000 NA
ATOM     33  C   UNL     1      -3.505  10.938  17.256  0.00  0.00    +0.000 A 
ATOM     34  H   UNL     1      -3.654  10.601  13.032  0.00  0.00    +0.000 HD
ATOM     35  H   UNL     1      -5.007  11.123  13.888  0.00  0.00    +0.000 HD
ENDBRANCH  26  27
ENDBRANCH   6  25
TORSDOF 5
ENDMDL
MODEL 3
REMARK VINA RESULT:      -7.2      1.949      2.776
REMARK  Name = 
REMARK  6 active torsions:
REMARK  status: ('A' for Active; 'I' for Inactive)
REMARK    1  A    between atoms: C_1  and  C_2
REMARK    2  A    between atoms: C_2  and  C_3
REMARK    3  A    between atoms: C_7  and  C_8
REMARK    4  A    between atoms: C_11  and  C_12
REMARK    5  A    between atoms: C_23  and  C_24
REMARK    6  A    between atoms: C_25  and  C_26
REMARK                            x       y       z     vdW  Elec       q    Type
REMARK                         _______ _______ _______ _____ _____    ______ ____
ROOT
ATOM      1  C   UNL     1      -1.719  11.920  21.259  0.00  0.00    +0.000 A 
ATOM      2  N   UNL     1      -1.394  12.172  22.552  0.00  0.00    +0.000 NA
ATOM      3  C   UNL     1      -0.440  11.410  23.092  0.00  0.00    +0.000 A 
ATOM      4  N   UNL     1       0.219  10.425  22.462  0.00  0.00    +0.000 NA
ATOM      5  C   UNL     1      -0.114  10.190  21.172  0.00  0.00    +0.000 A 
ATOM      6  C   UNL     1      -1.107  10.920  20.502  0.00  0.00    +0.000 A 
ENDROOT
BRANCH   5   7
ATOM      7  C   UNL     1       0.632   9.051  20.583  0.00  0.00    +0.000 A 
ATOM      8  C   UNL     1       0.708   7.818  21.231  0.00  0.00    +0.000 A 
ATOM      9  C   UNL     1       1.576   6.827  20.788  0.00  0.00    +0.000 A 
ATOM     10  C   UNL     1       2.254   6.925  19.573  0.00  0.00    +0.000 A 
ATOM     11  C   UNL     1       2.112   8.119  18.848  0.00  0.00    +0.000 A 
ATOM     12 CL   UNL     1       2.872   8.422  17.322  0.00  0.00    +0.000 Cl
ATOM     13  C   UNL     1       1.324   9.168  19.366  0.00  0.00    +0.000 A 
BRANCH  10  14
ATOM     14  C   UNL     1       3.200   5.832  19.188  0.00  0.00    +0.000 C 
ATOM     15  O   UNL     1       4.391   5.978  19.462  0.00  0.00    +0.000 OA
ATOM     16  N   UNL     1       2.733   4.629  18.647  0.00  0.00    +0.000 N 
ATOM     17  C   UNL     1       3.623   3.465  18.659  0.00  0.00    +0.000 C 
ATOM     18  C   UNL     1       2.927   2.265  19.335  0.00  0.00    +0.000 C 
ATOM     19  N   UNL     1       1.613   1.941  18.741  0.00  0.00    +0.000 NA
ATOM     20  C   UNL     1       0.755   3.139  18.703  0.00  0.00    +0.000 C 
ATOM     21  C   UNL     1       1.444   4.334  18.002  0.00  0.00    +0.000 C 
ATOM     22  H   UNL     1       1.163   1.222  19.308  0.00  0.00    +0.000 HD
ENDBRANCH  10  14
ENDBRANCH   5   7
BRANCH   1  24
ATOM     23  C   UNL     1      -4.048  12.695  21.685  0.00  0.00    +0.000 C 
ATOM     24  C   UNL     1      -2.865  12.749  20.730  0.00  0.00    +0.000 C 
ENDBRANCH   1  24
BRANCH   6  25
ATOM     25  C   UNL     1      -1.508  10.684  19.133  0.00  0.00    +0.000 C 
ATOM     26  C   UNL     1      -1.894  10.521  18.005  0.00  0.00    +0.000 C 
BRANCH  26  27
ATOM     27  C   UNL     1      -2.401  10.339  16.671  0.00  0.00    +0.000 A 
ATOM     28  C   UNL     1      -1.976   9.280  15.876  0.00  0.00    +0.000 A 
ATOM     29  C   UNL     1      -2.458   9.161  14.569  0.00  0.00    +0.000 A 
ATOM     30  C   UNL     1      -3.338  10.116  14.081  0.00  0.00    +0.000 A 
ATOM     31  N   UNL     1      -3.821  10.026  12.777  0.00  0.00    +0.000 N 
ATOM     32  N   UNL     1      -3.804  11.121  14.843  0.00  0.00    +0.000 NA
ATOM     33  C   UNL     1      -3.332  11.208  16.118  0.00  0.00    +0.000 A 
ATOM     34  H   UNL     1      -3.085   9.880  12.098  0.00  0.00    +0.000 HD
ATOM     35  H   UNL     1      -4.358  10.869  12.586  0.00  0.00    +0.000 HD
ENDBRANCH  26  27
ENDBRANCH   6  25
TORSDOF 5
ENDMDL
MODEL 4
REMARK VINA RESULT:      -7.2      1.231      1.506
REMARK  Name = 
REMARK  6 active torsions:
REMARK  status: ('A' for Active; 'I' for Inactive)
REMARK    1  A    between atoms: C_1  and  C_2
REMARK    2  A    between atoms: C_2  and  C_3
REMARK    3  A    between atoms: C_7  and  C_8
REMARK    4  A    between atoms: C_11  and  C_12
REMARK    5  A    between atoms: C_23  and  C_24
REMARK    6  A    between atoms: C_25  and  C_26
REMARK                            x       y       z     vdW  Elec       q    Type
REMARK                         _______ _______ _______ _____ _____    ______ ____
ROOT
ATOM      1  C   UNL     1      -0.834  10.905  22.011  0.00  0.00    +0.000 A 
ATOM      2  N   UNL     1      -0.430  10.906  23.305  0.00  0.00    +0.000 NA
ATOM      3  C   UNL     1       0.484   9.998  23.652  0.00  0.00    +0.000 A 
ATOM      4  N   UNL     1       1.033   9.092  22.827  0.00  0.00    +0.000 NA
ATOM      5  C   UNL     1       0.624   9.107  21.537  0.00  0.00    +0.000 A 
ATOM      6  C   UNL     1      -0.338  10.010  21.061  0.00  0.00    +0.000 A 
ENDROOT
BRANCH   5   7
ATOM      7  C   UNL     1       1.248   8.037  20.721  0.00  0.00    +0.000 A 
ATOM      8  C   UNL     1       1.851   8.315  19.495  0.00  0.00    +0.000 A 
ATOM      9  C   UNL     1       2.242   7.293  18.639  0.00  0.00    +0.000 A 
ATOM     10  C   UNL     1       2.247   5.955  19.037  0.00  0.00    +0.000 A 
ATOM     11  C   UNL     1       1.739   5.658  20.311  0.00  0.00    +0.000 A 
ATOM     12 CL   UNL     1       1.667   4.062  20.977  0.00  0.00    +0.000 Cl
ATOM     13  C   UNL     1       1.231   6.692  21.126  0.00  0.00    +0.000 A 
BRANCH  10  14
ATOM     14  C   UNL     1       2.645   4.911  18.042  0.00  0.00    +0.000 C 
ATOM     15  O   UNL     1       1.827   4.597  17.178  0.00  0.00    +0.000 OA
ATOM     16  N   UNL     1       3.946   4.397  18.015  0.00  0.00    +0.000 N 
ATOM     17  C   UNL     1       4.396   3.697  16.809  0.00  0.00    +0.000 C 
ATOM     18  C   UNL     1       5.709   4.318  16.287  0.00  0.00    +0.000 C 
ATOM     19  N   UNL     1       6.773   4.381  17.311  0.00  0.00    +0.000 NA
ATOM     20  C   UNL     1       6.279   5.052  18.527  0.00  0.00    +0.000 C 
ATOM     21  C   UNL     1       4.977   4.411  19.064  0.00  0.00    +0.000 C 
ATOM     22  H   UNL     1       7.562   4.906  16.933  0.00  0.00    +0.000 HD
ENDBRANCH  10  14
ENDBRANCH   5   7
BRANCH   1  24
ATOM     23  C   UNL     1      -2.471  12.515  22.977  0.00  0.00    +0.000 C 
ATOM     24  C   UNL     1      -1.934  11.891  21.697  0.00  0.00    +0.000 C 
ENDBRANCH   1  24
BRANCH   6  25
ATOM     25  C   UNL     1      -0.820  10.043  19.698  0.00  0.00    +0.000 C 
ATOM     26  C   UNL     1      -1.271  10.103  18.584  0.00  0.00    +0.000 C 
BRANCH  26  27
ATOM     27  C   UNL     1      -1.853  10.186  17.271  0.00  0.00    +0.000 A 
ATOM     28  C   UNL     1      -2.622  11.282  16.891  0.00  0.00    +0.000 A 
ATOM     29  C   UNL     1      -3.209  11.307  15.622  0.00  0.00    +0.000 A 
ATOM     30  C   UNL     1      -3.030  10.226  14.770  0.00  0.00    +0.000 A 
ATOM     31  N   UNL     1      -3.616  10.222  13.506  0.00  0.00    +0.000 N 
ATOM     32  N   UNL     1      -2.252   9.178  15.093  0.00  0.00    +0.000 NA
ATOM     33  C   UNL     1      -1.678   9.182  16.328  0.00  0.00    +0.000 A 
ATOM     34  H   UNL     1      -4.599  10.461  13.532  0.00  0.00    +0.000 HD
ATOM     35  H   UNL     1      -3.453   9.307  13.092  0.00  0.00    +0.000 HD
ENDBRANCH  26  27
ENDBRANCH   6  25
TORSDOF 5
ENDMDL
MODEL 5
REMARK VINA RESULT:      -7.1      1.236      1.651
REMARK  Name = 
REMARK  6 active torsions:
REMARK  status: ('A' for Active; 'I' for Inactive)
REMARK    1  A    between atoms: C_1  and  C_2
REMARK    2  A    between atoms: C_2  and  C_3
REMARK    3  A    between atoms: C_7  and  C_8
REMARK    4  A    between atoms: C_11  and  C_12
REMARK    5  A    between atoms: C_23  and  C_24
REMARK    6  A    between atoms: C_25  and  C_26
REMARK                            x       y       z     vdW  Elec       q    Type
REMARK                         _______ _______ _______ _____ _____    ______ ____
ROOT
ATOM      1  C   UNL     1      -0.987  10.911  21.960  0.00  0.00    +0.000 A 
ATOM      2  N   UNL     1      -0.567  10.919  23.249  0.00  0.00    +0.000 NA
ATOM      3  C   UNL     1       0.425  10.083  23.565  0.00  0.00    +0.000 A 
ATOM      4  N   UNL     1       1.036   9.244  22.714  0.00  0.00    +0.000 NA
ATOM      5  C   UNL     1       0.609   9.251  21.430  0.00  0.00    +0.000 A 
ATOM      6  C   UNL     1      -0.432  10.080  20.985  0.00  0.00    +0.000 A 
ENDROOT
BRANCH   5   7
ATOM      7  C   UNL     1       1.309   8.254  20.583  0.00  0.00    +0.000 A 
ATOM      8  C   UNL     1       1.787   8.584  19.315  0.00  0.00    +0.000 A 
ATOM      9  C   UNL     1       2.247   7.604  18.445  0.00  0.00    +0.000 A 
ATOM     10  C   UNL     1       2.450   6.285  18.854  0.00  0.00    +0.000 A 
ATOM     11  C   UNL     1       2.071   5.950  20.164  0.00  0.00    +0.000 A 
ATOM     12 CL   UNL     1       2.249   4.370  20.849  0.00  0.00    +0.000 Cl
ATOM     13  C   UNL     1       1.492   6.926  21.002  0.00  0.00    +0.000 A 
BRANCH  10  14
ATOM     14  C   UNL     1       2.910   5.282  17.844  0.00  0.00    +0.000 C 
ATOM     15  O   UNL     1       2.057   4.597  17.283  0.00  0.00    +0.000 OA
ATOM     16  N   UNL     1       4.254   5.209  17.459  0.00  0.00    +0.000 N 
ATOM     17  C   UNL     1       4.586   4.512  16.214  0.00  0.00    +0.000 C 
ATOM     18  C   UNL     1       5.416   5.430  15.291  0.00  0.00    +0.000 C 
ATOM     19  N   UNL     1       6.620   5.982  15.946  0.00  0.00    +0.000 NA
ATOM     20  C   UNL     1       6.261   6.639  17.215  0.00  0.00    +0.000 C 
ATOM     21  C   UNL     1       5.452   5.709  18.150  0.00  0.00    +0.000 C 
ATOM     22  H   UNL     1       7.050   6.666  15.322  0.00  0.00    +0.000 HD
ENDBRANCH  10  14
ENDBRANCH   5   7
BRANCH   1  24
ATOM     23  C   UNL     1      -2.764  12.325  22.983  0.00  0.00    +0.000 C 
ATOM     24  C   UNL     1      -2.169  11.807  21.682  0.00  0.00    +0.000 C 
ENDBRANCH   1  24
BRANCH   6  25
ATOM     25  C   UNL     1      -0.934  10.101  19.629  0.00  0.00    +0.000 C 
ATOM     26  C   UNL     1      -1.409  10.123  18.524  0.00  0.00    +0.000 C 
BRANCH  26  27
ATOM     27  C   UNL     1      -2.022  10.138  17.222  0.00  0.00    +0.000 A 
ATOM     28  C   UNL     1      -1.740   9.153  16.281  0.00  0.00    +0.000 A 
ATOM     29  C   UNL     1      -2.321   9.226  15.011  0.00  0.00    +0.000 A 
ATOM     30  C   UNL     1      -3.154  10.292  14.705  0.00  0.00    +0.000 A 
ATOM     31  N   UNL     1      -3.734  10.394  13.443  0.00  0.00    +0.000 N 
ATOM     32  N   UNL     1      -3.483  11.230  15.612  0.00  0.00    +0.000 NA
ATOM     33  C   UNL     1      -2.917  11.131  16.847  0.00  0.00    +0.000 A 
ATOM     34  H   UNL     1      -3.061  10.277  12.695  0.00  0.00    +0.000 HD
ATOM     35  H   UNL     1      -4.213  11.289  13.392  0.00  0.00    +0.000 HD
ENDBRANCH  26  27
ENDBRANCH   6  25
TORSDOF 5
ENDMDL
MODEL 6
REMARK VINA RESULT:      -7.1      3.110      9.229
REMARK  Name = 
REMARK  6 active torsions:
REMARK  status: ('A' for Active; 'I' for Inactive)
REMARK    1  A    between atoms: C_1  and  C_2
REMARK    2  A    between atoms: C_2  and  C_3
REMARK    3  A    between atoms: C_7  and  C_8
REMARK    4  A    between atoms: C_11  and  C_12
REMARK    5  A    between atoms: C_23  and  C_24
REMARK    6  A    between atoms: C_25  and  C_26
REMARK                            x       y       z     vdW  Elec       q    Type
REMARK                         _______ _______ _______ _____ _____    ______ ____
ROOT
ATOM      1  C   UNL     1       5.319   4.633  16.674  0.00  0.00    +0.000 A 
ATOM      2  N   UNL     1       4.503   3.561  16.516  0.00  0.00    +0.000 NA
ATOM      3  C   UNL     1       3.260   3.675  16.991  0.00  0.00    +0.000 A 
ATOM      4  N   UNL     1       2.758   4.757  17.606  0.00  0.00    +0.000 NA
ATOM      5  C   UNL     1       3.584   5.820  17.752  0.00  0.00    +0.000 A 
ATOM      6  C   UNL     1       4.912   5.812  17.300  0.00  0.00    +0.000 A 
ENDROOT
BRANCH   5   7
ATOM      7  C   UNL     1       2.954   6.943  18.488  0.00  0.00    +0.000 A 
ATOM      8  C   UNL     1       2.442   6.773  19.774  0.00  0.00    +0.000 A 
ATOM      9  C   UNL     1       1.667   7.759  20.374  0.00  0.00    +0.000 A 
ATOM     10  C   UNL     1       1.533   9.034  19.822  0.00  0.00    +0.000 A 
ATOM     11  C   UNL     1       2.127   9.262  18.571  0.00  0.00    +0.000 A 
ATOM     12 CL   UNL     1       2.071  10.776  17.734  0.00  0.00    +0.000 Cl
ATOM     13  C   UNL     1       2.810   8.217  17.914  0.00  0.00    +0.000 A 
BRANCH  10  14
ATOM     14  C   UNL     1       0.648  10.025  20.510  0.00  0.00    +0.000 C 
ATOM     15  O   UNL     1       1.043  10.511  21.569  0.00  0.00    +0.000 OA
ATOM     16  N   UNL     1      -0.532  10.479  19.911  0.00  0.00    +0.000 N 
ATOM     17  C   UNL     1      -1.143  11.710  20.416  0.00  0.00    +0.000 C 
ATOM     18  C   UNL     1      -1.361  12.713  19.263  0.00  0.00    +0.000 C 
ATOM     19  N   UNL     1      -2.126  12.147  18.133  0.00  0.00    +0.000 NA
ATOM     20  C   UNL     1      -1.513  10.889  17.673  0.00  0.00    +0.000 C 
ATOM     21  C   UNL     1      -1.320   9.874  18.826  0.00  0.00    +0.000 C 
ATOM     22  H   UNL     1      -2.128  12.821  17.367  0.00  0.00    +0.000 HD
ENDBRANCH  10  14
ENDBRANCH   5   7
BRANCH   1  24
ATOM     23  C   UNL     1       6.829   4.598  14.693  0.00  0.00    +0.000 C 
ATOM     24  C   UNL     1       6.736   4.415  16.201  0.00  0.00    +0.000 C 
ENDBRANCH   1  24
BRANCH   6  25
ATOM     25  C   UNL     1       5.833   6.916  17.458  0.00  0.00    +0.000 C 
ATOM     26  C   UNL     1       6.621   7.807  17.640  0.00  0.00    +0.000 C 
BRANCH  26  27
ATOM     27  C   UNL     1       7.568   8.856  17.904  0.00  0.00    +0.000 A 
ATOM     28  C   UNL     1       8.629   8.665  18.784  0.00  0.00    +0.000 A 
ATOM     29  C   UNL     1       9.505   9.723  19.050  0.00  0.00    +0.000 A 
ATOM     30  C   UNL     1       9.287  10.952  18.446  0.00  0.00    +0.000 A 
ATOM     31  N   UNL     1      10.137  12.025  18.705  0.00  0.00    +0.000 N 
ATOM     32  N   UNL     1       8.300  11.150  17.553  0.00  0.00    +0.000 NA
ATOM     33  C   UNL     1       7.469  10.102  17.299  0.00  0.00    +0.000 A 
ATOM     34  H   UNL     1      10.292  12.168  19.696  0.00  0.00    +0.000 HD
ATOM     35  H   UNL     1       9.746  12.848  18.255  0.00  0.00    +0.000 HD
ENDBRANCH  26  27
ENDBRANCH   6  25
TORSDOF 5
ENDMDL
MODEL 7
REMARK VINA RESULT:      -6.9      2.047      2.855
REMARK  Name = 
REMARK  6 active torsions:
REMARK  status: ('A' for Active; 'I' for Inactive)
REMARK    1  A    between atoms: C_1  and  C_2
REMARK    2  A    between atoms: C_2  and  C_3
REMARK    3  A    between atoms: C_7  and  C_8
REMARK    4  A    between atoms: C_11  and  C_12
REMARK    5  A    between atoms: C_23  and  C_24
REMARK    6  A    between atoms: C_25  and  C_26
REMARK                            x       y       z     vdW  Elec       q    Type
REMARK                         _______ _______ _______ _____ _____    ______ ____
ROOT
ATOM      1  C   UNL     1      -1.579  11.606  21.066  0.00  0.00    +0.000 A 
ATOM      2  N   UNL     1      -1.151  11.865  22.326  0.00  0.00    +0.000 NA
ATOM      3  C   UNL     1      -0.042  11.237  22.726  0.00  0.00    +0.000 A 
ATOM      4  N   UNL     1       0.677  10.379  21.985  0.00  0.00    +0.000 NA
ATOM      5  C   UNL     1       0.238  10.136  20.728  0.00  0.00    +0.000 A 
ATOM      6  C   UNL     1      -0.919  10.730  20.203  0.00  0.00    +0.000 A 
ENDROOT
BRANCH   5   7
ATOM      7  C   UNL     1       1.068   9.137  20.011  0.00  0.00    +0.000 A 
ATOM      8  C   UNL     1       1.464   9.334  18.688  0.00  0.00    +0.000 A 
ATOM      9  C   UNL     1       2.054   8.312  17.956  0.00  0.00    +0.000 A 
ATOM     10  C   UNL     1       2.469   7.119  18.549  0.00  0.00    +0.000 A 
ATOM     11  C   UNL     1       2.173   6.938  19.909  0.00  0.00    +0.000 A 
ATOM     12 CL   UNL     1       2.610   5.529  20.816  0.00  0.00    +0.000 Cl
ATOM     13  C   UNL     1       1.465   7.933  20.615  0.00  0.00    +0.000 A 
BRANCH  10  14
ATOM     14  C   UNL     1       3.060   6.053  17.682  0.00  0.00    +0.000 C 
ATOM     15  O   UNL     1       4.142   6.282  17.144  0.00  0.00    +0.000 OA
ATOM     16  N   UNL     1       2.466   4.790  17.584  0.00  0.00    +0.000 N 
ATOM     17  C   UNL     1       3.267   3.679  17.063  0.00  0.00    +0.000 C 
ATOM     18  C   UNL     1       3.254   2.497  18.055  0.00  0.00    +0.000 C 
ATOM     19  N   UNL     1       1.892   2.061  18.426  0.00  0.00    +0.000 NA
ATOM     20  C   UNL     1       1.097   3.204  18.907  0.00  0.00    +0.000 C 
ATOM     21  C   UNL     1       1.089   4.379  17.899  0.00  0.00    +0.000 C 
ATOM     22  H   UNL     1       1.961   1.363  19.168  0.00  0.00    +0.000 HD
ENDBRANCH  10  14
ENDBRANCH   5   7
BRANCH   1  24
ATOM     23  C   UNL     1      -3.619  12.728  21.953  0.00  0.00    +0.000 C 
ATOM     24  C   UNL     1      -2.885  12.270  20.701  0.00  0.00    +0.000 C 
ENDBRANCH   1  24
BRANCH   6  25
ATOM     25  C   UNL     1      -1.434  10.478  18.876  0.00  0.00    +0.000 C 
ATOM     26  C   UNL     1      -1.872  10.329  17.765  0.00  0.00    +0.000 C 
BRANCH  26  27
ATOM     27  C   UNL     1      -2.414  10.197  16.439  0.00  0.00    +0.000 A 
ATOM     28  C   UNL     1      -1.966   9.207  15.571  0.00  0.00    +0.000 A 
ATOM     29  C   UNL     1      -2.486   9.137  14.274  0.00  0.00    +0.000 A 
ATOM     30  C   UNL     1      -3.427  10.073  13.870  0.00  0.00    +0.000 A 
ATOM     31  N   UNL     1      -3.950  10.032  12.579  0.00  0.00    +0.000 N 
ATOM     32  N   UNL     1      -3.915  11.009  14.704  0.00  0.00    +0.000 NA
ATOM     33  C   UNL     1      -3.405  11.048  15.966  0.00  0.00    +0.000 A 
ATOM     34  H   UNL     1      -3.230   9.962  11.870  0.00  0.00    +0.000 HD
ATOM     35  H   UNL     1      -4.533  10.856  12.454  0.00  0.00    +0.000 HD
ENDBRANCH  26  27
ENDBRANCH   6  25
TORSDOF 5
ENDMDL
MODEL 8
REMARK VINA RESULT:      -6.9      3.080      8.553
REMARK  Name = 
REMARK  6 active torsions:
REMARK  status: ('A' for Active; 'I' for Inactive)
REMARK    1  A    between atoms: C_1  and  C_2
REMARK    2  A    between atoms: C_2  and  C_3
REMARK    3  A    between atoms: C_7  and  C_8
REMARK    4  A    between atoms: C_11  and  C_12
REMARK    5  A    between atoms: C_23  and  C_24
REMARK    6  A    between atoms: C_25  and  C_26
REMARK                            x       y       z     vdW  Elec       q    Type
REMARK                         _______ _______ _______ _____ _____    ______ ____
ROOT
ATOM      1  C   UNL     1       3.344   2.683  20.204  0.00  0.00    +0.000 A 
ATOM      2  N   UNL     1       2.589   2.271  21.252  0.00  0.00    +0.000 NA
ATOM      3  C   UNL     1       1.700   3.143  21.734  0.00  0.00    +0.000 A 
ATOM      4  N   UNL     1       1.494   4.383  21.265  0.00  0.00    +0.000 NA
ATOM      5  C   UNL     1       2.252   4.778  20.215  0.00  0.00    +0.000 A 
ATOM      6  C   UNL     1       3.223   3.951  19.632  0.00  0.00    +0.000 A 
ENDROOT
BRANCH   5   7
ATOM      7  C   UNL     1       1.986   6.179  19.806  0.00  0.00    +0.000 A 
ATOM      8  C   UNL     1       1.992   6.559  18.464  0.00  0.00    +0.000 A 
ATOM      9  C   UNL     1       1.956   7.899  18.098  0.00  0.00    +0.000 A 
ATOM     10  C   UNL     1       1.706   8.913  19.023  0.00  0.00    +0.000 A 
ATOM     11  C   UNL     1       1.593   8.544  20.373  0.00  0.00    +0.000 A 
ATOM     12 CL   UNL     1       1.280   9.659  21.659  0.00  0.00    +0.000 Cl
ATOM     13  C   UNL     1       1.751   7.193  20.749  0.00  0.00    +0.000 A 
BRANCH  10  14
ATOM     14  C   UNL     1       1.723  10.334  18.553  0.00  0.00    +0.000 C 
ATOM     15  O   UNL     1       2.587  10.661  17.741  0.00  0.00    +0.000 OA
ATOM     16  N   UNL     1       0.717  11.231  18.928  0.00  0.00    +0.000 N 
ATOM     17  C   UNL     1       0.552  12.461  18.149  0.00  0.00    +0.000 C 
ATOM     18  C   UNL     1      -0.906  12.594  17.660  0.00  0.00    +0.000 C 
ATOM     19  N   UNL     1      -1.899  12.501  18.750  0.00  0.00    +0.000 NA
ATOM     20  C   UNL     1      -1.683  11.277  19.542  0.00  0.00    +0.000 C 
ATOM     21  C   UNL     1      -0.227  11.158  20.054  0.00  0.00    +0.000 C 
ATOM     22  H   UNL     1      -2.834  12.477  18.343  0.00  0.00    +0.000 HD
ENDBRANCH  10  14
ENDBRANCH   5   7
BRANCH   1  24
ATOM     23  C   UNL     1       3.947   0.970  18.498  0.00  0.00    +0.000 C 
ATOM     24  C   UNL     1       4.393   1.692  19.761  0.00  0.00    +0.000 C 
ENDBRANCH   1  24
BRANCH   6  25
ATOM     25  C   UNL     1       4.070   4.342  18.527  0.00  0.00    +0.000 C 
ATOM     26  C   UNL     1       4.766   4.611  17.584  0.00  0.00    +0.000 C 
BRANCH  26  27
ATOM     27  C   UNL     1       5.604   4.884  16.446  0.00  0.00    +0.000 A 
ATOM     28  C   UNL     1       5.306   4.366  15.190  0.00  0.00    +0.000 A 
ATOM     29  C   UNL     1       6.168   4.616  14.117  0.00  0.00    +0.000 A 
ATOM     30  C   UNL     1       7.318   5.362  14.331  0.00  0.00    +0.000 A 
ATOM     31  N   UNL     1       8.199   5.614  13.282  0.00  0.00    +0.000 N 
ATOM     32  N   UNL     1       7.604   5.917  15.522  0.00  0.00    +0.000 NA
ATOM     33  C   UNL     1       6.743   5.672  16.549  0.00  0.00    +0.000 A 
ATOM     34  H   UNL     1       8.441   4.776  12.768  0.00  0.00    +0.000 HD
ATOM     35  H   UNL     1       9.017   6.078  13.667  0.00  0.00    +0.000 HD
ENDBRANCH  26  27
ENDBRANCH   6  25
TORSDOF 5
ENDMDL
MODEL 9
REMARK VINA RESULT:      -6.8      3.304      9.300
REMARK  Name = 
REMARK  6 active torsions:
REMARK  status: ('A' for Active; 'I' for Inactive)
REMARK    1  A    between atoms: C_1  and  C_2
REMARK    2  A    between atoms: C_2  and  C_3
REMARK    3  A    between atoms: C_7  and  C_8
REMARK    4  A    between atoms: C_11  and  C_12
REMARK    5  A    between atoms: C_23  and  C_24
REMARK    6  A    between atoms: C_25  and  C_26
REMARK                            x       y       z     vdW  Elec       q    Type
REMARK                         _______ _______ _______ _____ _____    ______ ____
ROOT
ATOM      1  C   UNL     1       5.626   4.603  16.948  0.00  0.00    +0.000 A 
ATOM      2  N   UNL     1       4.888   3.473  16.821  0.00  0.00    +0.000 NA
ATOM      3  C   UNL     1       3.590   3.564  17.121  0.00  0.00    +0.000 A 
ATOM      4  N   UNL     1       2.963   4.678  17.532  0.00  0.00    +0.000 NA
ATOM      5  C   UNL     1       3.713   5.798  17.648  0.00  0.00    +0.000 A 
ATOM      6  C   UNL     1       5.087   5.820  17.369  0.00  0.00    +0.000 A 
ENDROOT
BRANCH   5   7
ATOM      7  C   UNL     1       2.941   6.958  18.158  0.00  0.00    +0.000 A 
ATOM      8  C   UNL     1       2.702   8.079  17.363  0.00  0.00    +0.000 A 
ATOM      9  C   UNL     1       2.170   9.243  17.905  0.00  0.00    +0.000 A 
ATOM     10  C   UNL     1       1.659   9.290  19.203  0.00  0.00    +0.000 A 
ATOM     11  C   UNL     1       1.795   8.137  19.993  0.00  0.00    +0.000 A 
ATOM     12 CL   UNL     1       1.222   8.006  21.621  0.00  0.00    +0.000 Cl
ATOM     13  C   UNL     1       2.447   6.999  19.472  0.00  0.00    +0.000 A 
BRANCH  10  14
ATOM     14  C   UNL     1       1.140  10.592  19.724  0.00  0.00    +0.000 C 
ATOM     15  O   UNL     1       1.918  11.316  20.344  0.00  0.00    +0.000 OA
ATOM     16  N   UNL     1      -0.151  11.033  19.411  0.00  0.00    +0.000 N 
ATOM     17  C   UNL     1      -0.470  12.450  19.597  0.00  0.00    +0.000 C 
ATOM     18  C   UNL     1      -1.037  13.048  18.292  0.00  0.00    +0.000 C 
ATOM     19  N   UNL     1      -2.190  12.295  17.757  0.00  0.00    +0.000 NA
ATOM     20  C   UNL     1      -1.855  10.867  17.621  0.00  0.00    +0.000 C 
ATOM     21  C   UNL     1      -1.311  10.262  18.937  0.00  0.00    +0.000 C 
ATOM     22  H   UNL     1      -2.435  12.673  16.842  0.00  0.00    +0.000 HD
ENDBRANCH  10  14
ENDBRANCH   5   7
BRANCH   1  24
ATOM     23  C   UNL     1       7.431   4.752  15.237  0.00  0.00    +0.000 C 
ATOM     24  C   UNL     1       7.101   4.419  16.684  0.00  0.00    +0.000 C 
ENDBRANCH   1  24
BRANCH   6  25
ATOM     25  C   UNL     1       5.928   6.989  17.504  0.00  0.00    +0.000 C 
ATOM     26  C   UNL     1       6.662   7.930  17.657  0.00  0.00    +0.000 C 
BRANCH  26  27
ATOM     27  C   UNL     1       7.555   9.034  17.883  0.00  0.00    +0.000 A 
ATOM     28  C   UNL     1       8.666   8.906  18.711  0.00  0.00    +0.000 A 
ATOM     29  C   UNL     1       9.487  10.015  18.941  0.00  0.00    +0.000 A 
ATOM     30  C   UNL     1       9.166  11.230  18.355  0.00  0.00    +0.000 A 
ATOM     31  N   UNL     1       9.961  12.352  18.581  0.00  0.00    +0.000 N 
ATOM     32  N   UNL     1       8.128  11.370  17.512  0.00  0.00    +0.000 NA
ATOM     33  C   UNL     1       7.351  10.273  17.290  0.00  0.00    +0.000 A 
ATOM     34  H   UNL     1      10.153  12.502  19.563  0.00  0.00    +0.000 HD
ATOM     35  H   UNL     1       9.499  13.151  18.154  0.00  0.00    +0.000 HD
ENDBRANCH  26  27
ENDBRANCH   6  25
TORSDOF 5
ENDMDL
