MODEL 1
REMARK VINA RESULT:      -8.9      0.000      0.000
REMARK  Name = 
REMARK  9 active torsions:
REMARK  status: ('A' for Active; 'I' for Inactive)
REMARK    1  A    between atoms: C_1  and  C_2
REMARK    2  A    between atoms: N_4  and  C_5
REMARK    3  A    between atoms: C_8  and  N_9
REMARK    4  A    between atoms: C_10  and  C_12
REMARK    5  A    between atoms: C_12  and  O_13
REMARK    6  A    between atoms: O_13  and  C_14
REMARK    7  A    between atoms: C_17  and  S_18
REMARK    8  A    between atoms: S_18  and  N_21
REMARK    9  A    between atoms: C_27  and  C_28
REMARK                            x       y       z     vdW  Elec       q    Type
REMARK                         _______ _______ _______ _____ _____    ______ ____
ROOT
ATOM      1  C   UNL     1       7.940   6.648  18.583  0.00  0.00    +0.000 C 
ENDROOT
BRANCH   1   3
ATOM      2  N   UNL     1       8.949   8.805  19.168  0.00  0.00    +0.000 N 
ATOM      3  C   UNL     1       8.164   8.120  18.251  0.00  0.00    +0.000 C 
ATOM      4  O   UNL     1       7.650   8.588  17.238  0.00  0.00    +0.000 OA
ATOM      5  H   UNL     1       9.340   8.277  19.939  0.00  0.00    +0.000 HD
BRANCH   2   9
ATOM      6  C   UNL     1       9.946  12.939  19.077  0.00  0.00    +0.000 A 
ATOM      7  C   UNL     1       9.912  12.196  17.902  0.00  0.00    +0.000 A 
ATOM      8  C   UNL     1       9.586  10.837  17.920  0.00  0.00    +0.000 A 
ATOM      9  C   UNL     1       9.284  10.178  19.109  0.00  0.00    +0.000 A 
ATOM     10  C   UNL     1       9.319  10.921  20.297  0.00  0.00    +0.000 A 
ATOM     11  C   UNL     1       9.661  12.288  20.284  0.00  0.00    +0.000 A 
BRANCH   6  15
ATOM     12  C   UNL     1      10.059  16.706  18.919  0.00  0.00    +0.000 C 
ATOM     13  C   UNL     1       9.382  15.364  18.977  0.00  0.00    +0.000 C 
ATOM     14  O   UNL     1       8.159  15.288  18.919  0.00  0.00    +0.000 OA
ATOM     15  N   UNL     1      10.278  14.311  19.098  0.00  0.00    +0.000 N 
ATOM     16  H   UNL     1      11.244  14.543  19.288  0.00  0.00    +0.000 HD
ENDBRANCH   6  15
ENDBRANCH   2   9
ENDBRANCH   1   3
BRANCH   1  17
ATOM     17  O   UNL     1       7.588   5.978  17.383  0.00  0.00    +0.000 OA
BRANCH  17  18
ATOM     18  C   UNL     1       6.351   5.400  17.293  0.00  0.00    +0.000 A 
ATOM     19  C   UNL     1       5.587   5.556  18.466  0.00  0.00    +0.000 A 
ATOM     20  C   UNL     1       4.319   4.979  18.600  0.00  0.00    +0.000 A 
ATOM     21  C   UNL     1       3.807   4.224  17.551  0.00  0.00    +0.000 A 
ATOM     22  C   UNL     1       4.551   4.069  16.376  0.00  0.00    +0.000 A 
ATOM     23  C   UNL     1       5.845   4.615  16.244  0.00  0.00    +0.000 A 
ATOM     24  C   UNL     1       6.600   4.244  15.000  0.00  0.00    +0.000 C 
BRANCH  21  25
ATOM     25  S   UNL     1       2.201   3.454  17.666  0.00  0.00    +0.000 S 
ATOM     26  O   UNL     1       1.223   4.450  17.281  0.00  0.00    +0.000 OA
ATOM     27  O   UNL     1       2.289   2.185  16.971  0.00  0.00    +0.000 OA
BRANCH  25  28
ATOM     28  N   UNL     1       2.002   3.102  19.295  0.00  0.00    +0.000 NA
ATOM     29  C   UNL     1       1.225   3.981  20.180  0.00  0.00    +0.000 C 
ATOM     30  C   UNL     1       2.100   4.153  21.408  0.00  0.00    +0.000 C 
ATOM     31  C   UNL     1       2.846   2.834  21.502  0.00  0.00    +0.000 C 
ATOM     32  C   UNL     1       3.069   2.421  20.049  0.00  0.00    +0.000 C 
ENDBRANCH  25  28
ENDBRANCH  21  25
ENDBRANCH  17  18
ENDBRANCH   1  17
TORSDOF 7
ENDMDL
MODEL 2
REMARK VINA RESULT:      -8.8      5.716      7.721
REMARK  Name = 
REMARK  9 active torsions:
REMARK  status: ('A' for Active; 'I' for Inactive)
REMARK    1  A    between atoms: C_1  and  C_2
REMARK    2  A    between atoms: N_4  and  C_5
REMARK    3  A    between atoms: C_8  and  N_9
REMARK    4  A    between atoms: C_10  and  C_12
REMARK    5  A    between atoms: C_12  and  O_13
REMARK    6  A    between atoms: O_13  and  C_14
REMARK    7  A    between atoms: C_17  and  S_18
REMARK    8  A    between atoms: S_18  and  N_21
REMARK    9  A    between atoms: C_27  and  C_28
REMARK                            x       y       z     vdW  Elec       q    Type
REMARK                         _______ _______ _______ _____ _____    ______ ____
ROOT
ATOM      1  C   UNL     1       2.841   3.503  21.114  0.00  0.00    +0.000 C 
ENDROOT
BRANCH   1   3
ATOM      2  N   UNL     1       2.604   5.900  20.654  0.00  0.00    +0.000 N 
ATOM      3  C   UNL     1       1.947   4.680  20.738  0.00  0.00    +0.000 C 
ATOM      4  O   UNL     1       0.748   4.482  20.549  0.00  0.00    +0.000 OA
ATOM      5  H   UNL     1       3.606   5.904  20.798  0.00  0.00    +0.000 HD
BRANCH   2   9
ATOM      6  C   UNL     1       0.831   9.637  19.659  0.00  0.00    +0.000 A 
ATOM      7  C   UNL     1       0.677   9.100  20.933  0.00  0.00    +0.000 A 
ATOM      8  C   UNL     1       1.255   7.873  21.271  0.00  0.00    +0.000 A 
ATOM      9  C   UNL     1       2.003   7.144  20.350  0.00  0.00    +0.000 A 
ATOM     10  C   UNL     1       2.161   7.679  19.063  0.00  0.00    +0.000 A 
ATOM     11  C   UNL     1       1.567   8.909  18.716  0.00  0.00    +0.000 A 
BRANCH   6  15
ATOM     12  C   UNL     1      -1.143  12.474  18.150  0.00  0.00    +0.000 C 
ATOM     13  C   UNL     1      -0.848  11.031  18.458  0.00  0.00    +0.000 C 
ATOM     14  O   UNL     1      -1.558  10.145  17.995  0.00  0.00    +0.000 OA
ATOM     15  N   UNL     1       0.257  10.870  19.281  0.00  0.00    +0.000 N 
ATOM     16  H   UNL     1       0.646  11.701  19.706  0.00  0.00    +0.000 HD
ENDBRANCH   6  15
ENDBRANCH   2   9
ENDBRANCH   1   3
BRANCH   1  17
ATOM     17  O   UNL     1       3.123   2.774  19.930  0.00  0.00    +0.000 OA
BRANCH  17  18
ATOM     18  C   UNL     1       3.723   3.423  18.886  0.00  0.00    +0.000 A 
ATOM     19  C   UNL     1       5.065   3.759  19.149  0.00  0.00    +0.000 A 
ATOM     20  C   UNL     1       5.833   4.488  18.234  0.00  0.00    +0.000 A 
ATOM     21  C   UNL     1       5.252   4.897  17.039  0.00  0.00    +0.000 A 
ATOM     22  C   UNL     1       3.922   4.561  16.760  0.00  0.00    +0.000 A 
ATOM     23  C   UNL     1       3.128   3.860  17.691  0.00  0.00    +0.000 A 
ATOM     24  C   UNL     1       1.676   3.700  17.341  0.00  0.00    +0.000 C 
BRANCH  21  25
ATOM     25  S   UNL     1       6.176   5.838  15.836  0.00  0.00    +0.000 S 
ATOM     26  O   UNL     1       5.260   6.794  15.249  0.00  0.00    +0.000 OA
ATOM     27  O   UNL     1       7.396   6.274  16.487  0.00  0.00    +0.000 OA
BRANCH  25  28
ATOM     28  N   UNL     1       6.624   4.725  14.662  0.00  0.00    +0.000 NA
ATOM     29  C   UNL     1       7.744   4.984  13.749  0.00  0.00    +0.000 C 
ATOM     30  C   UNL     1       7.205   4.629  12.375  0.00  0.00    +0.000 C 
ATOM     31  C   UNL     1       6.216   3.512  12.659  0.00  0.00    +0.000 C 
ATOM     32  C   UNL     1       5.611   3.876  14.011  0.00  0.00    +0.000 C 
ENDBRANCH  25  28
ENDBRANCH  21  25
ENDBRANCH  17  18
ENDBRANCH   1  17
TORSDOF 7
ENDMDL
MODEL 3
REMARK VINA RESULT:      -8.6      5.510      7.426
REMARK  Name = 
REMARK  9 active torsions:
REMARK  status: ('A' for Active; 'I' for Inactive)
REMARK    1  A    between atoms: C_1  and  C_2
REMARK    2  A    between atoms: N_4  and  C_5
REMARK    3  A    between atoms: C_8  and  N_9
REMARK    4  A    between atoms: C_10  and  C_12
REMARK    5  A    between atoms: C_12  and  O_13
REMARK    6  A    between atoms: O_13  and  C_14
REMARK    7  A    between atoms: C_17  and  S_18
REMARK    8  A    between atoms: S_18  and  N_21
REMARK    9  A    between atoms: C_27  and  C_28
REMARK                            x       y       z     vdW  Elec       q    Type
REMARK                         _______ _______ _______ _____ _____    ______ ____
ROOT
ATOM      1  C   UNL     1       2.759   3.488  21.052  0.00  0.00    +0.000 C 
ENDROOT
BRANCH   1   3
ATOM      2  N   UNL     1       2.591   5.892  20.600  0.00  0.00    +0.000 N 
ATOM      3  C   UNL     1       1.896   4.694  20.695  0.00  0.00    +0.000 C 
ATOM      4  O   UNL     1       0.689   4.536  20.527  0.00  0.00    +0.000 OA
ATOM      5  H   UNL     1       3.595   5.864  20.725  0.00  0.00    +0.000 HD
BRANCH   2   9
ATOM      6  C   UNL     1       0.926   9.689  19.646  0.00  0.00    +0.000 A 
ATOM      7  C   UNL     1       0.726   9.127  20.902  0.00  0.00    +0.000 A 
ATOM      8  C   UNL     1       1.268   7.880  21.227  0.00  0.00    +0.000 A 
ATOM      9  C   UNL     1       2.026   7.156  20.310  0.00  0.00    +0.000 A 
ATOM     10  C   UNL     1       2.229   7.717  19.040  0.00  0.00    +0.000 A 
ATOM     11  C   UNL     1       1.672   8.966  18.706  0.00  0.00    +0.000 A 
BRANCH   6  15
ATOM     12  C   UNL     1      -0.178  13.284  19.366  0.00  0.00    +0.000 C 
ATOM     13  C   UNL     1       0.634  12.147  19.923  0.00  0.00    +0.000 C 
ATOM     14  O   UNL     1       1.414  12.344  20.849  0.00  0.00    +0.000 OA
ATOM     15  N   UNL     1       0.389  10.942  19.281  0.00  0.00    +0.000 N 
ATOM     16  H   UNL     1      -0.166  10.971  18.436  0.00  0.00    +0.000 HD
ENDBRANCH   6  15
ENDBRANCH   2   9
ENDBRANCH   1   3
BRANCH   1  17
ATOM     17  O   UNL     1       3.031   2.776  19.855  0.00  0.00    +0.000 OA
BRANCH  17  18
ATOM     18  C   UNL     1       3.649   3.433  18.827  0.00  0.00    +0.000 A 
ATOM     19  C   UNL     1       5.012   3.686  19.079  0.00  0.00    +0.000 A 
ATOM     20  C   UNL     1       5.805   4.407  18.179  0.00  0.00    +0.000 A 
ATOM     21  C   UNL     1       5.228   4.894  17.011  0.00  0.00    +0.000 A 
ATOM     22  C   UNL     1       3.878   4.642  16.743  0.00  0.00    +0.000 A 
ATOM     23  C   UNL     1       3.061   3.949  17.660  0.00  0.00    +0.000 A 
ATOM     24  C   UNL     1       1.597   3.882  17.329  0.00  0.00    +0.000 C 
BRANCH  21  25
ATOM     25  S   UNL     1       6.185   5.831  15.831  0.00  0.00    +0.000 S 
ATOM     26  O   UNL     1       5.296   6.817  15.250  0.00  0.00    +0.000 OA
ATOM     27  O   UNL     1       7.409   6.228  16.498  0.00  0.00    +0.000 OA
BRANCH  25  28
ATOM     28  N   UNL     1       6.615   4.725  14.643  0.00  0.00    +0.000 NA
ATOM     29  C   UNL     1       7.716   4.994  13.709  0.00  0.00    +0.000 C 
ATOM     30  C   UNL     1       7.151   4.642  12.345  0.00  0.00    +0.000 C 
ATOM     31  C   UNL     1       6.175   3.517  12.643  0.00  0.00    +0.000 C 
ATOM     32  C   UNL     1       5.594   3.873  14.009  0.00  0.00    +0.000 C 
ENDBRANCH  25  28
ENDBRANCH  21  25
ENDBRANCH  17  18
ENDBRANCH   1  17
TORSDOF 7
ENDMDL
MODEL 4
REMARK VINA RESULT:      -8.5      5.961      9.264
REMARK  Name = 
REMARK  9 active torsions:
REMARK  status: ('A' for Active; 'I' for Inactive)
REMARK    1  A    between atoms: C_1  and  C_2
REMARK    2  A    between atoms: N_4  and  C_5
REMARK    3  A    between atoms: C_8  and  N_9
REMARK    4  A    between atoms: C_10  and  C_12
REMARK    5  A    between atoms: C_12  and  O_13
REMARK    6  A    between atoms: O_13  and  C_14
REMARK    7  A    between atoms: C_17  and  S_18
REMARK    8  A    between atoms: S_18  and  N_21
REMARK    9  A    between atoms: C_27  and  C_28
REMARK                            x       y       z     vdW  Elec       q    Type
REMARK                         _______ _______ _______ _____ _____    ______ ____
ROOT
ATOM      1  C   UNL     1       1.920   5.981  20.123  0.00  0.00    +0.000 C 
ENDROOT
BRANCH   1   3
ATOM      2  N   UNL     1       3.770   5.645  18.550  0.00  0.00    +0.000 N 
ATOM      3  C   UNL     1       2.411   5.472  18.772  0.00  0.00    +0.000 C 
ATOM      4  O   UNL     1       1.603   4.967  17.995  0.00  0.00    +0.000 OA
ATOM      5  H   UNL     1       4.322   6.042  19.300  0.00  0.00    +0.000 HD
BRANCH   2   9
ATOM      6  C   UNL     1       5.870   4.480  15.039  0.00  0.00    +0.000 A 
ATOM      7  C   UNL     1       5.545   5.814  15.256  0.00  0.00    +0.000 A 
ATOM      8  C   UNL     1       4.856   6.209  16.405  0.00  0.00    +0.000 A 
ATOM      9  C   UNL     1       4.469   5.286  17.373  0.00  0.00    +0.000 A 
ATOM     10  C   UNL     1       4.792   3.938  17.159  0.00  0.00    +0.000 A 
ATOM     11  C   UNL     1       5.474   3.536  15.994  0.00  0.00    +0.000 A 
BRANCH   6  15
ATOM     12  C   UNL     1       6.980   3.093  11.711  0.00  0.00    +0.000 C 
ATOM     13  C   UNL     1       5.975   3.596  12.711  0.00  0.00    +0.000 C 
ATOM     14  O   UNL     1       4.778   3.582  12.442  0.00  0.00    +0.000 OA
ATOM     15  N   UNL     1       6.560   4.045  13.886  0.00  0.00    +0.000 N 
ATOM     16  H   UNL     1       7.567   4.136  13.899  0.00  0.00    +0.000 HD
ENDBRANCH   6  15
ENDBRANCH   2   9
ENDBRANCH   1   3
BRANCH   1  17
ATOM     17  O   UNL     1       2.432   7.292  20.308  0.00  0.00    +0.000 OA
BRANCH  17  18
ATOM     18  C   UNL     1       1.654   8.357  19.943  0.00  0.00    +0.000 A 
ATOM     19  C   UNL     1       0.671   8.671  20.901  0.00  0.00    +0.000 A 
ATOM     20  C   UNL     1      -0.269   9.684  20.685  0.00  0.00    +0.000 A 
ATOM     21  C   UNL     1      -0.236  10.393  19.489  0.00  0.00    +0.000 A 
ATOM     22  C   UNL     1       0.742  10.099  18.532  0.00  0.00    +0.000 A 
ATOM     23  C   UNL     1       1.670   9.054  18.724  0.00  0.00    +0.000 A 
ATOM     24  C   UNL     1       2.563   8.735  17.559  0.00  0.00    +0.000 C 
BRANCH  21  25
ATOM     25  S   UNL     1      -1.415  11.689  19.151  0.00  0.00    +0.000 S 
ATOM     26  O   UNL     1      -2.006  12.067  20.418  0.00  0.00    +0.000 OA
ATOM     27  O   UNL     1      -0.741  12.667  18.319  0.00  0.00    +0.000 OA
BRANCH  25  28
ATOM     28  N   UNL     1      -2.593  10.969  18.197  0.00  0.00    +0.000 NA
ATOM     29  C   UNL     1      -2.263  10.356  16.904  0.00  0.00    +0.000 C 
ATOM     30  C   UNL     1      -3.316  10.890  15.951  0.00  0.00    +0.000 C 
ATOM     31  C   UNL     1      -4.538  11.070  16.834  0.00  0.00    +0.000 C 
ATOM     32  C   UNL     1      -3.969  11.495  18.185  0.00  0.00    +0.000 C 
ENDBRANCH  25  28
ENDBRANCH  21  25
ENDBRANCH  17  18
ENDBRANCH   1  17
TORSDOF 7
ENDMDL
MODEL 5
REMARK VINA RESULT:      -8.4      4.441      7.388
REMARK  Name = 
REMARK  9 active torsions:
REMARK  status: ('A' for Active; 'I' for Inactive)
REMARK    1  A    between atoms: C_1  and  C_2
REMARK    2  A    between atoms: N_4  and  C_5
REMARK    3  A    between atoms: C_8  and  N_9
REMARK    4  A    between atoms: C_10  and  C_12
REMARK    5  A    between atoms: C_12  and  O_13
REMARK    6  A    between atoms: O_13  and  C_14
REMARK    7  A    between atoms: C_17  and  S_18
REMARK    8  A    between atoms: S_18  and  N_21
REMARK    9  A    between atoms: C_27  and  C_28
REMARK                            x       y       z     vdW  Elec       q    Type
REMARK                         _______ _______ _______ _____ _____    ______ ____
ROOT
ATOM      1  C   UNL     1       2.282   3.521  21.237  0.00  0.00    +0.000 C 
ENDROOT
BRANCH   1   3
ATOM      2  N   UNL     1       2.355   5.910  20.688  0.00  0.00    +0.000 N 
ATOM      3  C   UNL     1       1.555   4.778  20.770  0.00  0.00    +0.000 C 
ATOM      4  O   UNL     1       0.355   4.713  20.512  0.00  0.00    +0.000 OA
ATOM      5  H   UNL     1       3.341   5.804  20.894  0.00  0.00    +0.000 HD
BRANCH   2   9
ATOM      6  C   UNL     1       1.092   9.784  19.467  0.00  0.00    +0.000 A 
ATOM      7  C   UNL     1       0.854   9.341  20.764  0.00  0.00    +0.000 A 
ATOM      8  C   UNL     1       1.264   8.070  21.176  0.00  0.00    +0.000 A 
ATOM      9  C   UNL     1       1.924   7.202  20.309  0.00  0.00    +0.000 A 
ATOM     10  C   UNL     1       2.165   7.643  18.999  0.00  0.00    +0.000 A 
ATOM     11  C   UNL     1       1.740   8.918  18.577  0.00  0.00    +0.000 A 
BRANCH   6  15
ATOM     12  C   UNL     1      -0.717  12.839  18.195  0.00  0.00    +0.000 C 
ATOM     13  C   UNL     1      -0.622  11.459  18.786  0.00  0.00    +0.000 C 
ATOM     14  O   UNL     1      -1.641  10.816  19.015  0.00  0.00    +0.000 OA
ATOM     15  N   UNL     1       0.686  11.058  19.015  0.00  0.00    +0.000 N 
ATOM     16  H   UNL     1       1.410  11.758  18.918  0.00  0.00    +0.000 HD
ENDBRANCH   6  15
ENDBRANCH   2   9
ENDBRANCH   1   3
BRANCH   1  17
ATOM     17  O   UNL     1       2.509   2.700  20.102  0.00  0.00    +0.000 OA
BRANCH  17  18
ATOM     18  C   UNL     1       3.226   3.212  19.055  0.00  0.00    +0.000 A 
ATOM     19  C   UNL     1       4.598   3.345  19.344  0.00  0.00    +0.000 A 
ATOM     20  C   UNL     1       5.491   3.913  18.429  0.00  0.00    +0.000 A 
ATOM     21  C   UNL     1       5.008   4.365  17.206  0.00  0.00    +0.000 A 
ATOM     22  C   UNL     1       3.649   4.229  16.901  0.00  0.00    +0.000 A 
ATOM     23  C   UNL     1       2.734   3.694  17.831  0.00  0.00    +0.000 A 
ATOM     24  C   UNL     1       1.283   3.749  17.446  0.00  0.00    +0.000 C 
BRANCH  21  25
ATOM     25  S   UNL     1       6.095   5.108  16.001  0.00  0.00    +0.000 S 
ATOM     26  O   UNL     1       6.636   4.032  15.196  0.00  0.00    +0.000 OA
ATOM     27  O   UNL     1       5.366   6.203  15.392  0.00  0.00    +0.000 OA
BRANCH  25  28
ATOM     28  N   UNL     1       7.339   5.790  16.898  0.00  0.00    +0.000 NA
ATOM     29  C   UNL     1       7.984   5.057  17.994  0.00  0.00    +0.000 C 
ATOM     30  C   UNL     1       8.032   6.052  19.140  0.00  0.00    +0.000 C 
ATOM     31  C   UNL     1       8.176   7.393  18.442  0.00  0.00    +0.000 C 
ATOM     32  C   UNL     1       7.364   7.240  17.158  0.00  0.00    +0.000 C 
ENDBRANCH  25  28
ENDBRANCH  21  25
ENDBRANCH  17  18
ENDBRANCH   1  17
TORSDOF 7
ENDMDL
MODEL 6
REMARK VINA RESULT:      -8.3      6.000      9.181
REMARK  Name = 
REMARK  9 active torsions:
REMARK  status: ('A' for Active; 'I' for Inactive)
REMARK    1  A    between atoms: C_1  and  C_2
REMARK    2  A    between atoms: N_4  and  C_5
REMARK    3  A    between atoms: C_8  and  N_9
REMARK    4  A    between atoms: C_10  and  C_12
REMARK    5  A    between atoms: C_12  and  O_13
REMARK    6  A    between atoms: O_13  and  C_14
REMARK    7  A    between atoms: C_17  and  S_18
REMARK    8  A    between atoms: S_18  and  N_21
REMARK    9  A    between atoms: C_27  and  C_28
REMARK                            x       y       z     vdW  Elec       q    Type
REMARK                         _______ _______ _______ _____ _____    ______ ____
ROOT
ATOM      1  C   UNL     1       1.811   5.931  20.146  0.00  0.00    +0.000 C 
ENDROOT
BRANCH   1   3
ATOM      2  N   UNL     1       3.674   5.572  18.594  0.00  0.00    +0.000 N 
ATOM      3  C   UNL     1       2.322   5.360  18.828  0.00  0.00    +0.000 C 
ATOM      4  O   UNL     1       1.536   4.778  18.084  0.00  0.00    +0.000 OA
ATOM      5  H   UNL     1       4.209   6.034  19.318  0.00  0.00    +0.000 HD
BRANCH   2   9
ATOM      6  C   UNL     1       5.823   4.447  15.100  0.00  0.00    +0.000 A 
ATOM      7  C   UNL     1       5.409   3.484  16.013  0.00  0.00    +0.000 A 
ATOM      8  C   UNL     1       4.703   3.841  17.165  0.00  0.00    +0.000 A 
ATOM      9  C   UNL     1       4.387   5.169  17.440  0.00  0.00    +0.000 A 
ATOM     10  C   UNL     1       4.804   6.146  16.523  0.00  0.00    +0.000 A 
ATOM     11  C   UNL     1       5.529   5.789  15.369  0.00  0.00    +0.000 A 
BRANCH   6  15
ATOM     12  C   UNL     1       7.040   3.287  11.723  0.00  0.00    +0.000 C 
ATOM     13  C   UNL     1       5.998   3.650  12.745  0.00  0.00    +0.000 C 
ATOM     14  O   UNL     1       4.806   3.517  12.485  0.00  0.00    +0.000 OA
ATOM     15  N   UNL     1       6.544   4.122  13.930  0.00  0.00    +0.000 N 
ATOM     16  H   UNL     1       7.536   4.320  13.938  0.00  0.00    +0.000 HD
ENDBRANCH   6  15
ENDBRANCH   2   9
ENDBRANCH   1   3
BRANCH   1  17
ATOM     17  O   UNL     1       2.366   7.226  20.306  0.00  0.00    +0.000 OA
BRANCH  17  18
ATOM     18  C   UNL     1       1.600   8.313  19.982  0.00  0.00    +0.000 A 
ATOM     19  C   UNL     1       0.670   8.646  20.984  0.00  0.00    +0.000 A 
ATOM     20  C   UNL     1      -0.253   9.685  20.816  0.00  0.00    +0.000 A 
ATOM     21  C   UNL     1      -0.255  10.399  19.623  0.00  0.00    +0.000 A 
ATOM     22  C   UNL     1       0.671  10.086  18.622  0.00  0.00    +0.000 A 
ATOM     23  C   UNL     1       1.580   9.017  18.766  0.00  0.00    +0.000 A 
ATOM     24  C   UNL     1       2.411   8.682  17.561  0.00  0.00    +0.000 C 
BRANCH  21  25
ATOM     25  S   UNL     1      -1.414  11.727  19.344  0.00  0.00    +0.000 S 
ATOM     26  O   UNL     1      -2.224  11.843  20.540  0.00  0.00    +0.000 OA
ATOM     27  O   UNL     1      -0.653  12.855  18.845  0.00  0.00    +0.000 OA
BRANCH  25  28
ATOM     28  N   UNL     1      -2.386  11.200  18.082  0.00  0.00    +0.000 NA
ATOM     29  C   UNL     1      -2.869   9.814  18.014  0.00  0.00    +0.000 C 
ATOM     30  C   UNL     1      -2.596   9.386  16.583  0.00  0.00    +0.000 C 
ATOM     31  C   UNL     1      -2.748  10.673  15.791  0.00  0.00    +0.000 C 
ATOM     32  C   UNL     1      -2.223  11.758  16.728  0.00  0.00    +0.000 C 
ENDBRANCH  25  28
ENDBRANCH  21  25
ENDBRANCH  17  18
ENDBRANCH   1  17
TORSDOF 7
ENDMDL
MODEL 7
REMARK VINA RESULT:      -8.2      6.236      7.549
REMARK  Name = 
REMARK  9 active torsions:
REMARK  status: ('A' for Active; 'I' for Inactive)
REMARK    1  A    between atoms: C_1  and  C_2
REMARK    2  A    between atoms: N_4  and  C_5
REMARK    3  A    between atoms: C_8  and  N_9
REMARK    4  A    between atoms: C_10  and  C_12
REMARK    5  A    between atoms: C_12  and  O_13
REMARK    6  A    between atoms: O_13  and  C_14
REMARK    7  A    between atoms: C_17  and  S_18
REMARK    8  A    between atoms: S_18  and  N_21
REMARK    9  A    between atoms: C_27  and  C_28
REMARK                            x       y       z     vdW  Elec       q    Type
REMARK                         _______ _______ _______ _____ _____    ______ ____
ROOT
ATOM      1  C   UNL     1       1.520   8.456  21.382  0.00  0.00    +0.000 C 
ENDROOT
BRANCH   1   3
ATOM      2  N   UNL     1       1.306  10.743  20.526  0.00  0.00    +0.000 N 
ATOM      3  C   UNL     1       0.623   9.606  20.937  0.00  0.00    +0.000 C 
ATOM      4  O   UNL     1      -0.597   9.462  20.975  0.00  0.00    +0.000 OA
ATOM      5  H   UNL     1       2.317  10.704  20.510  0.00  0.00    +0.000 HD
BRANCH   2   9
ATOM      6  C   UNL     1      -0.464  14.414  19.306  0.00  0.00    +0.000 A 
ATOM      7  C   UNL     1      -0.325  13.364  18.404  0.00  0.00    +0.000 A 
ATOM      8  C   UNL     1       0.255  12.154  18.794  0.00  0.00    +0.000 A 
ATOM      9  C   UNL     1       0.714  11.953  20.093  0.00  0.00    +0.000 A 
ATOM     10  C   UNL     1       0.578  13.008  21.007  0.00  0.00    +0.000 A 
ATOM     11  C   UNL     1       0.007  14.234  20.613  0.00  0.00    +0.000 A 
BRANCH   6  15
ATOM     12  C   UNL     1      -1.232  17.967  18.299  0.00  0.00    +0.000 C 
ATOM     13  C   UNL     1      -0.348  16.764  18.486  0.00  0.00    +0.000 C 
ATOM     14  O   UNL     1       0.850  16.835  18.234  0.00  0.00    +0.000 OA
ATOM     15  N   UNL     1      -1.039  15.652  18.946  0.00  0.00    +0.000 N 
ATOM     16  H   UNL     1      -2.048  15.705  18.959  0.00  0.00    +0.000 HD
ENDBRANCH   6  15
ENDBRANCH   2   9
ENDBRANCH   1   3
BRANCH   1  17
ATOM     17  O   UNL     1       1.235   7.336  20.558  0.00  0.00    +0.000 OA
BRANCH  17  18
ATOM     18  C   UNL     1       2.206   6.885  19.706  0.00  0.00    +0.000 A 
ATOM     19  C   UNL     1       2.465   7.778  18.649  0.00  0.00    +0.000 A 
ATOM     20  C   UNL     1       3.376   7.471  17.632  0.00  0.00    +0.000 A 
ATOM     21  C   UNL     1       4.035   6.246  17.663  0.00  0.00    +0.000 A 
ATOM     22  C   UNL     1       3.795   5.353  18.713  0.00  0.00    +0.000 A 
ATOM     23  C   UNL     1       2.851   5.637  19.722  0.00  0.00    +0.000 A 
ATOM     24  C   UNL     1       2.570   4.533  20.701  0.00  0.00    +0.000 C 
BRANCH  21  25
ATOM     25  S   UNL     1       5.199   5.791  16.390  0.00  0.00    +0.000 S 
ATOM     26  O   UNL     1       5.017   4.377  16.132  0.00  0.00    +0.000 OA
ATOM     27  O   UNL     1       5.066   6.767  15.326  0.00  0.00    +0.000 OA
BRANCH  25  28
ATOM     28  N   UNL     1       6.712   6.025  17.078  0.00  0.00    +0.000 NA
ATOM     29  C   UNL     1       7.335   5.001  17.926  0.00  0.00    +0.000 C 
ATOM     30  C   UNL     1       7.832   5.764  19.140  0.00  0.00    +0.000 C 
ATOM     31  C   UNL     1       8.184   7.131  18.582  0.00  0.00    +0.000 C 
ATOM     32  C   UNL     1       7.146   7.372  17.488  0.00  0.00    +0.000 C 
ENDBRANCH  25  28
ENDBRANCH  21  25
ENDBRANCH  17  18
ENDBRANCH   1  17
TORSDOF 7
ENDMDL
MODEL 8
REMARK VINA RESULT:      -8.2      7.439      8.728
REMARK  Name = 
REMARK  9 active torsions:
REMARK  status: ('A' for Active; 'I' for Inactive)
REMARK    1  A    between atoms: C_1  and  C_2
REMARK    2  A    between atoms: N_4  and  C_5
REMARK    3  A    between atoms: C_8  and  N_9
REMARK    4  A    between atoms: C_10  and  C_12
REMARK    5  A    between atoms: C_12  and  O_13
REMARK    6  A    between atoms: O_13  and  C_14
REMARK    7  A    between atoms: C_17  and  S_18
REMARK    8  A    between atoms: S_18  and  N_21
REMARK    9  A    between atoms: C_27  and  C_28
REMARK                            x       y       z     vdW  Elec       q    Type
REMARK                         _______ _______ _______ _____ _____    ______ ____
ROOT
ATOM      1  C   UNL     1       0.441   8.451  21.844  0.00  0.00    +0.000 C 
ENDROOT
BRANCH   1   3
ATOM      2  N   UNL     1      -0.696  10.621  21.928  0.00  0.00    +0.000 N 
ATOM      3  C   UNL     1       0.018   9.675  22.650  0.00  0.00    +0.000 C 
ATOM      4  O   UNL     1       0.330   9.746  23.837  0.00  0.00    +0.000 OA
ATOM      5  H   UNL     1      -0.915  10.408  20.962  0.00  0.00    +0.000 HD
BRANCH   2   9
ATOM      6  C   UNL     1      -2.078  14.364  23.403  0.00  0.00    +0.000 A 
ATOM      7  C   UNL     1      -2.828  13.209  23.597  0.00  0.00    +0.000 A 
ATOM      8  C   UNL     1      -2.385  11.974  23.117  0.00  0.00    +0.000 A 
ATOM      9  C   UNL     1      -1.180  11.852  22.429  0.00  0.00    +0.000 A 
ATOM     10  C   UNL     1      -0.420  13.014  22.228  0.00  0.00    +0.000 A 
ATOM     11  C   UNL     1      -0.872  14.262  22.699  0.00  0.00    +0.000 A 
BRANCH   6  15
ATOM     12  C   UNL     1      -3.003  17.446  25.370  0.00  0.00    +0.000 C 
ATOM     13  C   UNL     1      -2.347  16.109  25.161  0.00  0.00    +0.000 C 
ATOM     14  O   UNL     1      -1.754  15.562  26.085  0.00  0.00    +0.000 OA
ATOM     15  N   UNL     1      -2.499  15.629  23.868  0.00  0.00    +0.000 N 
ATOM     16  H   UNL     1      -2.879  16.263  23.179  0.00  0.00    +0.000 HD
ENDBRANCH   6  15
ENDBRANCH   2   9
ENDBRANCH   1   3
BRANCH   1  17
ATOM     17  O   UNL     1       0.803   8.888  20.544  0.00  0.00    +0.000 OA
BRANCH  17  18
ATOM     18  C   UNL     1       1.614   8.088  19.785  0.00  0.00    +0.000 A 
ATOM     19  C   UNL     1       1.992   6.905  20.449  0.00  0.00    +0.000 A 
ATOM     20  C   UNL     1       2.874   5.986  19.869  0.00  0.00    +0.000 A 
ATOM     21  C   UNL     1       3.397   6.255  18.609  0.00  0.00    +0.000 A 
ATOM     22  C   UNL     1       3.022   7.422  17.933  0.00  0.00    +0.000 A 
ATOM     23  C   UNL     1       2.163   8.372  18.524  0.00  0.00    +0.000 A 
ATOM     24  C   UNL     1       1.965   9.653  17.765  0.00  0.00    +0.000 C 
BRANCH  21  25
ATOM     25  S   UNL     1       4.535   5.128  17.822  0.00  0.00    +0.000 S 
ATOM     26  O   UNL     1       4.706   5.581  16.457  0.00  0.00    +0.000 OA
ATOM     27  O   UNL     1       5.672   4.986  18.710  0.00  0.00    +0.000 OA
BRANCH  25  28
ATOM     28  N   UNL     1       3.743   3.648  17.806  0.00  0.00    +0.000 NA
ATOM     29  C   UNL     1       2.384   3.512  17.267  0.00  0.00    +0.000 C 
ATOM     30  C   UNL     1       1.638   2.707  18.315  0.00  0.00    +0.000 C 
ATOM     31  C   UNL     1       2.712   1.809  18.904  0.00  0.00    +0.000 C 
ATOM     32  C   UNL     1       3.976   2.664  18.877  0.00  0.00    +0.000 C 
ENDBRANCH  25  28
ENDBRANCH  21  25
ENDBRANCH  17  18
ENDBRANCH   1  17
TORSDOF 7
ENDMDL
MODEL 9
REMARK VINA RESULT:      -8.1      7.761      9.160
REMARK  Name = 
REMARK  9 active torsions:
REMARK  status: ('A' for Active; 'I' for Inactive)
REMARK    1  A    between atoms: C_1  and  C_2
REMARK    2  A    between atoms: N_4  and  C_5
REMARK    3  A    between atoms: C_8  and  N_9
REMARK    4  A    between atoms: C_10  and  C_12
REMARK    5  A    between atoms: C_12  and  O_13
REMARK    6  A    between atoms: O_13  and  C_14
REMARK    7  A    between atoms: C_17  and  S_18
REMARK    8  A    between atoms: S_18  and  N_21
REMARK    9  A    between atoms: C_27  and  C_28
REMARK                            x       y       z     vdW  Elec       q    Type
REMARK                         _______ _______ _______ _____ _____    ______ ____
ROOT
ATOM      1  C   UNL     1       0.140   8.563  21.812  0.00  0.00    +0.000 C 
ENDROOT
BRANCH   1   3
ATOM      2  N   UNL     1      -1.029  10.695  22.120  0.00  0.00    +0.000 N 
ATOM      3  C   UNL     1      -0.215   9.741  22.713  0.00  0.00    +0.000 C 
ATOM      4  O   UNL     1       0.231   9.772  23.858  0.00  0.00    +0.000 OA
ATOM      5  H   UNL     1      -1.354  10.516  21.177  0.00  0.00    +0.000 HD
BRANCH   2   9
ATOM      6  C   UNL     1      -2.459  14.250  23.966  0.00  0.00    +0.000 A 
ATOM      7  C   UNL     1      -1.218  14.232  23.339  0.00  0.00    +0.000 A 
ATOM      8  C   UNL     1      -0.738  13.070  22.729  0.00  0.00    +0.000 A 
ATOM      9  C   UNL     1      -1.480  11.891  22.726  0.00  0.00    +0.000 A 
ATOM     10  C   UNL     1      -2.732  11.903  23.358  0.00  0.00    +0.000 A 
ATOM     11  C   UNL     1      -3.212  13.069  23.986  0.00  0.00    +0.000 A 
BRANCH   6  15
ATOM     12  C   UNL     1      -4.409  17.277  25.091  0.00  0.00    +0.000 C 
ATOM     13  C   UNL     1      -4.203  15.991  24.337  0.00  0.00    +0.000 C 
ATOM     14  O   UNL     1      -5.078  15.568  23.590  0.00  0.00    +0.000 OA
ATOM     15  N   UNL     1      -2.973  15.404  24.597  0.00  0.00    +0.000 N 
ATOM     16  H   UNL     1      -2.424  15.792  25.353  0.00  0.00    +0.000 HD
ENDBRANCH   6  15
ENDBRANCH   2   9
ENDBRANCH   1   3
BRANCH   1  17
ATOM     17  O   UNL     1       0.675   9.082  20.605  0.00  0.00    +0.000 OA
BRANCH  17  18
ATOM     18  C   UNL     1       1.481   8.278  19.845  0.00  0.00    +0.000 A 
ATOM     19  C   UNL     1       1.839   7.084  20.502  0.00  0.00    +0.000 A 
ATOM     20  C   UNL     1       2.714   6.159  19.921  0.00  0.00    +0.000 A 
ATOM     21  C   UNL     1       3.249   6.431  18.667  0.00  0.00    +0.000 A 
ATOM     22  C   UNL     1       2.894   7.608  17.998  0.00  0.00    +0.000 A 
ATOM     23  C   UNL     1       2.044   8.565  18.591  0.00  0.00    +0.000 A 
ATOM     24  C   UNL     1       1.867   9.854  17.841  0.00  0.00    +0.000 C 
BRANCH  21  25
ATOM     25  S   UNL     1       4.378   5.296  17.879  0.00  0.00    +0.000 S 
ATOM     26  O   UNL     1       4.575   5.765  16.522  0.00  0.00    +0.000 OA
ATOM     27  O   UNL     1       5.500   5.122  18.779  0.00  0.00    +0.000 OA
BRANCH  25  28
ATOM     28  N   UNL     1       3.561   3.830  17.831  0.00  0.00    +0.000 NA
ATOM     29  C   UNL     1       2.160   3.748  17.399  0.00  0.00    +0.000 C 
ATOM     30  C   UNL     1       1.488   2.883  18.450  0.00  0.00    +0.000 C 
ATOM     31  C   UNL     1       2.590   1.935  18.888  0.00  0.00    +0.000 C 
ATOM     32  C   UNL     1       3.864   2.774  18.812  0.00  0.00    +0.000 C 
ENDBRANCH  25  28
ENDBRANCH  21  25
ENDBRANCH  17  18
ENDBRANCH   1  17
TORSDOF 7
ENDMDL
