MODEL 1
REMARK VINA RESULT:      -8.7      0.000      0.000
REMARK  Name = 
REMARK  10 active torsions:
REMARK  status: ('A' for Active; 'I' for Inactive)
REMARK    1  A    between atoms: C_1  and  C_2
REMARK    2  A    between atoms: C_5  and  C_6
REMARK    3  A    between atoms: C_6  and  C_7
REMARK    4  A    between atoms: C_6  and  N_12
REMARK    5  A    between atoms: C_7  and  C_8
REMARK    6  A    between atoms: C_8  and  N_9
REMARK    7  A    between atoms: N_9  and  C_10
REMARK    8  A    between atoms: N_9  and  C_11
REMARK    9  A    between atoms: C_13  and  C_15
REMARK   10  A    between atoms: C_19  and  C_20
REMARK                            x       y       z     vdW  Elec       q    Type
REMARK                         _______ _______ _______ _____ _____    ______ ____
ROOT
ATOM      1  N   UNL     1       3.587   5.890  19.839  0.00  0.00    +0.000 N 
ATOM      2  C   UNL     1       3.702   5.482  18.526  0.00  0.00    +0.000 C 
ATOM      3  O   UNL     1       2.729   5.278  17.803  0.00  0.00    +0.000 OA
ATOM      4  H   UNL     1       4.400   5.990  20.432  0.00  0.00    +0.000 HD
ENDROOT
BRANCH   2   5
ATOM      5  C   UNL     1       5.089   5.276  17.978  0.00  0.00    +0.000 A 
ATOM      6  C   UNL     1       6.219   5.186  18.791  0.00  0.00    +0.000 A 
ATOM      7  C   UNL     1       7.473   4.949  18.226  0.00  0.00    +0.000 A 
ATOM      8  C   UNL     1       7.608   4.775  16.844  0.00  0.00    +0.000 A 
ATOM      9  C   UNL     1       6.501   4.862  15.983  0.00  0.00    +0.000 A 
ATOM     10  C   UNL     1       5.252   5.152  16.582  0.00  0.00    +0.000 A 
BRANCH   9  11
ATOM     11  C   UNL     1       6.628   4.600  14.517  0.00  0.00    +0.000 A 
ATOM     12  C   UNL     1       5.794   3.670  13.873  0.00  0.00    +0.000 A 
ATOM     13  C   UNL     1       5.905   3.387  12.508  0.00  0.00    +0.000 A 
ATOM     14  C   UNL     1       6.871   4.025  11.741  0.00  0.00    +0.000 A 
ATOM     15  C   UNL     1       7.725   4.943  12.344  0.00  0.00    +0.000 A 
ATOM     16  C   UNL     1       7.600   5.232  13.714  0.00  0.00    +0.000 A 
ENDBRANCH   9  11
ENDBRANCH   2   5
BRANCH   1  17
ATOM     17  C   UNL     1       2.315   6.107  20.522  0.00  0.00    +0.000 C 
BRANCH  17  22
ATOM     18  C   UNL     1      -0.315  11.217  19.453  0.00  0.00    +0.000 C 
ATOM     19  C   UNL     1       0.395   9.928  19.745  0.00  0.00    +0.000 A 
ATOM     20  C   UNL     1       0.197   9.258  20.956  0.00  0.00    +0.000 A 
ATOM     21  C   UNL     1       0.855   8.050  21.210  0.00  0.00    +0.000 A 
ATOM     22  C   UNL     1       1.725   7.486  20.260  0.00  0.00    +0.000 A 
ATOM     23  C   UNL     1       1.940   8.184  19.063  0.00  0.00    +0.000 A 
ATOM     24  C   UNL     1       1.286   9.392  18.811  0.00  0.00    +0.000 A 
ENDBRANCH  17  22
BRANCH  17  25
ATOM     25  C   UNL     1       1.280   5.005  20.190  0.00  0.00    +0.000 C 
BRANCH  25  26
ATOM     26  C   UNL     1       1.385   3.679  20.973  0.00  0.00    +0.000 C 
BRANCH  26  27
ATOM     27  N   UNL     1       1.587   2.466  20.152  0.00  0.00    +0.000 NA
ATOM     28  C   UNL     1       0.850   2.555  18.884  0.00  0.00    +0.000 C 
ATOM     29  C   UNL     1       3.016   2.302  19.854  0.00  0.00    +0.000 C 
ENDBRANCH  26  27
ENDBRANCH  25  26
ENDBRANCH  17  25
ENDBRANCH   1  17
TORSDOF 7
ENDMDL
MODEL 2
REMARK VINA RESULT:      -8.6      3.500      6.528
REMARK  Name = 
REMARK  10 active torsions:
REMARK  status: ('A' for Active; 'I' for Inactive)
REMARK    1  A    between atoms: C_1  and  C_2
REMARK    2  A    between atoms: C_5  and  C_6
REMARK    3  A    between atoms: C_6  and  C_7
REMARK    4  A    between atoms: C_6  and  N_12
REMARK    5  A    between atoms: C_7  and  C_8
REMARK    6  A    between atoms: C_8  and  N_9
REMARK    7  A    between atoms: N_9  and  C_10
REMARK    8  A    between atoms: N_9  and  C_11
REMARK    9  A    between atoms: C_13  and  C_15
REMARK   10  A    between atoms: C_19  and  C_20
REMARK                            x       y       z     vdW  Elec       q    Type
REMARK                         _______ _______ _______ _____ _____    ______ ____
ROOT
ATOM      1  N   UNL     1       1.103   9.696  18.824  0.00  0.00    +0.000 N 
ATOM      2  C   UNL     1       2.191   9.556  17.987  0.00  0.00    +0.000 C 
ATOM      3  O   UNL     1       2.684  10.498  17.370  0.00  0.00    +0.000 OA
ATOM      4  H   UNL     1       0.676   8.896  19.271  0.00  0.00    +0.000 HD
ENDROOT
BRANCH   2   5
ATOM      5  C   UNL     1       2.779   8.179  17.832  0.00  0.00    +0.000 A 
ATOM      6  C   UNL     1       3.868   7.909  17.002  0.00  0.00    +0.000 A 
ATOM      7  C   UNL     1       4.397   6.620  16.935  0.00  0.00    +0.000 A 
ATOM      8  C   UNL     1       3.860   5.590  17.716  0.00  0.00    +0.000 A 
ATOM      9  C   UNL     1       2.761   5.811  18.564  0.00  0.00    +0.000 A 
ATOM     10  C   UNL     1       2.216   7.117  18.571  0.00  0.00    +0.000 A 
BRANCH   9  11
ATOM     11  C   UNL     1       2.233   4.735  19.456  0.00  0.00    +0.000 A 
ATOM     12  C   UNL     1       1.295   3.799  18.985  0.00  0.00    +0.000 A 
ATOM     13  C   UNL     1       0.766   2.796  19.803  0.00  0.00    +0.000 A 
ATOM     14  C   UNL     1       1.155   2.704  21.133  0.00  0.00    +0.000 A 
ATOM     15  C   UNL     1       2.071   3.620  21.641  0.00  0.00    +0.000 A 
ATOM     16  C   UNL     1       2.609   4.618  20.811  0.00  0.00    +0.000 A 
ENDBRANCH   9  11
ENDBRANCH   2   5
BRANCH   1  17
ATOM     17  C   UNL     1       0.406  10.958  19.058  0.00  0.00    +0.000 C 
BRANCH  17  22
ATOM     18  C   UNL     1      -5.120  10.976  17.151  0.00  0.00    +0.000 C 
ATOM     19  C   UNL     1      -3.713  10.941  17.671  0.00  0.00    +0.000 A 
ATOM     20  C   UNL     1      -2.773  10.052  17.141  0.00  0.00    +0.000 A 
ATOM     21  C   UNL     1      -1.461  10.040  17.626  0.00  0.00    +0.000 A 
ATOM     22  C   UNL     1      -1.061  10.913  18.653  0.00  0.00    +0.000 A 
ATOM     23  C   UNL     1      -2.022  11.776  19.199  0.00  0.00    +0.000 A 
ATOM     24  C   UNL     1      -3.333  11.787  18.717  0.00  0.00    +0.000 A 
ENDBRANCH  17  22
BRANCH  17  25
ATOM     25  C   UNL     1       0.548  11.438  20.523  0.00  0.00    +0.000 C 
BRANCH  25  26
ATOM     26  C   UNL     1       0.768  10.358  21.601  0.00  0.00    +0.000 C 
BRANCH  26  27
ATOM     27  N   UNL     1       0.107  10.607  22.900  0.00  0.00    +0.000 NA
ATOM     28  C   UNL     1      -1.099  11.429  22.733  0.00  0.00    +0.000 C 
ATOM     29  C   UNL     1      -0.277   9.328  23.513  0.00  0.00    +0.000 C 
ENDBRANCH  26  27
ENDBRANCH  25  26
ENDBRANCH  17  25
ENDBRANCH   1  17
TORSDOF 7
ENDMDL
MODEL 3
REMARK VINA RESULT:      -8.5      3.477      6.502
REMARK  Name = 
REMARK  10 active torsions:
REMARK  status: ('A' for Active; 'I' for Inactive)
REMARK    1  A    between atoms: C_1  and  C_2
REMARK    2  A    between atoms: C_5  and  C_6
REMARK    3  A    between atoms: C_6  and  C_7
REMARK    4  A    between atoms: C_6  and  N_12
REMARK    5  A    between atoms: C_7  and  C_8
REMARK    6  A    between atoms: C_8  and  N_9
REMARK    7  A    between atoms: N_9  and  C_10
REMARK    8  A    between atoms: N_9  and  C_11
REMARK    9  A    between atoms: C_13  and  C_15
REMARK   10  A    between atoms: C_19  and  C_20
REMARK                            x       y       z     vdW  Elec       q    Type
REMARK                         _______ _______ _______ _____ _____    ______ ____
ROOT
ATOM      1  N   UNL     1       1.136   9.675  18.832  0.00  0.00    +0.000 N 
ATOM      2  C   UNL     1       2.222   9.531  17.992  0.00  0.00    +0.000 C 
ATOM      3  O   UNL     1       2.722  10.473  17.381  0.00  0.00    +0.000 OA
ATOM      4  H   UNL     1       0.704   8.875  19.274  0.00  0.00    +0.000 HD
ENDROOT
BRANCH   2   5
ATOM      5  C   UNL     1       2.799   8.151  17.826  0.00  0.00    +0.000 A 
ATOM      6  C   UNL     1       3.895   7.881  17.005  0.00  0.00    +0.000 A 
ATOM      7  C   UNL     1       4.412   6.587  16.928  0.00  0.00    +0.000 A 
ATOM      8  C   UNL     1       3.855   5.553  17.689  0.00  0.00    +0.000 A 
ATOM      9  C   UNL     1       2.748   5.773  18.526  0.00  0.00    +0.000 A 
ATOM     10  C   UNL     1       2.216   7.085  18.544  0.00  0.00    +0.000 A 
BRANCH   9  11
ATOM     11  C   UNL     1       2.198   4.691  19.397  0.00  0.00    +0.000 A 
ATOM     12  C   UNL     1       2.546   4.610  20.757  0.00  0.00    +0.000 A 
ATOM     13  C   UNL     1       2.067   3.595  21.592  0.00  0.00    +0.000 A 
ATOM     14  C   UNL     1       1.226   2.614  21.082  0.00  0.00    +0.000 A 
ATOM     15  C   UNL     1       0.869   2.651  19.737  0.00  0.00    +0.000 A 
ATOM     16  C   UNL     1       1.344   3.681  18.907  0.00  0.00    +0.000 A 
ENDBRANCH   9  11
ENDBRANCH   2   5
BRANCH   1  17
ATOM     17  C   UNL     1       0.451  10.940  19.076  0.00  0.00    +0.000 C 
BRANCH  17  22
ATOM     18  C   UNL     1      -5.163  10.823  17.453  0.00  0.00    +0.000 C 
ATOM     19  C   UNL     1      -3.714  10.881  17.835  0.00  0.00    +0.000 A 
ATOM     20  C   UNL     1      -3.250  11.833  18.747  0.00  0.00    +0.000 A 
ATOM     21  C   UNL     1      -1.899  11.867  19.106  0.00  0.00    +0.000 A 
ATOM     22  C   UNL     1      -0.981  10.953  18.559  0.00  0.00    +0.000 A 
ATOM     23  C   UNL     1      -1.453  10.024  17.621  0.00  0.00    +0.000 A 
ATOM     24  C   UNL     1      -2.802   9.991  17.260  0.00  0.00    +0.000 A 
ENDBRANCH  17  22
BRANCH  17  25
ATOM     25  C   UNL     1       0.489  11.344  20.570  0.00  0.00    +0.000 C 
BRANCH  25  26
ATOM     26  C   UNL     1       0.330  10.215  21.610  0.00  0.00    +0.000 C 
BRANCH  26  27
ATOM     27  N   UNL     1      -0.056  10.649  22.970  0.00  0.00    +0.000 NA
ATOM     28  C   UNL     1      -1.415  11.207  22.983  0.00  0.00    +0.000 C 
ATOM     29  C   UNL     1      -0.009   9.503  23.888  0.00  0.00    +0.000 C 
ENDBRANCH  26  27
ENDBRANCH  25  26
ENDBRANCH  17  25
ENDBRANCH   1  17
TORSDOF 7
ENDMDL
MODEL 4
REMARK VINA RESULT:      -8.4      0.523      1.171
REMARK  Name = 
REMARK  10 active torsions:
REMARK  status: ('A' for Active; 'I' for Inactive)
REMARK    1  A    between atoms: C_1  and  C_2
REMARK    2  A    between atoms: C_5  and  C_6
REMARK    3  A    between atoms: C_6  and  C_7
REMARK    4  A    between atoms: C_6  and  N_12
REMARK    5  A    between atoms: C_7  and  C_8
REMARK    6  A    between atoms: C_8  and  N_9
REMARK    7  A    between atoms: N_9  and  C_10
REMARK    8  A    between atoms: N_9  and  C_11
REMARK    9  A    between atoms: C_13  and  C_15
REMARK   10  A    between atoms: C_19  and  C_20
REMARK                            x       y       z     vdW  Elec       q    Type
REMARK                         _______ _______ _______ _____ _____    ______ ____
ROOT
ATOM      1  N   UNL     1       3.444   5.979  19.817  0.00  0.00    +0.000 N 
ATOM      2  C   UNL     1       3.599   5.648  18.487  0.00  0.00    +0.000 C 
ATOM      3  O   UNL     1       2.654   5.559  17.706  0.00  0.00    +0.000 OA
ATOM      4  H   UNL     1       4.229   5.985  20.454  0.00  0.00    +0.000 HD
ENDROOT
BRANCH   2   5
ATOM      5  C   UNL     1       4.996   5.380  17.993  0.00  0.00    +0.000 A 
ATOM      6  C   UNL     1       6.092   5.262  18.849  0.00  0.00    +0.000 A 
ATOM      7  C   UNL     1       7.356   4.968  18.334  0.00  0.00    +0.000 A 
ATOM      8  C   UNL     1       7.533   4.765  16.960  0.00  0.00    +0.000 A 
ATOM      9  C   UNL     1       6.462   4.878  16.058  0.00  0.00    +0.000 A 
ATOM     10  C   UNL     1       5.204   5.226  16.606  0.00  0.00    +0.000 A 
BRANCH   9  11
ATOM     11  C   UNL     1       6.631   4.586  14.603  0.00  0.00    +0.000 A 
ATOM     12  C   UNL     1       7.571   5.289  13.828  0.00  0.00    +0.000 A 
ATOM     13  C   UNL     1       7.736   5.056  12.459  0.00  0.00    +0.000 A 
ATOM     14  C   UNL     1       6.949   4.109  11.815  0.00  0.00    +0.000 A 
ATOM     15  C   UNL     1       5.998   3.401  12.544  0.00  0.00    +0.000 A 
ATOM     16  C   UNL     1       5.847   3.632  13.922  0.00  0.00    +0.000 A 
ENDBRANCH   9  11
ENDBRANCH   2   5
BRANCH   1  17
ATOM     17  C   UNL     1       2.155   6.242  20.451  0.00  0.00    +0.000 C 
BRANCH  17  22
ATOM     18  C   UNL     1       0.037  11.664  19.912  0.00  0.00    +0.000 C 
ATOM     19  C   UNL     1       0.620  10.290  20.062  0.00  0.00    +0.000 A 
ATOM     20  C   UNL     1       0.547   9.608  21.280  0.00  0.00    +0.000 A 
ATOM     21  C   UNL     1       1.082   8.321  21.403  0.00  0.00    +0.000 A 
ATOM     22  C   UNL     1       1.705   7.690  20.311  0.00  0.00    +0.000 A 
ATOM     23  C   UNL     1       1.802   8.397  19.105  0.00  0.00    +0.000 A 
ATOM     24  C   UNL     1       1.270   9.683  18.983  0.00  0.00    +0.000 A 
ENDBRANCH  17  22
BRANCH  17  25
ATOM     25  C   UNL     1       1.051   5.282  19.945  0.00  0.00    +0.000 C 
BRANCH  25  26
ATOM     26  C   UNL     1       1.046   3.849  20.518  0.00  0.00    +0.000 C 
BRANCH  26  27
ATOM     27  N   UNL     1       2.279   3.065  20.290  0.00  0.00    +0.000 NA
ATOM     28  C   UNL     1       2.760   2.456  21.537  0.00  0.00    +0.000 C 
ATOM     29  C   UNL     1       2.013   1.997  19.317  0.00  0.00    +0.000 C 
ENDBRANCH  26  27
ENDBRANCH  25  26
ENDBRANCH  17  25
ENDBRANCH   1  17
TORSDOF 7
ENDMDL
MODEL 5
REMARK VINA RESULT:      -8.3      3.021      5.860
REMARK  Name = 
REMARK  10 active torsions:
REMARK  status: ('A' for Active; 'I' for Inactive)
REMARK    1  A    between atoms: C_1  and  C_2
REMARK    2  A    between atoms: C_5  and  C_6
REMARK    3  A    between atoms: C_6  and  C_7
REMARK    4  A    between atoms: C_6  and  N_12
REMARK    5  A    between atoms: C_7  and  C_8
REMARK    6  A    between atoms: C_8  and  N_9
REMARK    7  A    between atoms: N_9  and  C_10
REMARK    8  A    between atoms: N_9  and  C_11
REMARK    9  A    between atoms: C_13  and  C_15
REMARK   10  A    between atoms: C_19  and  C_20
REMARK                            x       y       z     vdW  Elec       q    Type
REMARK                         _______ _______ _______ _____ _____    ______ ____
ROOT
ATOM      1  N   UNL     1       0.415  10.084  19.024  0.00  0.00    +0.000 N 
ATOM      2  C   UNL     1       1.593   9.667  18.439  0.00  0.00    +0.000 C 
ATOM      3  O   UNL     1       2.224  10.358  17.642  0.00  0.00    +0.000 OA
ATOM      4  H   UNL     1      -0.118   9.472  19.628  0.00  0.00    +0.000 HD
ENDROOT
BRANCH   2   5
ATOM      5  C   UNL     1       2.107   8.299  18.802  0.00  0.00    +0.000 A 
ATOM      6  C   UNL     1       1.746   7.642  19.980  0.00  0.00    +0.000 A 
ATOM      7  C   UNL     1       2.220   6.355  20.239  0.00  0.00    +0.000 A 
ATOM      8  C   UNL     1       3.040   5.700  19.312  0.00  0.00    +0.000 A 
ATOM      9  C   UNL     1       3.435   6.321  18.115  0.00  0.00    +0.000 A 
ATOM     10  C   UNL     1       2.978   7.645  17.906  0.00  0.00    +0.000 A 
BRANCH   9  11
ATOM     11  C   UNL     1       4.246   5.598  17.090  0.00  0.00    +0.000 A 
ATOM     12  C   UNL     1       4.243   4.194  17.023  0.00  0.00    +0.000 A 
ATOM     13  C   UNL     1       5.010   3.489  16.090  0.00  0.00    +0.000 A 
ATOM     14  C   UNL     1       5.819   4.175  15.193  0.00  0.00    +0.000 A 
ATOM     15  C   UNL     1       5.860   5.566  15.236  0.00  0.00    +0.000 A 
ATOM     16  C   UNL     1       5.077   6.268  16.167  0.00  0.00    +0.000 A 
ENDBRANCH   9  11
ENDBRANCH   2   5
BRANCH   1  17
ATOM     17  C   UNL     1      -0.224  11.369  18.756  0.00  0.00    +0.000 C 
BRANCH  17  22
ATOM     18  C   UNL     1      -5.998  10.750  18.088  0.00  0.00    +0.000 C 
ATOM     19  C   UNL     1      -4.515  10.936  18.224  0.00  0.00    +0.000 A 
ATOM     20  C   UNL     1      -3.989  11.967  19.007  0.00  0.00    +0.000 A 
ATOM     21  C   UNL     1      -2.605  12.120  19.136  0.00  0.00    +0.000 A 
ATOM     22  C   UNL     1      -1.716  11.248  18.482  0.00  0.00    +0.000 A 
ATOM     23  C   UNL     1      -2.256  10.238  17.673  0.00  0.00    +0.000 A 
ATOM     24  C   UNL     1      -3.638  10.087  17.542  0.00  0.00    +0.000 A 
ENDBRANCH  17  22
BRANCH  17  25
ATOM     25  C   UNL     1       0.038  12.395  19.885  0.00  0.00    +0.000 C 
BRANCH  25  26
ATOM     26  C   UNL     1       0.321  11.837  21.295  0.00  0.00    +0.000 C 
BRANCH  26  27
ATOM     27  N   UNL     1      -0.873  11.511  22.104  0.00  0.00    +0.000 NA
ATOM     28  C   UNL     1      -0.627  10.350  22.970  0.00  0.00    +0.000 C 
ATOM     29  C   UNL     1      -1.227  12.661  22.949  0.00  0.00    +0.000 C 
ENDBRANCH  26  27
ENDBRANCH  25  26
ENDBRANCH  17  25
ENDBRANCH   1  17
TORSDOF 7
ENDMDL
MODEL 6
REMARK VINA RESULT:      -8.3      3.595      6.890
REMARK  Name = 
REMARK  10 active torsions:
REMARK  status: ('A' for Active; 'I' for Inactive)
REMARK    1  A    between atoms: C_1  and  C_2
REMARK    2  A    between atoms: C_5  and  C_6
REMARK    3  A    between atoms: C_6  and  C_7
REMARK    4  A    between atoms: C_6  and  N_12
REMARK    5  A    between atoms: C_7  and  C_8
REMARK    6  A    between atoms: C_8  and  N_9
REMARK    7  A    between atoms: N_9  and  C_10
REMARK    8  A    between atoms: N_9  and  C_11
REMARK    9  A    between atoms: C_13  and  C_15
REMARK   10  A    between atoms: C_19  and  C_20
REMARK                            x       y       z     vdW  Elec       q    Type
REMARK                         _______ _______ _______ _____ _____    ______ ____
ROOT
ATOM      1  N   UNL     1       1.134   9.773  19.169  0.00  0.00    +0.000 N 
ATOM      2  C   UNL     1       2.069   9.623  18.165  0.00  0.00    +0.000 C 
ATOM      3  O   UNL     1       2.413  10.546  17.431  0.00  0.00    +0.000 OA
ATOM      4  H   UNL     1       0.821   8.984  19.719  0.00  0.00    +0.000 HD
ENDROOT
BRANCH   2   5
ATOM      5  C   UNL     1       2.675   8.258  17.974  0.00  0.00    +0.000 A 
ATOM      6  C   UNL     1       3.775   8.027  17.148  0.00  0.00    +0.000 A 
ATOM      7  C   UNL     1       4.320   6.746  17.047  0.00  0.00    +0.000 A 
ATOM      8  C   UNL     1       3.786   5.687  17.790  0.00  0.00    +0.000 A 
ATOM      9  C   UNL     1       2.675   5.868  18.631  0.00  0.00    +0.000 A 
ATOM     10  C   UNL     1       2.116   7.167  18.673  0.00  0.00    +0.000 A 
BRANCH   9  11
ATOM     11  C   UNL     1       2.150   4.758  19.483  0.00  0.00    +0.000 A 
ATOM     12  C   UNL     1       2.533   4.637  20.830  0.00  0.00    +0.000 A 
ATOM     13  C   UNL     1       2.077   3.596  21.646  0.00  0.00    +0.000 A 
ATOM     14  C   UNL     1       1.224   2.630  21.129  0.00  0.00    +0.000 A 
ATOM     15  C   UNL     1       0.833   2.707  19.796  0.00  0.00    +0.000 A 
ATOM     16  C   UNL     1       1.284   3.762  18.986  0.00  0.00    +0.000 A 
ENDBRANCH   9  11
ENDBRANCH   2   5
BRANCH   1  17
ATOM     17  C   UNL     1       0.439  11.023  19.462  0.00  0.00    +0.000 C 
BRANCH  17  22
ATOM     18  C   UNL     1      -5.069  11.027  17.504  0.00  0.00    +0.000 C 
ATOM     19  C   UNL     1      -3.669  11.005  18.044  0.00  0.00    +0.000 A 
ATOM     20  C   UNL     1      -2.808   9.941  17.762  0.00  0.00    +0.000 A 
ATOM     21  C   UNL     1      -1.500   9.940  18.260  0.00  0.00    +0.000 A 
ATOM     22  C   UNL     1      -1.027  11.001  19.053  0.00  0.00    +0.000 A 
ATOM     23  C   UNL     1      -1.911  12.046  19.356  0.00  0.00    +0.000 A 
ATOM     24  C   UNL     1      -3.218  12.046  18.861  0.00  0.00    +0.000 A 
ENDBRANCH  17  22
BRANCH  17  25
ATOM     25  C   UNL     1       0.579  11.433  20.949  0.00  0.00    +0.000 C 
BRANCH  25  26
ATOM     26  C   UNL     1      -0.500  10.923  21.926  0.00  0.00    +0.000 C 
BRANCH  26  27
ATOM     27  N   UNL     1      -0.915  11.879  22.975  0.00  0.00    +0.000 NA
ATOM     28  C   UNL     1      -0.658  13.265  22.562  0.00  0.00    +0.000 C 
ATOM     29  C   UNL     1      -2.352  11.727  23.243  0.00  0.00    +0.000 C 
ENDBRANCH  26  27
ENDBRANCH  25  26
ENDBRANCH  17  25
ENDBRANCH   1  17
TORSDOF 7
ENDMDL
MODEL 7
REMARK VINA RESULT:      -8.2      3.178      6.221
REMARK  Name = 
REMARK  10 active torsions:
REMARK  status: ('A' for Active; 'I' for Inactive)
REMARK    1  A    between atoms: C_1  and  C_2
REMARK    2  A    between atoms: C_5  and  C_6
REMARK    3  A    between atoms: C_6  and  C_7
REMARK    4  A    between atoms: C_6  and  N_12
REMARK    5  A    between atoms: C_7  and  C_8
REMARK    6  A    between atoms: C_8  and  N_9
REMARK    7  A    between atoms: N_9  and  C_10
REMARK    8  A    between atoms: N_9  and  C_11
REMARK    9  A    between atoms: C_13  and  C_15
REMARK   10  A    between atoms: C_19  and  C_20
REMARK                            x       y       z     vdW  Elec       q    Type
REMARK                         _______ _______ _______ _____ _____    ______ ____
ROOT
ATOM      1  N   UNL     1       0.129  10.207  19.169  0.00  0.00    +0.000 N 
ATOM      2  C   UNL     1       1.360   9.841  18.663  0.00  0.00    +0.000 C 
ATOM      3  O   UNL     1       2.023  10.570  17.929  0.00  0.00    +0.000 OA
ATOM      4  H   UNL     1      -0.425   9.565  19.720  0.00  0.00    +0.000 HD
ENDROOT
BRANCH   2   5
ATOM      5  C   UNL     1       1.892   8.482  19.034  0.00  0.00    +0.000 A 
ATOM      6  C   UNL     1       1.540   7.828  20.216  0.00  0.00    +0.000 A 
ATOM      7  C   UNL     1       2.030   6.549  20.482  0.00  0.00    +0.000 A 
ATOM      8  C   UNL     1       2.859   5.900  19.560  0.00  0.00    +0.000 A 
ATOM      9  C   UNL     1       3.246   6.519  18.359  0.00  0.00    +0.000 A 
ATOM     10  C   UNL     1       2.772   7.834  18.142  0.00  0.00    +0.000 A 
BRANCH   9  11
ATOM     11  C   UNL     1       4.067   5.800  17.338  0.00  0.00    +0.000 A 
ATOM     12  C   UNL     1       4.812   6.509  16.379  0.00  0.00    +0.000 A 
ATOM     13  C   UNL     1       5.570   5.865  15.396  0.00  0.00    +0.000 A 
ATOM     14  C   UNL     1       5.597   4.478  15.337  0.00  0.00    +0.000 A 
ATOM     15  C   UNL     1       4.862   3.740  16.260  0.00  0.00    +0.000 A 
ATOM     16  C   UNL     1       4.113   4.393  17.253  0.00  0.00    +0.000 A 
ENDBRANCH   9  11
ENDBRANCH   2   5
BRANCH   1  17
ATOM     17  C   UNL     1      -0.531  11.477  18.881  0.00  0.00    +0.000 C 
BRANCH  17  22
ATOM     18  C   UNL     1      -6.300  11.144  18.001  0.00  0.00    +0.000 C 
ATOM     19  C   UNL     1      -4.824  11.201  18.261  0.00  0.00    +0.000 A 
ATOM     20  C   UNL     1      -3.949  10.308  17.636  0.00  0.00    +0.000 A 
ATOM     21  C   UNL     1      -2.573  10.382  17.877  0.00  0.00    +0.000 A 
ATOM     22  C   UNL     1      -2.042  11.347  18.751  0.00  0.00    +0.000 A 
ATOM     23  C   UNL     1      -2.933  12.216  19.397  0.00  0.00    +0.000 A 
ATOM     24  C   UNL     1      -4.307  12.141  19.159  0.00  0.00    +0.000 A 
ENDBRANCH  17  22
BRANCH  17  25
ATOM     25  C   UNL     1      -0.169  12.568  19.917  0.00  0.00    +0.000 C 
BRANCH  25  26
ATOM     26  C   UNL     1       0.153  12.101  21.352  0.00  0.00    +0.000 C 
BRANCH  26  27
ATOM     27  N   UNL     1      -1.017  11.807  22.206  0.00  0.00    +0.000 NA
ATOM     28  C   UNL     1      -0.805  10.587  22.996  0.00  0.00    +0.000 C 
ATOM     29  C   UNL     1      -1.253  12.928  23.126  0.00  0.00    +0.000 C 
ENDBRANCH  26  27
ENDBRANCH  25  26
ENDBRANCH  17  25
ENDBRANCH   1  17
TORSDOF 7
ENDMDL
MODEL 8
REMARK VINA RESULT:      -8.2      3.542      7.032
REMARK  Name = 
REMARK  10 active torsions:
REMARK  status: ('A' for Active; 'I' for Inactive)
REMARK    1  A    between atoms: C_1  and  C_2
REMARK    2  A    between atoms: C_5  and  C_6
REMARK    3  A    between atoms: C_6  and  C_7
REMARK    4  A    between atoms: C_6  and  N_12
REMARK    5  A    between atoms: C_7  and  C_8
REMARK    6  A    between atoms: C_8  and  N_9
REMARK    7  A    between atoms: N_9  and  C_10
REMARK    8  A    between atoms: N_9  and  C_11
REMARK    9  A    between atoms: C_13  and  C_15
REMARK   10  A    between atoms: C_19  and  C_20
REMARK                            x       y       z     vdW  Elec       q    Type
REMARK                         _______ _______ _______ _____ _____    ______ ____
ROOT
ATOM      1  N   UNL     1       1.147   9.698  18.979  0.00  0.00    +0.000 N 
ATOM      2  C   UNL     1       2.163   9.541  18.058  0.00  0.00    +0.000 C 
ATOM      3  O   UNL     1       2.590  10.466  17.371  0.00  0.00    +0.000 OA
ATOM      4  H   UNL     1       0.771   8.910  19.487  0.00  0.00    +0.000 HD
ENDROOT
BRANCH   2   5
ATOM      5  C   UNL     1       2.755   8.166  17.901  0.00  0.00    +0.000 A 
ATOM      6  C   UNL     1       3.857   7.904  17.085  0.00  0.00    +0.000 A 
ATOM      7  C   UNL     1       4.388   6.615  17.015  0.00  0.00    +0.000 A 
ATOM      8  C   UNL     1       3.838   5.578  17.778  0.00  0.00    +0.000 A 
ATOM      9  C   UNL     1       2.726   5.791  18.610  0.00  0.00    +0.000 A 
ATOM     10  C   UNL     1       2.181   7.097  18.621  0.00  0.00    +0.000 A 
BRANCH   9  11
ATOM     11  C   UNL     1       2.185   4.706  19.485  0.00  0.00    +0.000 A 
ATOM     12  C   UNL     1       2.566   4.607  20.834  0.00  0.00    +0.000 A 
ATOM     13  C   UNL     1       2.095   3.590  21.671  0.00  0.00    +0.000 A 
ATOM     14  C   UNL     1       1.229   2.625  21.173  0.00  0.00    +0.000 A 
ATOM     15  C   UNL     1       0.838   2.681  19.838  0.00  0.00    +0.000 A 
ATOM     16  C   UNL     1       1.305   3.713  19.007  0.00  0.00    +0.000 A 
ENDBRANCH   9  11
ENDBRANCH   2   5
BRANCH   1  17
ATOM     17  C   UNL     1       0.456  10.960  19.228  0.00  0.00    +0.000 C 
BRANCH  17  22
ATOM     18  C   UNL     1      -5.139  10.855  17.539  0.00  0.00    +0.000 C 
ATOM     19  C   UNL     1      -3.694  10.910  17.938  0.00  0.00    +0.000 A 
ATOM     20  C   UNL     1      -3.237  11.865  18.850  0.00  0.00    +0.000 A 
ATOM     21  C   UNL     1      -1.890  11.896  19.225  0.00  0.00    +0.000 A 
ATOM     22  C   UNL     1      -0.970  10.975  18.694  0.00  0.00    +0.000 A 
ATOM     23  C   UNL     1      -1.434  10.043  17.755  0.00  0.00    +0.000 A 
ATOM     24  C   UNL     1      -2.778  10.013  17.379  0.00  0.00    +0.000 A 
ENDBRANCH  17  22
BRANCH  17  25
ATOM     25  C   UNL     1       0.476  11.348  20.727  0.00  0.00    +0.000 C 
BRANCH  25  26
ATOM     26  C   UNL     1       1.101  12.709  21.096  0.00  0.00    +0.000 C 
BRANCH  26  27
ATOM     27  N   UNL     1       1.502  13.558  19.953  0.00  0.00    +0.000 NA
ATOM     28  C   UNL     1       0.744  14.816  19.935  0.00  0.00    +0.000 C 
ATOM     29  C   UNL     1       2.934  13.873  20.050  0.00  0.00    +0.000 C 
ENDBRANCH  26  27
ENDBRANCH  25  26
ENDBRANCH  17  25
ENDBRANCH   1  17
TORSDOF 7
ENDMDL
MODEL 9
REMARK VINA RESULT:      -8.1      2.653      8.378
REMARK  Name = 
REMARK  10 active torsions:
REMARK  status: ('A' for Active; 'I' for Inactive)
REMARK    1  A    between atoms: C_1  and  C_2
REMARK    2  A    between atoms: C_5  and  C_6
REMARK    3  A    between atoms: C_6  and  C_7
REMARK    4  A    between atoms: C_6  and  N_12
REMARK    5  A    between atoms: C_7  and  C_8
REMARK    6  A    between atoms: C_8  and  N_9
REMARK    7  A    between atoms: N_9  and  C_10
REMARK    8  A    between atoms: N_9  and  C_11
REMARK    9  A    between atoms: C_13  and  C_15
REMARK   10  A    between atoms: C_19  and  C_20
REMARK                            x       y       z     vdW  Elec       q    Type
REMARK                         _______ _______ _______ _____ _____    ______ ____
ROOT
ATOM      1  N   UNL     1       1.991   8.215  18.959  0.00  0.00    +0.000 N 
ATOM      2  C   UNL     1       1.486   8.714  20.143  0.00  0.00    +0.000 C 
ATOM      3  O   UNL     1       1.813   8.277  21.244  0.00  0.00    +0.000 OA
ATOM      4  H   UNL     1       1.660   8.548  18.064  0.00  0.00    +0.000 HD
ENDROOT
BRANCH   2   5
ATOM      5  C   UNL     1       0.487   9.836  20.057  0.00  0.00    +0.000 A 
ATOM      6  C   UNL     1       0.515  10.942  20.910  0.00  0.00    +0.000 A 
ATOM      7  C   UNL     1      -0.412  11.973  20.751  0.00  0.00    +0.000 A 
ATOM      8  C   UNL     1      -1.362  11.923  19.724  0.00  0.00    +0.000 A 
ATOM      9  C   UNL     1      -1.433  10.829  18.845  0.00  0.00    +0.000 A 
ATOM     10  C   UNL     1      -0.512   9.778  19.063  0.00  0.00    +0.000 A 
BRANCH   9  11
ATOM     11  C   UNL     1      -2.394  10.807  17.701  0.00  0.00    +0.000 A 
ATOM     12  C   UNL     1      -2.111  10.081  16.531  0.00  0.00    +0.000 A 
ATOM     13  C   UNL     1      -2.979  10.061  15.435  0.00  0.00    +0.000 A 
ATOM     14  C   UNL     1      -4.165  10.783  15.473  0.00  0.00    +0.000 A 
ATOM     15  C   UNL     1      -4.476  11.526  16.608  0.00  0.00    +0.000 A 
ATOM     16  C   UNL     1      -3.605  11.532  17.711  0.00  0.00    +0.000 A 
ENDBRANCH   9  11
ENDBRANCH   2   5
BRANCH   1  17
ATOM     17  C   UNL     1       2.945   7.113  18.875  0.00  0.00    +0.000 C 
BRANCH  17  22
ATOM     18  C   UNL     1       0.750   1.703  19.156  0.00  0.00    +0.000 C 
ATOM     19  C   UNL     1       1.271   3.107  19.081  0.00  0.00    +0.000 A 
ATOM     20  C   UNL     1       1.469   3.863  20.240  0.00  0.00    +0.000 A 
ATOM     21  C   UNL     1       1.970   5.167  20.156  0.00  0.00    +0.000 A 
ATOM     22  C   UNL     1       2.280   5.744  18.911  0.00  0.00    +0.000 A 
ATOM     23  C   UNL     1       2.046   4.987  17.754  0.00  0.00    +0.000 A 
ATOM     24  C   UNL     1       1.544   3.687  17.838  0.00  0.00    +0.000 A 
ENDBRANCH  17  22
BRANCH  17  25
ATOM     25  C   UNL     1       3.866   7.234  17.636  0.00  0.00    +0.000 C 
BRANCH  25  26
ATOM     26  C   UNL     1       5.357   6.890  17.829  0.00  0.00    +0.000 C 
BRANCH  26  27
ATOM     27  N   UNL     1       6.104   6.568  16.594  0.00  0.00    +0.000 NA
ATOM     28  C   UNL     1       7.060   5.476  16.820  0.00  0.00    +0.000 C 
ATOM     29  C   UNL     1       5.164   6.161  15.540  0.00  0.00    +0.000 C 
ENDBRANCH  26  27
ENDBRANCH  25  26
ENDBRANCH  17  25
ENDBRANCH   1  17
TORSDOF 7
ENDMDL
