MODEL 1
REMARK VINA RESULT:      -9.6      0.000      0.000
REMARK  Name = 
REMARK  7 active torsions:
REMARK  status: ('A' for Active; 'I' for Inactive)
REMARK    1  A    between atoms: C_10  and  N_11
REMARK    2  A    between atoms: N_11  and  C_12
REMARK    3  A    between atoms: N_11  and  C_21
REMARK    4  A    between atoms: C_12  and  C_13
REMARK    5  A    between atoms: C_13  and  C_14
REMARK    6  A    between atoms: C_14  and  N_15
REMARK    7  A    between atoms: C_21  and  C_22
REMARK                            x       y       z     vdW  Elec       q    Type
REMARK                         _______ _______ _______ _____ _____    ______ ____
ROOT
ATOM      1  N   UNL     1       4.766   6.359  18.677  0.00  0.00    +0.000 NA
ENDROOT
BRANCH   1  11
ATOM      2  C   UNL     1       6.120   4.008  14.301  0.00  0.00    +0.000 A 
ATOM      3  C   UNL     1       5.367   5.164  14.256  0.00  0.00    +0.000 A 
ATOM      4  N   UNL     1       5.294   6.058  15.268  0.00  0.00    +0.000 NA
ATOM      5  C   UNL     1       5.953   5.767  16.423  0.00  0.00    +0.000 A 
ATOM      6  C   UNL     1       6.829   4.673  16.512  0.00  0.00    +0.000 A 
ATOM      7  C   UNL     1       6.883   3.775  15.437  0.00  0.00    +0.000 A 
ATOM      8  C   UNL     1       7.831   4.530  17.626  0.00  0.00    +0.000 C 
ATOM      9  C   UNL     1       7.718   5.587  18.722  0.00  0.00    +0.000 C 
ATOM     10  C   UNL     1       7.212   6.915  18.154  0.00  0.00    +0.000 C 
ATOM     11  C   UNL     1       5.768   6.747  17.597  0.00  0.00    +0.000 C 
ENDBRANCH   1  11
BRANCH   1  12
ATOM     12  C   UNL     1       4.939   4.977  19.235  0.00  0.00    +0.000 C 
BRANCH  12  13
ATOM     13  C   UNL     1       4.015   3.863  18.728  0.00  0.00    +0.000 C 
BRANCH  13  14
ATOM     14  C   UNL     1       4.186   2.524  19.474  0.00  0.00    +0.000 C 
BRANCH  14  15
ATOM     15  N   UNL     1       2.916   2.078  20.077  0.00  0.00    +0.000 NA
ATOM     16  C   UNL     1       2.567   2.752  21.343  0.00  0.00    +0.000 C 
ATOM     17  C   UNL     1       1.915   4.145  21.201  0.00  0.00    +0.000 C 
ATOM     18  N   UNL     1       0.767   4.158  20.284  0.00  0.00    +0.000 NA
ATOM     19  C   UNL     1       1.164   3.581  18.995  0.00  0.00    +0.000 C 
ATOM     20  C   UNL     1       1.776   2.171  19.142  0.00  0.00    +0.000 C 
ATOM     21  H   UNL     1       0.445   5.114  20.151  0.00  0.00    +0.000 HD
ENDBRANCH  14  15
ENDBRANCH  13  14
ENDBRANCH  12  13
ENDBRANCH   1  12
BRANCH   1  22
ATOM     22  C   UNL     1       3.387   6.401  18.075  0.00  0.00    +0.000 C 
BRANCH  22  23
ATOM     23  C   UNL     1       2.513   7.610  18.392  0.00  0.00    +0.000 A 
ATOM     24  C   UNL     1       1.896   7.705  19.640  0.00  0.00    +0.000 A 
ATOM     25  C   UNL     1       1.236   8.905  19.944  0.00  0.00    +0.000 A 
ATOM     26  C   UNL     1       1.199   9.906  18.976  0.00  0.00    +0.000 A 
ATOM     27  C   UNL     1       1.815   9.759  17.744  0.00  0.00    +0.000 A 
ATOM     28  N   UNL     1       2.477   8.610  17.471  0.00  0.00    +0.000 NA
ATOM     29  N   UNL     1       0.480  10.952  19.508  0.00  0.00    +0.000 N 
ATOM     30  C   UNL     1       0.088  10.679  20.798  0.00  0.00    +0.000 A 
ATOM     31  C   UNL     1      -0.637  11.455  21.708  0.00  0.00    +0.000 A 
ATOM     32  C   UNL     1      -0.860  10.924  22.979  0.00  0.00    +0.000 A 
ATOM     33  C   UNL     1      -0.384   9.656  23.322  0.00  0.00    +0.000 A 
ATOM     34  C   UNL     1       0.322   8.888  22.391  0.00  0.00    +0.000 A 
ATOM     35  C   UNL     1       0.560   9.403  21.102  0.00  0.00    +0.000 A 
ATOM     36  H   UNL     1       0.284  11.816  19.023  0.00  0.00    +0.000 HD
ENDBRANCH  22  23
ENDBRANCH   1  22
TORSDOF 7
ENDMDL
MODEL 2
REMARK VINA RESULT:      -9.6      0.856      1.315
REMARK  Name = 
REMARK  7 active torsions:
REMARK  status: ('A' for Active; 'I' for Inactive)
REMARK    1  A    between atoms: C_10  and  N_11
REMARK    2  A    between atoms: N_11  and  C_12
REMARK    3  A    between atoms: N_11  and  C_21
REMARK    4  A    between atoms: C_12  and  C_13
REMARK    5  A    between atoms: C_13  and  C_14
REMARK    6  A    between atoms: C_14  and  N_15
REMARK    7  A    between atoms: C_21  and  C_22
REMARK                            x       y       z     vdW  Elec       q    Type
REMARK                         _______ _______ _______ _____ _____    ______ ____
ROOT
ATOM      1  N   UNL     1       4.514   6.906  18.124  0.00  0.00    +0.000 NA
ENDROOT
BRANCH   1  11
ATOM      2  C   UNL     1       6.294   3.804  14.420  0.00  0.00    +0.000 A 
ATOM      3  C   UNL     1       5.609   4.955  14.083  0.00  0.00    +0.000 A 
ATOM      4  N   UNL     1       5.453   6.011  14.914  0.00  0.00    +0.000 NA
ATOM      5  C   UNL     1       5.946   5.904  16.178  0.00  0.00    +0.000 A 
ATOM      6  C   UNL     1       6.750   4.820  16.563  0.00  0.00    +0.000 A 
ATOM      7  C   UNL     1       6.895   3.749  15.670  0.00  0.00    +0.000 A 
ATOM      8  C   UNL     1       7.595   4.844  17.809  0.00  0.00    +0.000 C 
ATOM      9  C   UNL     1       7.396   6.076  18.689  0.00  0.00    +0.000 C 
ATOM     10  C   UNL     1       7.031   7.299  17.845  0.00  0.00    +0.000 C 
ATOM     11  C   UNL     1       5.662   7.077  17.137  0.00  0.00    +0.000 C 
ENDBRANCH   1  11
BRANCH   1  12
ATOM     12  C   UNL     1       4.317   5.508  18.631  0.00  0.00    +0.000 C 
BRANCH  12  13
ATOM     13  C   UNL     1       3.232   4.641  17.979  0.00  0.00    +0.000 C 
BRANCH  13  14
ATOM     14  C   UNL     1       1.931   4.547  18.802  0.00  0.00    +0.000 C 
BRANCH  14  15
ATOM     15  N   UNL     1       1.660   3.160  19.223  0.00  0.00    +0.000 NA
ATOM     16  C   UNL     1       2.847   2.282  19.245  0.00  0.00    +0.000 C 
ATOM     17  C   UNL     1       3.744   2.401  20.498  0.00  0.00    +0.000 C 
ATOM     18  N   UNL     1       2.998   2.280  21.758  0.00  0.00    +0.000 NA
ATOM     19  C   UNL     1       1.885   3.237  21.761  0.00  0.00    +0.000 C 
ATOM     20  C   UNL     1       0.970   3.083  20.527  0.00  0.00    +0.000 C 
ATOM     21  H   UNL     1       3.619   2.468  22.543  0.00  0.00    +0.000 HD
ENDBRANCH  14  15
ENDBRANCH  13  14
ENDBRANCH  12  13
ENDBRANCH   1  12
BRANCH   1  22
ATOM     22  C   UNL     1       3.236   7.287  17.428  0.00  0.00    +0.000 C 
BRANCH  22  23
ATOM     23  C   UNL     1       2.426   8.440  18.015  0.00  0.00    +0.000 A 
ATOM     24  C   UNL     1       1.751   8.262  19.222  0.00  0.00    +0.000 A 
ATOM     25  C   UNL     1       1.156   9.392  19.802  0.00  0.00    +0.000 A 
ATOM     26  C   UNL     1       1.236  10.606  19.123  0.00  0.00    +0.000 A 
ATOM     27  C   UNL     1       1.906  10.730  17.917  0.00  0.00    +0.000 A 
ATOM     28  N   UNL     1       2.505   9.640  17.381  0.00  0.00    +0.000 NA
ATOM     29  N   UNL     1       0.560  11.534  19.881  0.00  0.00    +0.000 N 
ATOM     30  C   UNL     1       0.082  10.974  21.042  0.00  0.00    +0.000 A 
ATOM     31  C   UNL     1      -0.638  11.546  22.096  0.00  0.00    +0.000 A 
ATOM     32  C   UNL     1      -0.962  10.728  23.179  0.00  0.00    +0.000 A 
ATOM     33  C   UNL     1      -0.589   9.382  23.201  0.00  0.00    +0.000 A 
ATOM     34  C   UNL     1       0.113   8.824  22.129  0.00  0.00    +0.000 A 
ATOM     35  C   UNL     1       0.454   9.630  21.025  0.00  0.00    +0.000 A 
ATOM     36  H   UNL     1       0.446  12.506  19.628  0.00  0.00    +0.000 HD
ENDBRANCH  22  23
ENDBRANCH   1  22
TORSDOF 7
ENDMDL
MODEL 3
REMARK VINA RESULT:      -9.4      1.209      1.873
REMARK  Name = 
REMARK  7 active torsions:
REMARK  status: ('A' for Active; 'I' for Inactive)
REMARK    1  A    between atoms: C_10  and  N_11
REMARK    2  A    between atoms: N_11  and  C_12
REMARK    3  A    between atoms: N_11  and  C_21
REMARK    4  A    between atoms: C_12  and  C_13
REMARK    5  A    between atoms: C_13  and  C_14
REMARK    6  A    between atoms: C_14  and  N_15
REMARK    7  A    between atoms: C_21  and  C_22
REMARK                            x       y       z     vdW  Elec       q    Type
REMARK                         _______ _______ _______ _____ _____    ______ ____
ROOT
ATOM      1  N   UNL     1       4.315   6.692  18.042  0.00  0.00    +0.000 NA
ENDROOT
BRANCH   1  11
ATOM      2  C   UNL     1       6.296   3.772  14.292  0.00  0.00    +0.000 A 
ATOM      3  C   UNL     1       5.538   4.882  13.973  0.00  0.00    +0.000 A 
ATOM      4  N   UNL     1       5.313   5.912  14.820  0.00  0.00    +0.000 NA
ATOM      5  C   UNL     1       5.811   5.817  16.084  0.00  0.00    +0.000 A 
ATOM      6  C   UNL     1       6.682   4.780  16.453  0.00  0.00    +0.000 A 
ATOM      7  C   UNL     1       6.897   3.736  15.542  0.00  0.00    +0.000 A 
ATOM      8  C   UNL     1       7.522   4.838  17.700  0.00  0.00    +0.000 C 
ATOM      9  C   UNL     1       7.243   6.040  18.599  0.00  0.00    +0.000 C 
ATOM     10  C   UNL     1       6.801   7.251  17.775  0.00  0.00    +0.000 C 
ATOM     11  C   UNL     1       5.451   6.952  17.060  0.00  0.00    +0.000 C 
ENDBRANCH   1  11
BRANCH   1  12
ATOM     12  C   UNL     1       3.822   5.276  18.080  0.00  0.00    +0.000 C 
BRANCH  12  13
ATOM     13  C   UNL     1       4.150   4.420  19.310  0.00  0.00    +0.000 C 
BRANCH  13  14
ATOM     14  C   UNL     1       4.141   2.902  19.033  0.00  0.00    +0.000 C 
BRANCH  14  15
ATOM     15  N   UNL     1       3.164   2.205  19.890  0.00  0.00    +0.000 NA
ATOM     16  C   UNL     1       2.776   2.946  21.107  0.00  0.00    +0.000 C 
ATOM     17  C   UNL     1       1.701   4.037  20.910  0.00  0.00    +0.000 C 
ATOM     18  N   UNL     1       0.506   3.554  20.205  0.00  0.00    +0.000 NA
ATOM     19  C   UNL     1       0.906   2.915  18.946  0.00  0.00    +0.000 C 
ATOM     20  C   UNL     1       1.950   1.797  19.157  0.00  0.00    +0.000 C 
ATOM     21  H   UNL     1      -0.119   4.335  20.014  0.00  0.00    +0.000 HD
ENDBRANCH  14  15
ENDBRANCH  13  14
ENDBRANCH  12  13
ENDBRANCH   1  12
BRANCH   1  22
ATOM     22  C   UNL     1       3.139   7.538  17.635  0.00  0.00    +0.000 C 
BRANCH  22  23
ATOM     23  C   UNL     1       2.328   8.203  18.743  0.00  0.00    +0.000 A 
ATOM     24  C   UNL     1       1.689   9.418  18.494  0.00  0.00    +0.000 A 
ATOM     25  C   UNL     1       0.827   9.909  19.486  0.00  0.00    +0.000 A 
ATOM     26  C   UNL     1       0.693   9.184  20.667  0.00  0.00    +0.000 A 
ATOM     27  C   UNL     1       1.360   7.987  20.874  0.00  0.00    +0.000 A 
ATOM     28  N   UNL     1       2.166   7.505  19.899  0.00  0.00    +0.000 NA
ATOM     29  N   UNL     1      -0.177   9.884  21.471  0.00  0.00    +0.000 N 
ATOM     30  C   UNL     1      -0.640  11.013  20.836  0.00  0.00    +0.000 A 
ATOM     31  C   UNL     1      -1.539  11.993  21.269  0.00  0.00    +0.000 A 
ATOM     32  C   UNL     1      -1.854  13.022  20.381  0.00  0.00    +0.000 A 
ATOM     33  C   UNL     1      -1.278  13.075  19.109  0.00  0.00    +0.000 A 
ATOM     34  C   UNL     1      -0.366  12.097  18.702  0.00  0.00    +0.000 A 
ATOM     35  C   UNL     1      -0.034  11.047  19.581  0.00  0.00    +0.000 A 
ATOM     36  H   UNL     1      -0.455   9.597  22.399  0.00  0.00    +0.000 HD
ENDBRANCH  22  23
ENDBRANCH   1  22
TORSDOF 7
ENDMDL
MODEL 4
REMARK VINA RESULT:      -9.3      0.793      1.172
REMARK  Name = 
REMARK  7 active torsions:
REMARK  status: ('A' for Active; 'I' for Inactive)
REMARK    1  A    between atoms: C_10  and  N_11
REMARK    2  A    between atoms: N_11  and  C_12
REMARK    3  A    between atoms: N_11  and  C_21
REMARK    4  A    between atoms: C_12  and  C_13
REMARK    5  A    between atoms: C_13  and  C_14
REMARK    6  A    between atoms: C_14  and  N_15
REMARK    7  A    between atoms: C_21  and  C_22
REMARK                            x       y       z     vdW  Elec       q    Type
REMARK                         _______ _______ _______ _____ _____    ______ ____
ROOT
ATOM      1  N   UNL     1       4.829   6.964  18.339  0.00  0.00    +0.000 NA
ENDROOT
BRANCH   1  11
ATOM      2  C   UNL     1       6.090   3.812  14.468  0.00  0.00    +0.000 A 
ATOM      3  C   UNL     1       5.463   5.013  14.201  0.00  0.00    +0.000 A 
ATOM      4  N   UNL     1       5.448   6.063  15.053  0.00  0.00    +0.000 NA
ATOM      5  C   UNL     1       6.030   5.900  16.274  0.00  0.00    +0.000 A 
ATOM      6  C   UNL     1       6.783   4.756  16.581  0.00  0.00    +0.000 A 
ATOM      7  C   UNL     1       6.781   3.694  15.666  0.00  0.00    +0.000 A 
ATOM      8  C   UNL     1       7.722   4.700  17.755  0.00  0.00    +0.000 C 
ATOM      9  C   UNL     1       7.680   5.927  18.662  0.00  0.00    +0.000 C 
ATOM     10  C   UNL     1       7.337   7.187  17.865  0.00  0.00    +0.000 C 
ATOM     11  C   UNL     1       5.905   7.073  17.265  0.00  0.00    +0.000 C 
ENDBRANCH   1  11
BRANCH   1  12
ATOM     12  C   UNL     1       4.812   5.667  19.091  0.00  0.00    +0.000 C 
BRANCH  12  13
ATOM     13  C   UNL     1       3.559   4.786  18.998  0.00  0.00    +0.000 C 
BRANCH  13  14
ATOM     14  C   UNL     1       2.958   4.413  20.369  0.00  0.00    +0.000 C 
BRANCH  14  15
ATOM     15  N   UNL     1       2.678   2.968  20.458  0.00  0.00    +0.000 NA
ATOM     16  C   UNL     1       1.255   2.607  20.295  0.00  0.00    +0.000 C 
ATOM     17  C   UNL     1       0.748   2.531  18.838  0.00  0.00    +0.000 C 
ATOM     18  N   UNL     1       1.589   1.692  17.973  0.00  0.00    +0.000 NA
ATOM     19  C   UNL     1       2.985   2.136  18.068  0.00  0.00    +0.000 C 
ATOM     20  C   UNL     1       3.496   2.168  19.526  0.00  0.00    +0.000 C 
ATOM     21  H   UNL     1       1.269   1.762  17.010  0.00  0.00    +0.000 HD
ENDBRANCH  14  15
ENDBRANCH  13  14
ENDBRANCH  12  13
ENDBRANCH   1  12
BRANCH   1  22
ATOM     22  C   UNL     1       3.486   7.083  17.670  0.00  0.00    +0.000 C 
BRANCH  22  23
ATOM     23  C   UNL     1       2.560   8.204  18.135  0.00  0.00    +0.000 A 
ATOM     24  C   UNL     1       1.930   8.105  19.375  0.00  0.00    +0.000 A 
ATOM     25  C   UNL     1       1.218   9.226  19.828  0.00  0.00    +0.000 A 
ATOM     26  C   UNL     1       1.148  10.346  19.003  0.00  0.00    +0.000 A 
ATOM     27  C   UNL     1       1.781  10.391  17.771  0.00  0.00    +0.000 A 
ATOM     28  N   UNL     1       2.491   9.316  17.355  0.00  0.00    +0.000 NA
ATOM     29  N   UNL     1       0.384  11.282  19.660  0.00  0.00    +0.000 N 
ATOM     30  C   UNL     1      -0.008  10.823  20.896  0.00  0.00    +0.000 A 
ATOM     31  C   UNL     1      -0.771  11.440  21.893  0.00  0.00    +0.000 A 
ATOM     32  C   UNL     1      -0.983  10.735  23.078  0.00  0.00    +0.000 A 
ATOM     33  C   UNL     1      -0.459   9.452  23.254  0.00  0.00    +0.000 A 
ATOM     34  C   UNL     1       0.286   8.844  22.238  0.00  0.00    +0.000 A 
ATOM     35  C   UNL     1       0.514   9.538  21.033  0.00  0.00    +0.000 A 
ATOM     36  H   UNL     1       0.156  12.195  19.293  0.00  0.00    +0.000 HD
ENDBRANCH  22  23
ENDBRANCH   1  22
TORSDOF 7
ENDMDL
MODEL 5
REMARK VINA RESULT:      -9.2      1.295      2.761
REMARK  Name = 
REMARK  7 active torsions:
REMARK  status: ('A' for Active; 'I' for Inactive)
REMARK    1  A    between atoms: C_10  and  N_11
REMARK    2  A    between atoms: N_11  and  C_12
REMARK    3  A    between atoms: N_11  and  C_21
REMARK    4  A    between atoms: C_12  and  C_13
REMARK    5  A    between atoms: C_13  and  C_14
REMARK    6  A    between atoms: C_14  and  N_15
REMARK    7  A    between atoms: C_21  and  C_22
REMARK                            x       y       z     vdW  Elec       q    Type
REMARK                         _______ _______ _______ _____ _____    ______ ____
ROOT
ATOM      1  N   UNL     1       3.422   5.530  18.429  0.00  0.00    +0.000 NA
ENDROOT
BRANCH   1  11
ATOM      2  C   UNL     1       8.368   6.878  18.907  0.00  0.00    +0.000 A 
ATOM      3  C   UNL     1       7.822   5.948  19.770  0.00  0.00    +0.000 A 
ATOM      4  N   UNL     1       6.700   5.241  19.506  0.00  0.00    +0.000 NA
ATOM      5  C   UNL     1       6.035   5.510  18.348  0.00  0.00    +0.000 A 
ATOM      6  C   UNL     1       6.581   6.355  17.369  0.00  0.00    +0.000 A 
ATOM      7  C   UNL     1       7.750   7.063  17.678  0.00  0.00    +0.000 A 
ATOM      8  C   UNL     1       6.063   6.391  15.956  0.00  0.00    +0.000 C 
ATOM      9  C   UNL     1       4.814   5.548  15.714  0.00  0.00    +0.000 C 
ATOM     10  C   UNL     1       4.792   4.324  16.632  0.00  0.00    +0.000 C 
ATOM     11  C   UNL     1       4.705   4.768  18.121  0.00  0.00    +0.000 C 
ENDBRANCH   1  11
BRANCH   1  12
ATOM     12  C   UNL     1       2.205   5.044  17.701  0.00  0.00    +0.000 C 
BRANCH  12  13
ATOM     13  C   UNL     1       1.196   4.175  18.463  0.00  0.00    +0.000 C 
BRANCH  13  14
ATOM     14  C   UNL     1       1.515   4.019  19.964  0.00  0.00    +0.000 C 
BRANCH  14  15
ATOM     15  N   UNL     1       1.739   2.607  20.323  0.00  0.00    +0.000 NA
ATOM     16  C   UNL     1       1.827   1.687  19.171  0.00  0.00    +0.000 C 
ATOM     17  C   UNL     1       3.197   1.638  18.458  0.00  0.00    +0.000 C 
ATOM     18  N   UNL     1       4.321   1.412  19.377  0.00  0.00    +0.000 NA
ATOM     19  C   UNL     1       4.277   2.405  20.457  0.00  0.00    +0.000 C 
ATOM     20  C   UNL     1       2.918   2.418  21.192  0.00  0.00    +0.000 C 
ATOM     21  H   UNL     1       5.200   1.492  18.870  0.00  0.00    +0.000 HD
ENDBRANCH  14  15
ENDBRANCH  13  14
ENDBRANCH  12  13
ENDBRANCH   1  12
BRANCH   1  22
ATOM     22  C   UNL     1       3.617   6.964  18.016  0.00  0.00    +0.000 C 
BRANCH  22  23
ATOM     23  C   UNL     1       2.513   7.958  18.365  0.00  0.00    +0.000 A 
ATOM     24  C   UNL     1       2.023   8.011  19.670  0.00  0.00    +0.000 A 
ATOM     25  C   UNL     1       1.127   9.044  19.982  0.00  0.00    +0.000 A 
ATOM     26  C   UNL     1       0.750   9.924  18.969  0.00  0.00    +0.000 A 
ATOM     27  C   UNL     1       1.255   9.822  17.683  0.00  0.00    +0.000 A 
ATOM     28  N   UNL     1       2.143   8.840  17.399  0.00  0.00    +0.000 NA
ATOM     29  N   UNL     1      -0.141  10.814  19.523  0.00  0.00    +0.000 N 
ATOM     30  C   UNL     1      -0.322  10.567  20.863  0.00  0.00    +0.000 A 
ATOM     31  C   UNL     1      -1.115  11.225  21.808  0.00  0.00    +0.000 A 
ATOM     32  C   UNL     1      -1.072  10.766  23.125  0.00  0.00    +0.000 A 
ATOM     33  C   UNL     1      -0.272   9.677  23.481  0.00  0.00    +0.000 A 
ATOM     34  C   UNL     1       0.500   9.020  22.518  0.00  0.00    +0.000 A 
ATOM     35  C   UNL     1       0.474   9.467  21.182  0.00  0.00    +0.000 A 
ATOM     36  H   UNL     1      -0.589  11.564  19.016  0.00  0.00    +0.000 HD
ENDBRANCH  22  23
ENDBRANCH   1  22
TORSDOF 7
ENDMDL
MODEL 6
REMARK VINA RESULT:      -9.1      2.870      9.233
REMARK  Name = 
REMARK  7 active torsions:
REMARK  status: ('A' for Active; 'I' for Inactive)
REMARK    1  A    between atoms: C_10  and  N_11
REMARK    2  A    between atoms: N_11  and  C_12
REMARK    3  A    between atoms: N_11  and  C_21
REMARK    4  A    between atoms: C_12  and  C_13
REMARK    5  A    between atoms: C_13  and  C_14
REMARK    6  A    between atoms: C_14  and  N_15
REMARK    7  A    between atoms: C_21  and  C_22
REMARK                            x       y       z     vdW  Elec       q    Type
REMARK                         _______ _______ _______ _____ _____    ______ ____
ROOT
ATOM      1  N   UNL     1       1.025  10.035  20.259  0.00  0.00    +0.000 NA
ENDROOT
BRANCH   1  11
ATOM      2  C   UNL     1      -2.714  12.757  22.522  0.00  0.00    +0.000 A 
ATOM      3  C   UNL     1      -1.896  11.947  23.283  0.00  0.00    +0.000 A 
ATOM      4  N   UNL     1      -0.677  11.516  22.885  0.00  0.00    +0.000 NA
ATOM      5  C   UNL     1      -0.262  11.851  21.633  0.00  0.00    +0.000 A 
ATOM      6  C   UNL     1      -0.979  12.761  20.841  0.00  0.00    +0.000 A 
ATOM      7  C   UNL     1      -2.235  13.191  21.293  0.00  0.00    +0.000 A 
ATOM      8  C   UNL     1      -0.381  13.421  19.627  0.00  0.00    +0.000 C 
ATOM      9  C   UNL     1       1.008  12.914  19.248  0.00  0.00    +0.000 C 
ATOM     10  C   UNL     1       1.788  12.471  20.487  0.00  0.00    +0.000 C 
ATOM     11  C   UNL     1       1.082  11.260  21.164  0.00  0.00    +0.000 C 
ENDBRANCH   1  11
BRANCH   1  12
ATOM     12  C   UNL     1      -0.284   9.825  19.558  0.00  0.00    +0.000 C 
BRANCH  12  13
ATOM     13  C   UNL     1      -0.304   9.859  18.024  0.00  0.00    +0.000 C 
BRANCH  13  14
ATOM     14  C   UNL     1      -1.720   9.772  17.418  0.00  0.00    +0.000 C 
BRANCH  14  15
ATOM     15  N   UNL     1      -2.229  11.106  17.047  0.00  0.00    +0.000 NA
ATOM     16  C   UNL     1      -2.799  11.188  15.687  0.00  0.00    +0.000 C 
ATOM     17  C   UNL     1      -4.252  10.683  15.540  0.00  0.00    +0.000 C 
ATOM     18  N   UNL     1      -5.175  11.278  16.516  0.00  0.00    +0.000 NA
ATOM     19  C   UNL     1      -4.642  11.091  17.870  0.00  0.00    +0.000 C 
ATOM     20  C   UNL     1      -3.205  11.637  18.020  0.00  0.00    +0.000 C 
ATOM     21  H   UNL     1      -6.088  10.834  16.439  0.00  0.00    +0.000 HD
ENDBRANCH  14  15
ENDBRANCH  13  14
ENDBRANCH  12  13
ENDBRANCH   1  12
BRANCH   1  22
ATOM     22  C   UNL     1       1.250   8.813  21.109  0.00  0.00    +0.000 C 
BRANCH  22  23
ATOM     23  C   UNL     1       1.671   7.528  20.402  0.00  0.00    +0.000 A 
ATOM     24  C   UNL     1       2.453   7.601  19.249  0.00  0.00    +0.000 A 
ATOM     25  C   UNL     1       2.948   6.396  18.727  0.00  0.00    +0.000 A 
ATOM     26  C   UNL     1       2.598   5.206  19.360  0.00  0.00    +0.000 A 
ATOM     27  C   UNL     1       1.807   5.183  20.497  0.00  0.00    +0.000 A 
ATOM     28  N   UNL     1       1.359   6.353  21.012  0.00  0.00    +0.000 NA
ATOM     29  N   UNL     1       3.184   4.185  18.647  0.00  0.00    +0.000 N 
ATOM     30  C   UNL     1       3.931   4.676  17.601  0.00  0.00    +0.000 A 
ATOM     31  C   UNL     1       4.697   4.007  16.641  0.00  0.00    +0.000 A 
ATOM     32  C   UNL     1       5.386   4.780  15.707  0.00  0.00    +0.000 A 
ATOM     33  C   UNL     1       5.301   6.175  15.725  0.00  0.00    +0.000 A 
ATOM     34  C   UNL     1       4.514   6.825  16.681  0.00  0.00    +0.000 A 
ATOM     35  C   UNL     1       3.810   6.064  17.636  0.00  0.00    +0.000 A 
ATOM     36  H   UNL     1       3.094   3.205  18.872  0.00  0.00    +0.000 HD
ENDBRANCH  22  23
ENDBRANCH   1  22
TORSDOF 7
ENDMDL
MODEL 7
REMARK VINA RESULT:      -9.1      2.511      5.290
REMARK  Name = 
REMARK  7 active torsions:
REMARK  status: ('A' for Active; 'I' for Inactive)
REMARK    1  A    between atoms: C_10  and  N_11
REMARK    2  A    between atoms: N_11  and  C_12
REMARK    3  A    between atoms: N_11  and  C_21
REMARK    4  A    between atoms: C_12  and  C_13
REMARK    5  A    between atoms: C_13  and  C_14
REMARK    6  A    between atoms: C_14  and  N_15
REMARK    7  A    between atoms: C_21  and  C_22
REMARK                            x       y       z     vdW  Elec       q    Type
REMARK                         _______ _______ _______ _____ _____    ______ ____
ROOT
ATOM      1  N   UNL     1       2.235   6.836  18.657  0.00  0.00    +0.000 NA
ENDROOT
BRANCH   1  11
ATOM      2  C   UNL     1       3.179   1.825  17.943  0.00  0.00    +0.000 A 
ATOM      3  C   UNL     1       4.228   2.721  18.000  0.00  0.00    +0.000 A 
ATOM      4  N   UNL     1       4.143   3.948  18.563  0.00  0.00    +0.000 NA
ATOM      5  C   UNL     1       2.933   4.345  19.043  0.00  0.00    +0.000 A 
ATOM      6  C   UNL     1       1.849   3.457  19.126  0.00  0.00    +0.000 A 
ATOM      7  C   UNL     1       1.980   2.191  18.538  0.00  0.00    +0.000 A 
ATOM      8  C   UNL     1       0.633   3.744  19.966  0.00  0.00    +0.000 C 
ATOM      9  C   UNL     1       0.611   5.133  20.599  0.00  0.00    +0.000 C 
ATOM     10  C   UNL     1       2.029   5.620  20.903  0.00  0.00    +0.000 C 
ATOM     11  C   UNL     1       2.837   5.785  19.582  0.00  0.00    +0.000 C 
ENDBRANCH   1  11
BRANCH   1  12
ATOM     12  C   UNL     1       2.860   6.915  17.296  0.00  0.00    +0.000 C 
BRANCH  12  13
ATOM     13  C   UNL     1       4.358   7.234  17.197  0.00  0.00    +0.000 C 
BRANCH  13  14
ATOM     14  C   UNL     1       5.059   6.565  15.998  0.00  0.00    +0.000 C 
BRANCH  14  15
ATOM     15  N   UNL     1       6.524   6.559  16.166  0.00  0.00    +0.000 NA
ATOM     16  C   UNL     1       6.986   6.864  17.535  0.00  0.00    +0.000 C 
ATOM     17  C   UNL     1       6.950   5.682  18.530  0.00  0.00    +0.000 C 
ATOM     18  N   UNL     1       7.618   4.476  18.024  0.00  0.00    +0.000 NA
ATOM     19  C   UNL     1       7.068   4.128  16.708  0.00  0.00    +0.000 C 
ATOM     20  C   UNL     1       7.148   5.302  15.707  0.00  0.00    +0.000 C 
ATOM     21  H   UNL     1       7.473   3.706  18.674  0.00  0.00    +0.000 HD
ENDBRANCH  14  15
ENDBRANCH  13  14
ENDBRANCH  12  13
ENDBRANCH   1  12
BRANCH   1  22
ATOM     22  C   UNL     1       2.431   8.187  19.291  0.00  0.00    +0.000 C 
BRANCH  22  23
ATOM     23  C   UNL     1       1.239   9.140  19.308  0.00  0.00    +0.000 A 
ATOM     24  C   UNL     1       0.416   9.232  18.186  0.00  0.00    +0.000 A 
ATOM     25  C   UNL     1      -0.754   9.997  18.305  0.00  0.00    +0.000 A 
ATOM     26  C   UNL     1      -1.001  10.648  19.512  0.00  0.00    +0.000 A 
ATOM     27  C   UNL     1      -0.145  10.537  20.595  0.00  0.00    +0.000 A 
ATOM     28  N   UNL     1       0.966   9.771  20.481  0.00  0.00    +0.000 NA
ATOM     29  N   UNL     1      -2.181  11.340  19.360  0.00  0.00    +0.000 N 
ATOM     30  C   UNL     1      -2.725  11.126  18.116  0.00  0.00    +0.000 A 
ATOM     31  C   UNL     1      -3.907  11.611  17.546  0.00  0.00    +0.000 A 
ATOM     32  C   UNL     1      -4.226  11.191  16.255  0.00  0.00    +0.000 A 
ATOM     33  C   UNL     1      -3.384  10.324  15.553  0.00  0.00    +0.000 A 
ATOM     34  C   UNL     1      -2.197   9.866  16.131  0.00  0.00    +0.000 A 
ATOM     35  C   UNL     1      -1.855  10.275  17.435  0.00  0.00    +0.000 A 
ATOM     36  H   UNL     1      -2.604  11.913  20.076  0.00  0.00    +0.000 HD
ENDBRANCH  22  23
ENDBRANCH   1  22
TORSDOF 7
ENDMDL
MODEL 8
REMARK VINA RESULT:      -9.1      2.858      9.303
REMARK  Name = 
REMARK  7 active torsions:
REMARK  status: ('A' for Active; 'I' for Inactive)
REMARK    1  A    between atoms: C_10  and  N_11
REMARK    2  A    between atoms: N_11  and  C_12
REMARK    3  A    between atoms: N_11  and  C_21
REMARK    4  A    between atoms: C_12  and  C_13
REMARK    5  A    between atoms: C_13  and  C_14
REMARK    6  A    between atoms: C_14  and  N_15
REMARK    7  A    between atoms: C_21  and  C_22
REMARK                            x       y       z     vdW  Elec       q    Type
REMARK                         _______ _______ _______ _____ _____    ______ ____
ROOT
ATOM      1  N   UNL     1       0.424   9.770  20.592  0.00  0.00    +0.000 NA
ENDROOT
BRANCH   1  11
ATOM      2  C   UNL     1       0.997  14.532  18.720  0.00  0.00    +0.000 A 
ATOM      3  C   UNL     1       2.102  13.723  18.894  0.00  0.00    +0.000 A 
ATOM      4  N   UNL     1       2.045  12.375  18.989  0.00  0.00    +0.000 NA
ATOM      5  C   UNL     1       0.817  11.788  18.977  0.00  0.00    +0.000 A 
ATOM      6  C   UNL     1      -0.345  12.523  18.692  0.00  0.00    +0.000 A 
ATOM      7  C   UNL     1      -0.241  13.918  18.591  0.00  0.00    +0.000 A 
ATOM      8  C   UNL     1      -1.646  11.864  18.318  0.00  0.00    +0.000 C 
ATOM      9  C   UNL     1      -1.637  10.341  18.416  0.00  0.00    +0.000 C 
ATOM     10  C   UNL     1      -0.245   9.779  18.119  0.00  0.00    +0.000 C 
ATOM     11  C   UNL     1       0.772  10.264  19.194  0.00  0.00    +0.000 C 
ENDBRANCH   1  11
BRANCH   1  12
ATOM     12  C   UNL     1       0.245  10.848  21.619  0.00  0.00    +0.000 C 
BRANCH  12  13
ATOM     13  C   UNL     1      -1.172  11.142  22.130  0.00  0.00    +0.000 C 
BRANCH  13  14
ATOM     14  C   UNL     1      -1.268  12.410  23.004  0.00  0.00    +0.000 C 
BRANCH  14  15
ATOM     15  N   UNL     1      -2.442  13.225  22.642  0.00  0.00    +0.000 NA
ATOM     16  C   UNL     1      -3.743  12.576  22.897  0.00  0.00    +0.000 C 
ATOM     17  C   UNL     1      -4.249  12.644  24.356  0.00  0.00    +0.000 C 
ATOM     18  N   UNL     1      -4.242  14.005  24.910  0.00  0.00    +0.000 NA
ATOM     19  C   UNL     1      -2.908  14.594  24.741  0.00  0.00    +0.000 C 
ATOM     20  C   UNL     1      -2.428  14.560  23.274  0.00  0.00    +0.000 C 
ATOM     21  H   UNL     1      -4.484  13.974  25.898  0.00  0.00    +0.000 HD
ENDBRANCH  14  15
ENDBRANCH  13  14
ENDBRANCH  12  13
ENDBRANCH   1  12
BRANCH   1  22
ATOM     22  C   UNL     1       1.556   8.906  21.081  0.00  0.00    +0.000 C 
BRANCH  22  23
ATOM     23  C   UNL     1       1.814   7.595  20.344  0.00  0.00    +0.000 A 
ATOM     24  C   UNL     1       2.641   7.588  19.220  0.00  0.00    +0.000 A 
ATOM     25  C   UNL     1       2.977   6.341  18.674  0.00  0.00    +0.000 A 
ATOM     26  C   UNL     1       2.437   5.195  19.254  0.00  0.00    +0.000 A 
ATOM     27  C   UNL     1       1.608   5.254  20.363  0.00  0.00    +0.000 A 
ATOM     28  N   UNL     1       1.314   6.460  20.902  0.00  0.00    +0.000 NA
ATOM     29  N   UNL     1       2.896   4.122  18.525  0.00  0.00    +0.000 N 
ATOM     30  C   UNL     1       3.744   4.530  17.522  0.00  0.00    +0.000 A 
ATOM     31  C   UNL     1       4.442   3.786  16.565  0.00  0.00    +0.000 A 
ATOM     32  C   UNL     1       5.269   4.479  15.681  0.00  0.00    +0.000 A 
ATOM     33  C   UNL     1       5.384   5.870  15.745  0.00  0.00    +0.000 A 
ATOM     34  C   UNL     1       4.664   6.598  16.696  0.00  0.00    +0.000 A 
ATOM     35  C   UNL     1       3.823   5.920  17.601  0.00  0.00    +0.000 A 
ATOM     36  H   UNL     1       2.658   3.158  18.713  0.00  0.00    +0.000 HD
ENDBRANCH  22  23
ENDBRANCH   1  22
TORSDOF 7
ENDMDL
MODEL 9
REMARK VINA RESULT:      -9.0      1.371      2.184
REMARK  Name = 
REMARK  7 active torsions:
REMARK  status: ('A' for Active; 'I' for Inactive)
REMARK    1  A    between atoms: C_10  and  N_11
REMARK    2  A    between atoms: N_11  and  C_12
REMARK    3  A    between atoms: N_11  and  C_21
REMARK    4  A    between atoms: C_12  and  C_13
REMARK    5  A    between atoms: C_13  and  C_14
REMARK    6  A    between atoms: C_14  and  N_15
REMARK    7  A    between atoms: C_21  and  C_22
REMARK                            x       y       z     vdW  Elec       q    Type
REMARK                         _______ _______ _______ _____ _____    ______ ____
ROOT
ATOM      1  N   UNL     1       4.541   6.637  18.225  0.00  0.00    +0.000 NA
ENDROOT
BRANCH   1  11
ATOM      2  C   UNL     1       6.215   3.831  14.247  0.00  0.00    +0.000 A 
ATOM      3  C   UNL     1       5.474   4.973  14.019  0.00  0.00    +0.000 A 
ATOM      4  N   UNL     1       5.329   5.971  14.920  0.00  0.00    +0.000 NA
ATOM      5  C   UNL     1       5.895   5.808  16.148  0.00  0.00    +0.000 A 
ATOM      6  C   UNL     1       6.755   4.733  16.422  0.00  0.00    +0.000 A 
ATOM      7  C   UNL     1       6.886   3.724  15.457  0.00  0.00    +0.000 A 
ATOM      8  C   UNL     1       7.667   4.714  17.619  0.00  0.00    +0.000 C 
ATOM      9  C   UNL     1       7.475   5.883  18.583  0.00  0.00    +0.000 C 
ATOM     10  C   UNL     1       7.023   7.140  17.837  0.00  0.00    +0.000 C 
ATOM     11  C   UNL     1       5.625   6.910  17.190  0.00  0.00    +0.000 C 
ENDBRANCH   1  11
BRANCH   1  12
ATOM     12  C   UNL     1       4.225   5.188  18.448  0.00  0.00    +0.000 C 
BRANCH  12  13
ATOM     13  C   UNL     1       3.195   4.516  17.532  0.00  0.00    +0.000 C 
BRANCH  13  14
ATOM     14  C   UNL     1       1.808   4.334  18.182  0.00  0.00    +0.000 C 
BRANCH  14  15
ATOM     15  N   UNL     1       1.623   2.957  18.678  0.00  0.00    +0.000 NA
ATOM     16  C   UNL     1       2.877   2.240  18.982  0.00  0.00    +0.000 C 
ATOM     17  C   UNL     1       3.515   2.560  20.352  0.00  0.00    +0.000 C 
ATOM     18  N   UNL     1       2.574   2.436  21.473  0.00  0.00    +0.000 NA
ATOM     19  C   UNL     1       1.378   3.243  21.199  0.00  0.00    +0.000 C 
ATOM     20  C   UNL     1       0.723   2.887  19.847  0.00  0.00    +0.000 C 
ATOM     21  H   UNL     1       3.018   2.757  22.331  0.00  0.00    +0.000 HD
ENDBRANCH  14  15
ENDBRANCH  13  14
ENDBRANCH  12  13
ENDBRANCH   1  12
BRANCH   1  22
ATOM     22  C   UNL     1       3.265   7.278  17.748  0.00  0.00    +0.000 C 
BRANCH  22  23
ATOM     23  C   UNL     1       2.412   8.011  18.779  0.00  0.00    +0.000 A 
ATOM     24  C   UNL     1       1.795   9.213  18.432  0.00  0.00    +0.000 A 
ATOM     25  C   UNL     1       0.895   9.766  19.355  0.00  0.00    +0.000 A 
ATOM     26  C   UNL     1       0.704   9.112  20.570  0.00  0.00    +0.000 A 
ATOM     27  C   UNL     1       1.352   7.926  20.875  0.00  0.00    +0.000 A 
ATOM     28  N   UNL     1       2.195   7.383  19.966  0.00  0.00    +0.000 NA
ATOM     29  N   UNL     1      -0.194   9.863  21.294  0.00  0.00    +0.000 N 
ATOM     30  C   UNL     1      -0.621  10.955  20.574  0.00  0.00    +0.000 A 
ATOM     31  C   UNL     1      -1.530  11.963  20.910  0.00  0.00    +0.000 A 
ATOM     32  C   UNL     1      -1.798  12.940  19.951  0.00  0.00    +0.000 A 
ATOM     33  C   UNL     1      -1.168  12.916  18.704  0.00  0.00    +0.000 A 
ATOM     34  C   UNL     1      -0.247  11.911  18.395  0.00  0.00    +0.000 A 
ATOM     35  C   UNL     1       0.038  10.912  19.347  0.00  0.00    +0.000 A 
ATOM     36  H   UNL     1      -0.515   9.632  22.224  0.00  0.00    +0.000 HD
ENDBRANCH  22  23
ENDBRANCH   1  22
TORSDOF 7
ENDMDL
