MODEL 1
REMARK VINA RESULT:      -8.4      0.000      0.000
REMARK  Name = 
REMARK  10 active torsions:
REMARK  status: ('A' for Active; 'I' for Inactive)
REMARK    1  A    between atoms: C_1  and  C_2
REMARK    2  A    between atoms: C_2  and  O_3
REMARK    3  A    between atoms: O_3  and  C_4
REMARK    4  A    between atoms: C_4  and  C_6
REMARK    5  A    between atoms: C_10  and  C_11
REMARK    6  A    between atoms: C_12  and  C_13
REMARK    7  A    between atoms: C_13  and  O_14
REMARK    8  A    between atoms: O_14  and  C_15
REMARK    9  A    between atoms: C_15  and  C_16
REMARK   10  A    between atoms: C_15  and  C_21
REMARK                            x       y       z     vdW  Elec       q    Type
REMARK                         _______ _______ _______ _____ _____    ______ ____
ROOT
ATOM      1  C   UNL     1       3.133   7.471  17.854  0.00  0.00    +0.000 C 
ATOM      2  C   UNL     1       2.452   8.580  17.935  0.00  0.00    +0.000 C 
ENDROOT
BRANCH   1   7
ATOM      3  C   UNL     1       3.254   4.961  17.985  0.00  0.00    +0.000 A 
ATOM      4  S   UNL     1       4.434   3.685  17.853  0.00  0.00    +0.000 S 
ATOM      5  C   UNL     1       5.640   4.789  17.547  0.00  0.00    +0.000 A 
ATOM      6  C   UNL     1       5.228   6.092  17.560  0.00  0.00    +0.000 A 
ATOM      7  C   UNL     1       3.838   6.219  17.806  0.00  0.00    +0.000 A 
ATOM      8  C   UNL     1       6.371   7.004  17.299  0.00  0.00    +0.000 C 
ATOM      9  C   UNL     1       7.470   6.025  16.773  0.00  0.00    +0.000 C 
ATOM     10  C   UNL     1       7.081   4.600  17.268  0.00  0.00    +0.000 C 
BRANCH   3  11
ATOM     11  C   UNL     1       1.878   4.549  18.198  0.00  0.00    +0.000 C 
ATOM     12  O   UNL     1       1.104   4.146  17.338  0.00  0.00    +0.000 OA
BRANCH  11  13
ATOM     13  O   UNL     1       1.511   4.774  19.492  0.00  0.00    +0.000 OA
BRANCH  13  15
ATOM     14  C   UNL     1       1.977   2.835  20.798  0.00  0.00    +0.000 C 
ATOM     15  C   UNL     1       0.885   3.668  20.150  0.00  0.00    +0.000 C 
ENDBRANCH  13  15
ENDBRANCH  11  13
ENDBRANCH   3  11
ENDBRANCH   1   7
BRANCH   2  16
ATOM     16  C   UNL     1       1.659   9.873  18.030  0.00  0.00    +0.000 C 
BRANCH  16  17
ATOM     17  O   UNL     1       0.277   9.597  18.245  0.00  0.00    +0.000 OA
BRANCH  17  18
ATOM     18  C   UNL     1      -0.363  10.640  19.016  0.00  0.00    +0.000 C 
BRANCH  18  19
ATOM     19  C   UNL     1      -0.285  10.313  20.493  0.00  0.00    +0.000 A 
ATOM     20  C   UNL     1      -0.443   9.001  20.967  0.00  0.00    +0.000 A 
ATOM     21  C   UNL     1      -0.420   8.736  22.334  0.00  0.00    +0.000 A 
ATOM     22  C   UNL     1      -0.242   9.799  23.203  0.00  0.00    +0.000 A 
ATOM     23  N   UNL     1      -0.082  11.073  22.797  0.00  0.00    +0.000 NA
ATOM     24  C   UNL     1      -0.112  11.300  21.462  0.00  0.00    +0.000 A 
ATOM     25 CL   UNL     1       0.109  12.966  21.086  0.00  0.00    +0.000 Cl
ENDBRANCH  18  19
BRANCH  18  26
ATOM     26  C   UNL     1      -1.794  10.732  18.537  0.00  0.00    +0.000 A 
ATOM     27  C   UNL     1      -2.447   9.931  17.617  0.00  0.00    +0.000 A 
ATOM     28  C   UNL     1      -3.763  10.392  17.333  0.00  0.00    +0.000 A 
ATOM     29  C   UNL     1      -4.081  11.520  18.053  0.00  0.00    +0.000 A 
ATOM     30  S   UNL     1      -2.801  12.016  19.070  0.00  0.00    +0.000 S 
ENDBRANCH  18  26
ENDBRANCH  17  18
ENDBRANCH  16  17
ENDBRANCH   2  16
TORSDOF 9
ENDMDL
MODEL 2
REMARK VINA RESULT:      -8.3      1.795      3.364
REMARK  Name = 
REMARK  10 active torsions:
REMARK  status: ('A' for Active; 'I' for Inactive)
REMARK    1  A    between atoms: C_1  and  C_2
REMARK    2  A    between atoms: C_2  and  O_3
REMARK    3  A    between atoms: O_3  and  C_4
REMARK    4  A    between atoms: C_4  and  C_6
REMARK    5  A    between atoms: C_10  and  C_11
REMARK    6  A    between atoms: C_12  and  C_13
REMARK    7  A    between atoms: C_13  and  O_14
REMARK    8  A    between atoms: O_14  and  C_15
REMARK    9  A    between atoms: C_15  and  C_16
REMARK   10  A    between atoms: C_15  and  C_21
REMARK                            x       y       z     vdW  Elec       q    Type
REMARK                         _______ _______ _______ _____ _____    ______ ____
ROOT
ATOM      1  C   UNL     1       2.823   7.107  17.860  0.00  0.00    +0.000 C 
ATOM      2  C   UNL     1       2.322   8.301  18.013  0.00  0.00    +0.000 C 
ENDROOT
BRANCH   1   7
ATOM      3  C   UNL     1       4.537   5.502  16.955  0.00  0.00    +0.000 A 
ATOM      4  S   UNL     1       4.835   3.787  16.882  0.00  0.00    +0.000 S 
ATOM      5  C   UNL     1       3.443   3.477  17.739  0.00  0.00    +0.000 A 
ATOM      6  C   UNL     1       2.725   4.592  18.070  0.00  0.00    +0.000 A 
ATOM      7  C   UNL     1       3.347   5.787  17.631  0.00  0.00    +0.000 A 
ATOM      8  C   UNL     1       1.493   4.219  18.812  0.00  0.00    +0.000 C 
ATOM      9  C   UNL     1       1.765   2.726  19.186  0.00  0.00    +0.000 C 
ATOM     10  C   UNL     1       2.850   2.202  18.198  0.00  0.00    +0.000 C 
BRANCH   3  11
ATOM     11  C   UNL     1       5.556   6.360  16.376  0.00  0.00    +0.000 C 
ATOM     12  O   UNL     1       5.979   6.304  15.226  0.00  0.00    +0.000 OA
BRANCH  11  13
ATOM     13  O   UNL     1       6.075   7.189  17.326  0.00  0.00    +0.000 OA
BRANCH  13  15
ATOM     14  C   UNL     1       7.708   6.082  18.663  0.00  0.00    +0.000 C 
ATOM     15  C   UNL     1       7.486   7.072  17.533  0.00  0.00    +0.000 C 
ENDBRANCH  13  15
ENDBRANCH  11  13
ENDBRANCH   3  11
ENDBRANCH   1   7
BRANCH   2  16
ATOM     16  C   UNL     1       1.736   9.692  18.191  0.00  0.00    +0.000 C 
BRANCH  16  17
ATOM     17  O   UNL     1       0.314   9.632  18.250  0.00  0.00    +0.000 OA
BRANCH  17  18
ATOM     18  C   UNL     1      -0.236  10.733  19.009  0.00  0.00    +0.000 C 
BRANCH  18  19
ATOM     19  C   UNL     1      -0.234  10.395  20.486  0.00  0.00    +0.000 A 
ATOM     20  C   UNL     1      -0.383   9.076  20.941  0.00  0.00    +0.000 A 
ATOM     21  C   UNL     1      -0.430   8.800  22.306  0.00  0.00    +0.000 A 
ATOM     22  C   UNL     1      -0.330   9.860  23.191  0.00  0.00    +0.000 A 
ATOM     23  N   UNL     1      -0.182  11.141  22.803  0.00  0.00    +0.000 NA
ATOM     24  C   UNL     1      -0.142  11.379  21.470  0.00  0.00    +0.000 A 
ATOM     25 CL   UNL     1       0.055  13.053  21.120  0.00  0.00    +0.000 Cl
ENDBRANCH  18  19
BRANCH  18  26
ATOM     26  C   UNL     1      -1.637  10.974  18.493  0.00  0.00    +0.000 A 
ATOM     27  C   UNL     1      -2.611  11.812  19.006  0.00  0.00    +0.000 A 
ATOM     28  C   UNL     1      -3.850  11.691  18.317  0.00  0.00    +0.000 A 
ATOM     29  C   UNL     1      -3.783  10.777  17.291  0.00  0.00    +0.000 A 
ATOM     30  S   UNL     1      -2.231  10.074  17.158  0.00  0.00    +0.000 S 
ENDBRANCH  18  26
ENDBRANCH  17  18
ENDBRANCH  16  17
ENDBRANCH   2  16
TORSDOF 9
ENDMDL
MODEL 3
REMARK VINA RESULT:      -8.3      1.127      1.334
REMARK  Name = 
REMARK  10 active torsions:
REMARK  status: ('A' for Active; 'I' for Inactive)
REMARK    1  A    between atoms: C_1  and  C_2
REMARK    2  A    between atoms: C_2  and  O_3
REMARK    3  A    between atoms: O_3  and  C_4
REMARK    4  A    between atoms: C_4  and  C_6
REMARK    5  A    between atoms: C_10  and  C_11
REMARK    6  A    between atoms: C_12  and  C_13
REMARK    7  A    between atoms: C_13  and  O_14
REMARK    8  A    between atoms: O_14  and  C_15
REMARK    9  A    between atoms: C_15  and  C_16
REMARK   10  A    between atoms: C_15  and  C_21
REMARK                            x       y       z     vdW  Elec       q    Type
REMARK                         _______ _______ _______ _____ _____    ______ ____
ROOT
ATOM      1  C   UNL     1       2.816   7.414  17.925  0.00  0.00    +0.000 C 
ATOM      2  C   UNL     1       2.292   8.605  18.013  0.00  0.00    +0.000 C 
ENDROOT
BRANCH   1   7
ATOM      3  C   UNL     1       3.129   5.043  18.708  0.00  0.00    +0.000 A 
ATOM      4  S   UNL     1       4.101   3.645  18.336  0.00  0.00    +0.000 S 
ATOM      5  C   UNL     1       4.866   4.464  17.107  0.00  0.00    +0.000 A 
ATOM      6  C   UNL     1       4.460   5.760  16.956  0.00  0.00    +0.000 A 
ATOM      7  C   UNL     1       3.442   6.120  17.873  0.00  0.00    +0.000 A 
ATOM      8  C   UNL     1       5.208   6.417  15.853  0.00  0.00    +0.000 C 
ATOM      9  C   UNL     1       5.876   5.203  15.130  0.00  0.00    +0.000 C 
ATOM     10  C   UNL     1       5.911   4.029  16.154  0.00  0.00    +0.000 C 
BRANCH   3  11
ATOM     11  C   UNL     1       2.134   4.879  19.753  0.00  0.00    +0.000 C 
ATOM     12  O   UNL     1       1.858   5.698  20.622  0.00  0.00    +0.000 OA
BRANCH  11  13
ATOM     13  O   UNL     1       1.606   3.622  19.711  0.00  0.00    +0.000 OA
BRANCH  13  15
ATOM     14  C   UNL     1       2.445   2.563  21.674  0.00  0.00    +0.000 C 
ATOM     15  C   UNL     1       1.203   3.087  20.975  0.00  0.00    +0.000 C 
ENDBRANCH  13  15
ENDBRANCH  11  13
ENDBRANCH   3  11
ENDBRANCH   1   7
BRANCH   2  16
ATOM     16  C   UNL     1       1.683   9.994  18.114  0.00  0.00    +0.000 C 
BRANCH  16  17
ATOM     17  O   UNL     1       0.261   9.913  18.155  0.00  0.00    +0.000 OA
BRANCH  17  18
ATOM     18  C   UNL     1      -0.308  10.940  18.999  0.00  0.00    +0.000 C 
BRANCH  18  19
ATOM     19  C   UNL     1      -0.259  10.503  20.449  0.00  0.00    +0.000 A 
ATOM     20  C   UNL     1      -0.364   9.153  20.816  0.00  0.00    +0.000 A 
ATOM     21  C   UNL     1      -0.369   8.784  22.159  0.00  0.00    +0.000 A 
ATOM     22  C   UNL     1      -0.271   9.783  23.112  0.00  0.00    +0.000 A 
ATOM     23  N   UNL     1      -0.164  11.091  22.810  0.00  0.00    +0.000 NA
ATOM     24  C   UNL     1      -0.165  11.420  21.496  0.00  0.00    +0.000 A 
ATOM     25 CL   UNL     1      -0.018  13.118  21.256  0.00  0.00    +0.000 Cl
ENDBRANCH  18  19
BRANCH  18  26
ATOM     26  C   UNL     1      -1.728  11.165  18.531  0.00  0.00    +0.000 A 
ATOM     27  C   UNL     1      -2.736  11.882  19.153  0.00  0.00    +0.000 A 
ATOM     28  C   UNL     1      -3.979  11.778  18.467  0.00  0.00    +0.000 A 
ATOM     29  C   UNL     1      -3.881  10.999  17.337  0.00  0.00    +0.000 A 
ATOM     30  S   UNL     1      -2.298  10.401  17.103  0.00  0.00    +0.000 S 
ENDBRANCH  18  26
ENDBRANCH  17  18
ENDBRANCH  16  17
ENDBRANCH   2  16
TORSDOF 9
ENDMDL
MODEL 4
REMARK VINA RESULT:      -8.3      3.085      8.407
REMARK  Name = 
REMARK  10 active torsions:
REMARK  status: ('A' for Active; 'I' for Inactive)
REMARK    1  A    between atoms: C_1  and  C_2
REMARK    2  A    between atoms: C_2  and  O_3
REMARK    3  A    between atoms: O_3  and  C_4
REMARK    4  A    between atoms: C_4  and  C_6
REMARK    5  A    between atoms: C_10  and  C_11
REMARK    6  A    between atoms: C_12  and  C_13
REMARK    7  A    between atoms: C_13  and  O_14
REMARK    8  A    between atoms: O_14  and  C_15
REMARK    9  A    between atoms: C_15  and  C_16
REMARK   10  A    between atoms: C_15  and  C_21
REMARK                            x       y       z     vdW  Elec       q    Type
REMARK                         _______ _______ _______ _____ _____    ______ ____
ROOT
ATOM      1  C   UNL     1       0.644   9.573  18.317  0.00  0.00    +0.000 C 
ATOM      2  C   UNL     1       1.676   8.811  18.084  0.00  0.00    +0.000 C 
ENDROOT
BRANCH   1   7
ATOM      3  C   UNL     1      -0.638  11.156  19.794  0.00  0.00    +0.000 A 
ATOM      4  S   UNL     1      -2.162  12.001  19.818  0.00  0.00    +0.000 S 
ATOM      5  C   UNL     1      -2.573  11.367  18.336  0.00  0.00    +0.000 A 
ATOM      6  C   UNL     1      -1.641  10.519  17.808  0.00  0.00    +0.000 A 
ATOM      7  C   UNL     1      -0.499  10.385  18.636  0.00  0.00    +0.000 A 
ATOM      8  C   UNL     1      -2.100   9.987  16.499  0.00  0.00    +0.000 C 
ATOM      9  C   UNL     1      -3.300  10.928  16.156  0.00  0.00    +0.000 C 
ATOM     10  C   UNL     1      -3.776  11.563  17.497  0.00  0.00    +0.000 C 
BRANCH   3  11
ATOM     11  C   UNL     1       0.258  11.408  20.908  0.00  0.00    +0.000 C 
ATOM     12  O   UNL     1       1.340  11.983  20.850  0.00  0.00    +0.000 OA
BRANCH  11  13
ATOM     13  O   UNL     1      -0.216  10.815  22.041  0.00  0.00    +0.000 OA
BRANCH  13  15
ATOM     14  C   UNL     1      -0.263   8.443  21.818  0.00  0.00    +0.000 C 
ATOM     15  C   UNL     1       0.467   9.622  22.437  0.00  0.00    +0.000 C 
ENDBRANCH  13  15
ENDBRANCH  11  13
ENDBRANCH   3  11
ENDBRANCH   1   7
BRANCH   2  16
ATOM     16  C   UNL     1       2.879   7.921  17.813  0.00  0.00    +0.000 C 
BRANCH  16  17
ATOM     17  O   UNL     1       2.982   6.904  18.805  0.00  0.00    +0.000 OA
BRANCH  17  18
ATOM     18  C   UNL     1       3.019   5.584  18.215  0.00  0.00    +0.000 C 
BRANCH  18  19
ATOM     19  C   UNL     1       2.537   4.556  19.218  0.00  0.00    +0.000 A 
ATOM     20  C   UNL     1       2.367   4.872  20.575  0.00  0.00    +0.000 A 
ATOM     21  C   UNL     1       1.973   3.894  21.485  0.00  0.00    +0.000 A 
ATOM     22  C   UNL     1       1.759   2.610  21.013  0.00  0.00    +0.000 A 
ATOM     23  N   UNL     1       1.905   2.259  19.721  0.00  0.00    +0.000 NA
ATOM     24  C   UNL     1       2.292   3.231  18.860  0.00  0.00    +0.000 A 
ATOM     25 CL   UNL     1       2.434   2.644  17.248  0.00  0.00    +0.000 Cl
ENDBRANCH  18  19
BRANCH  18  26
ATOM     26  C   UNL     1       4.447   5.325  17.792  0.00  0.00    +0.000 A 
ATOM     27  C   UNL     1       4.940   5.101  16.519  0.00  0.00    +0.000 A 
ATOM     28  C   UNL     1       6.327   4.782  16.521  0.00  0.00    +0.000 A 
ATOM     29  C   UNL     1       6.855   4.785  17.793  0.00  0.00    +0.000 A 
ATOM     30  S   UNL     1       5.684   5.177  18.973  0.00  0.00    +0.000 S 
ENDBRANCH  18  26
ENDBRANCH  17  18
ENDBRANCH  16  17
ENDBRANCH   2  16
TORSDOF 9
ENDMDL
MODEL 5
REMARK VINA RESULT:      -8.3      0.986      1.222
REMARK  Name = 
REMARK  10 active torsions:
REMARK  status: ('A' for Active; 'I' for Inactive)
REMARK    1  A    between atoms: C_1  and  C_2
REMARK    2  A    between atoms: C_2  and  O_3
REMARK    3  A    between atoms: O_3  and  C_4
REMARK    4  A    between atoms: C_4  and  C_6
REMARK    5  A    between atoms: C_10  and  C_11
REMARK    6  A    between atoms: C_12  and  C_13
REMARK    7  A    between atoms: C_13  and  O_14
REMARK    8  A    between atoms: O_14  and  C_15
REMARK    9  A    between atoms: C_15  and  C_16
REMARK   10  A    between atoms: C_15  and  C_21
REMARK                            x       y       z     vdW  Elec       q    Type
REMARK                         _______ _______ _______ _____ _____    ______ ____
ROOT
ATOM      1  C   UNL     1       3.002   7.314  17.981  0.00  0.00    +0.000 C 
ATOM      2  C   UNL     1       2.424   8.483  18.023  0.00  0.00    +0.000 C 
ENDROOT
BRANCH   1   7
ATOM      3  C   UNL     1       3.389   4.940  18.718  0.00  0.00    +0.000 A 
ATOM      4  S   UNL     1       4.333   3.549  18.257  0.00  0.00    +0.000 S 
ATOM      5  C   UNL     1       4.990   4.381  16.975  0.00  0.00    +0.000 A 
ATOM      6  C   UNL     1       4.567   5.676  16.868  0.00  0.00    +0.000 A 
ATOM      7  C   UNL     1       3.627   6.024  17.868  0.00  0.00    +0.000 A 
ATOM      8  C   UNL     1       5.219   6.344  15.711  0.00  0.00    +0.000 C 
ATOM      9  C   UNL     1       5.830   5.138  14.927  0.00  0.00    +0.000 C 
ATOM     10  C   UNL     1       5.954   3.958  15.936  0.00  0.00    +0.000 C 
BRANCH   3  11
ATOM     11  C   UNL     1       2.484   4.763  19.840  0.00  0.00    +0.000 C 
ATOM     12  O   UNL     1       2.781   4.844  21.027  0.00  0.00    +0.000 OA
BRANCH  11  13
ATOM     13  O   UNL     1       1.252   4.379  19.400  0.00  0.00    +0.000 OA
BRANCH  13  15
ATOM     14  C   UNL     1       0.773   2.141  18.736  0.00  0.00    +0.000 C 
ATOM     15  C   UNL     1       0.791   3.119  19.897  0.00  0.00    +0.000 C 
ENDBRANCH  13  15
ENDBRANCH  11  13
ENDBRANCH   3  11
ENDBRANCH   1   7
BRANCH   2  16
ATOM     16  C   UNL     1       1.749   9.844  18.071  0.00  0.00    +0.000 C 
BRANCH  16  17
ATOM     17  O   UNL     1       0.331   9.699  18.063  0.00  0.00    +0.000 OA
BRANCH  17  18
ATOM     18  C   UNL     1      -0.312  10.698  18.888  0.00  0.00    +0.000 C 
BRANCH  18  19
ATOM     19  C   UNL     1      -0.197  10.313  20.349  0.00  0.00    +0.000 A 
ATOM     20  C   UNL     1      -0.388   8.992  20.782  0.00  0.00    +0.000 A 
ATOM     21  C   UNL     1      -0.328   8.676  22.137  0.00  0.00    +0.000 A 
ATOM     22  C   UNL     1      -0.079   9.699  23.036  0.00  0.00    +0.000 A 
ATOM     23  N   UNL     1       0.115  10.980  22.670  0.00  0.00    +0.000 NA
ATOM     24  C   UNL     1       0.048  11.257  21.346  0.00  0.00    +0.000 A 
ATOM     25 CL   UNL     1       0.319  12.926  21.022  0.00  0.00    +0.000 Cl
ENDBRANCH  18  19
BRANCH  18  26
ATOM     26  C   UNL     1      -1.755  10.780  18.444  0.00  0.00    +0.000 A 
ATOM     27  C   UNL     1      -2.408  10.012  17.496  0.00  0.00    +0.000 A 
ATOM     28  C   UNL     1      -3.741  10.454  17.263  0.00  0.00    +0.000 A 
ATOM     29  C   UNL     1      -4.070  11.535  18.048  0.00  0.00    +0.000 A 
ATOM     30  S   UNL     1      -2.781  12.009  19.063  0.00  0.00    +0.000 S 
ENDBRANCH  18  26
ENDBRANCH  17  18
ENDBRANCH  16  17
ENDBRANCH   2  16
TORSDOF 9
ENDMDL
MODEL 6
REMARK VINA RESULT:      -8.2      1.597      3.381
REMARK  Name = 
REMARK  10 active torsions:
REMARK  status: ('A' for Active; 'I' for Inactive)
REMARK    1  A    between atoms: C_1  and  C_2
REMARK    2  A    between atoms: C_2  and  O_3
REMARK    3  A    between atoms: O_3  and  C_4
REMARK    4  A    between atoms: C_4  and  C_6
REMARK    5  A    between atoms: C_10  and  C_11
REMARK    6  A    between atoms: C_12  and  C_13
REMARK    7  A    between atoms: C_13  and  O_14
REMARK    8  A    between atoms: O_14  and  C_15
REMARK    9  A    between atoms: C_15  and  C_16
REMARK   10  A    between atoms: C_15  and  C_21
REMARK                            x       y       z     vdW  Elec       q    Type
REMARK                         _______ _______ _______ _____ _____    ______ ____
ROOT
ATOM      1  C   UNL     1       2.755   7.100  18.564  0.00  0.00    +0.000 C 
ATOM      2  C   UNL     1       2.251   8.281  18.335  0.00  0.00    +0.000 C 
ENDROOT
BRANCH   1   7
ATOM      3  C   UNL     1       4.406   5.222  18.287  0.00  0.00    +0.000 A 
ATOM      4  S   UNL     1       4.674   3.600  18.864  0.00  0.00    +0.000 S 
ATOM      5  C   UNL     1       3.313   3.681  19.817  0.00  0.00    +0.000 A 
ATOM      6  C   UNL     1       2.626   4.859  19.720  0.00  0.00    +0.000 A 
ATOM      7  C   UNL     1       3.248   5.778  18.839  0.00  0.00    +0.000 A 
ATOM      8  C   UNL     1       1.419   4.833  20.586  0.00  0.00    +0.000 C 
ATOM      9  C   UNL     1       1.683   3.587  21.492  0.00  0.00    +0.000 C 
ATOM     10  C   UNL     1       2.719   2.695  20.746  0.00  0.00    +0.000 C 
BRANCH   3  11
ATOM     11  C   UNL     1       5.414   5.764  17.393  0.00  0.00    +0.000 C 
ATOM     12  O   UNL     1       6.467   6.295  17.729  0.00  0.00    +0.000 OA
BRANCH  11  13
ATOM     13  O   UNL     1       4.985   5.704  16.100  0.00  0.00    +0.000 OA
BRANCH  13  15
ATOM     14  C   UNL     1       6.063   3.797  15.163  0.00  0.00    +0.000 C 
ATOM     15  C   UNL     1       5.975   5.312  15.145  0.00  0.00    +0.000 C 
ENDBRANCH  13  15
ENDBRANCH  11  13
ENDBRANCH   3  11
ENDBRANCH   1   7
BRANCH   2  16
ATOM     16  C   UNL     1       1.664   9.657  18.068  0.00  0.00    +0.000 C 
BRANCH  16  17
ATOM     17  O   UNL     1       0.241   9.596  18.040  0.00  0.00    +0.000 OA
BRANCH  17  18
ATOM     18  C   UNL     1      -0.354  10.620  18.871  0.00  0.00    +0.000 C 
BRANCH  18  19
ATOM     19  C   UNL     1      -0.212  10.246  20.332  0.00  0.00    +0.000 A 
ATOM     20  C   UNL     1      -0.475   8.946  20.790  0.00  0.00    +0.000 A 
ATOM     21  C   UNL     1      -0.388   8.643  22.147  0.00  0.00    +0.000 A 
ATOM     22  C   UNL     1      -0.039   9.658  23.022  0.00  0.00    +0.000 A 
ATOM     23  N   UNL     1       0.226  10.919  22.631  0.00  0.00    +0.000 NA
ATOM     24  C   UNL     1       0.131  11.184  21.306  0.00  0.00    +0.000 A 
ATOM     25 CL   UNL     1       0.500  12.827  20.949  0.00  0.00    +0.000 Cl
ENDBRANCH  18  19
BRANCH  18  26
ATOM     26  C   UNL     1      -1.805  10.737  18.462  0.00  0.00    +0.000 A 
ATOM     27  C   UNL     1      -2.483  10.033  17.483  0.00  0.00    +0.000 A 
ATOM     28  C   UNL     1      -3.816  10.497  17.304  0.00  0.00    +0.000 A 
ATOM     29  C   UNL     1      -4.122  11.529  18.161  0.00  0.00    +0.000 A 
ATOM     30  S   UNL     1      -2.809  11.932  19.177  0.00  0.00    +0.000 S 
ENDBRANCH  18  26
ENDBRANCH  17  18
ENDBRANCH  16  17
ENDBRANCH   2  16
TORSDOF 9
ENDMDL
MODEL 7
REMARK VINA RESULT:      -8.2      3.235      8.707
REMARK  Name = 
REMARK  10 active torsions:
REMARK  status: ('A' for Active; 'I' for Inactive)
REMARK    1  A    between atoms: C_1  and  C_2
REMARK    2  A    between atoms: C_2  and  O_3
REMARK    3  A    between atoms: O_3  and  C_4
REMARK    4  A    between atoms: C_4  and  C_6
REMARK    5  A    between atoms: C_10  and  C_11
REMARK    6  A    between atoms: C_12  and  C_13
REMARK    7  A    between atoms: C_13  and  O_14
REMARK    8  A    between atoms: O_14  and  C_15
REMARK    9  A    between atoms: C_15  and  C_16
REMARK   10  A    between atoms: C_15  and  C_21
REMARK                            x       y       z     vdW  Elec       q    Type
REMARK                         _______ _______ _______ _____ _____    ______ ____
ROOT
ATOM      1  C   UNL     1       0.774   9.611  18.319  0.00  0.00    +0.000 C 
ATOM      2  C   UNL     1       1.759   8.807  18.029  0.00  0.00    +0.000 C 
ENDROOT
BRANCH   1   7
ATOM      3  C   UNL     1      -0.419  11.348  19.695  0.00  0.00    +0.000 A 
ATOM      4  S   UNL     1      -1.952  12.176  19.740  0.00  0.00    +0.000 S 
ATOM      5  C   UNL     1      -2.466  11.364  18.382  0.00  0.00    +0.000 A 
ATOM      6  C   UNL     1      -1.562  10.467  17.885  0.00  0.00    +0.000 A 
ATOM      7  C   UNL     1      -0.356  10.444  18.630  0.00  0.00    +0.000 A 
ATOM      8  C   UNL     1      -2.112   9.778  16.690  0.00  0.00    +0.000 C 
ATOM      9  C   UNL     1      -3.352  10.660  16.334  0.00  0.00    +0.000 C 
ATOM     10  C   UNL     1      -3.733  11.446  17.624  0.00  0.00    +0.000 C 
BRANCH   3  11
ATOM     11  C   UNL     1       0.557  11.740  20.696  0.00  0.00    +0.000 C 
ATOM     12  O   UNL     1       0.366  11.799  21.906  0.00  0.00    +0.000 OA
BRANCH  11  13
ATOM     13  O   UNL     1       1.712  12.149  20.099  0.00  0.00    +0.000 OA
BRANCH  13  15
ATOM     14  C   UNL     1       2.428  13.171  18.069  0.00  0.00    +0.000 C 
ATOM     15  C   UNL     1       1.611  13.354  19.336  0.00  0.00    +0.000 C 
ENDBRANCH  13  15
ENDBRANCH  11  13
ENDBRANCH   3  11
ENDBRANCH   1   7
BRANCH   2  16
ATOM     16  C   UNL     1       2.907   7.871  17.690  0.00  0.00    +0.000 C 
BRANCH  16  17
ATOM     17  O   UNL     1       3.062   6.882  18.704  0.00  0.00    +0.000 OA
BRANCH  17  18
ATOM     18  C   UNL     1       3.096   5.547  18.148  0.00  0.00    +0.000 C 
BRANCH  18  19
ATOM     19  C   UNL     1       2.591   4.549  19.169  0.00  0.00    +0.000 A 
ATOM     20  C   UNL     1       2.400   4.902  20.514  0.00  0.00    +0.000 A 
ATOM     21  C   UNL     1       1.985   3.950  21.443  0.00  0.00    +0.000 A 
ATOM     22  C   UNL     1       1.771   2.656  21.001  0.00  0.00    +0.000 A 
ATOM     23  N   UNL     1       1.935   2.270  19.721  0.00  0.00    +0.000 NA
ATOM     24  C   UNL     1       2.343   3.216  18.842  0.00  0.00    +0.000 A 
ATOM     25 CL   UNL     1       2.507   2.587  17.248  0.00  0.00    +0.000 Cl
ENDBRANCH  18  19
BRANCH  18  26
ATOM     26  C   UNL     1       4.528   5.266  17.753  0.00  0.00    +0.000 A 
ATOM     27  C   UNL     1       5.036   4.994  16.494  0.00  0.00    +0.000 A 
ATOM     28  C   UNL     1       6.420   4.668  16.526  0.00  0.00    +0.000 A 
ATOM     29  C   UNL     1       6.932   4.714  17.803  0.00  0.00    +0.000 A 
ATOM     30  S   UNL     1       5.749   5.154  18.954  0.00  0.00    +0.000 S 
ENDBRANCH  18  26
ENDBRANCH  17  18
ENDBRANCH  16  17
ENDBRANCH   2  16
TORSDOF 9
ENDMDL
MODEL 8
REMARK VINA RESULT:      -8.1      1.528      3.349
REMARK  Name = 
REMARK  10 active torsions:
REMARK  status: ('A' for Active; 'I' for Inactive)
REMARK    1  A    between atoms: C_1  and  C_2
REMARK    2  A    between atoms: C_2  and  O_3
REMARK    3  A    between atoms: O_3  and  C_4
REMARK    4  A    between atoms: C_4  and  C_6
REMARK    5  A    between atoms: C_10  and  C_11
REMARK    6  A    between atoms: C_12  and  C_13
REMARK    7  A    between atoms: C_13  and  O_14
REMARK    8  A    between atoms: O_14  and  C_15
REMARK    9  A    between atoms: C_15  and  C_16
REMARK   10  A    between atoms: C_15  and  C_21
REMARK                            x       y       z     vdW  Elec       q    Type
REMARK                         _______ _______ _______ _____ _____    ______ ____
ROOT
ATOM      1  C   UNL     1       2.569   6.898  18.198  0.00  0.00    +0.000 C 
ATOM      2  C   UNL     1       2.206   8.150  18.213  0.00  0.00    +0.000 C 
ENDROOT
BRANCH   1   7
ATOM      3  C   UNL     1       4.170   5.088  17.494  0.00  0.00    +0.000 A 
ATOM      4  S   UNL     1       4.408   3.376  17.711  0.00  0.00    +0.000 S 
ATOM      5  C   UNL     1       3.065   3.281  18.688  0.00  0.00    +0.000 A 
ATOM      6  C   UNL     1       2.406   4.466  18.857  0.00  0.00    +0.000 A 
ATOM      7  C   UNL     1       3.035   5.538  18.176  0.00  0.00    +0.000 A 
ATOM      8  C   UNL     1       1.213   4.282  19.724  0.00  0.00    +0.000 C 
ATOM      9  C   UNL     1       1.461   2.867  20.340  0.00  0.00    +0.000 C 
ATOM     10  C   UNL     1       2.462   2.132  19.400  0.00  0.00    +0.000 C 
BRANCH   3  11
ATOM     11  C   UNL     1       5.176   5.786  16.714  0.00  0.00    +0.000 C 
ATOM     12  O   UNL     1       4.963   6.530  15.762  0.00  0.00    +0.000 OA
BRANCH  11  13
ATOM     13  O   UNL     1       6.426   5.419  17.113  0.00  0.00    +0.000 OA
BRANCH  13  15
ATOM     14  C   UNL     1       7.598   7.429  17.627  0.00  0.00    +0.000 C 
ATOM     15  C   UNL     1       6.966   6.174  18.202  0.00  0.00    +0.000 C 
ENDBRANCH  13  15
ENDBRANCH  11  13
ENDBRANCH   3  11
ENDBRANCH   1   7
BRANCH   2  16
ATOM     16  C   UNL     1       1.783   9.610  18.230  0.00  0.00    +0.000 C 
BRANCH  16  17
ATOM     17  O   UNL     1       0.391   9.730  17.949  0.00  0.00    +0.000 OA
BRANCH  17  18
ATOM     18  C   UNL     1      -0.250  10.689  18.821  0.00  0.00    +0.000 C 
BRANCH  18  19
ATOM     19  C   UNL     1      -0.121  10.243  20.263  0.00  0.00    +0.000 A 
ATOM     20  C   UNL     1      -0.449   8.939  20.664  0.00  0.00    +0.000 A 
ATOM     21  C   UNL     1      -0.371   8.571  22.005  0.00  0.00    +0.000 A 
ATOM     22  C   UNL     1       0.033   9.525  22.923  0.00  0.00    +0.000 A 
ATOM     23  N   UNL     1       0.362  10.787  22.587  0.00  0.00    +0.000 NA
ATOM     24  C   UNL     1       0.274  11.117  21.276  0.00  0.00    +0.000 A 
ATOM     25 CL   UNL     1       0.727  12.753  20.991  0.00  0.00    +0.000 Cl
ENDBRANCH  18  19
BRANCH  18  26
ATOM     26  C   UNL     1      -1.697  10.784  18.392  0.00  0.00    +0.000 A 
ATOM     27  C   UNL     1      -2.355  10.055  17.418  0.00  0.00    +0.000 A 
ATOM     28  C   UNL     1      -3.690  10.501  17.214  0.00  0.00    +0.000 A 
ATOM     29  C   UNL     1      -4.017  11.548  18.047  0.00  0.00    +0.000 A 
ATOM     30  S   UNL     1      -2.721  11.983  19.071  0.00  0.00    +0.000 S 
ENDBRANCH  18  26
ENDBRANCH  17  18
ENDBRANCH  16  17
ENDBRANCH   2  16
TORSDOF 9
ENDMDL
MODEL 9
REMARK VINA RESULT:      -8.0      3.262      8.595
REMARK  Name = 
REMARK  10 active torsions:
REMARK  status: ('A' for Active; 'I' for Inactive)
REMARK    1  A    between atoms: C_1  and  C_2
REMARK    2  A    between atoms: C_2  and  O_3
REMARK    3  A    between atoms: O_3  and  C_4
REMARK    4  A    between atoms: C_4  and  C_6
REMARK    5  A    between atoms: C_10  and  C_11
REMARK    6  A    between atoms: C_12  and  C_13
REMARK    7  A    between atoms: C_13  and  O_14
REMARK    8  A    between atoms: O_14  and  C_15
REMARK    9  A    between atoms: C_15  and  C_16
REMARK   10  A    between atoms: C_15  and  C_21
REMARK                            x       y       z     vdW  Elec       q    Type
REMARK                         _______ _______ _______ _____ _____    ______ ____
ROOT
ATOM      1  C   UNL     1       0.998   9.368  18.457  0.00  0.00    +0.000 C 
ATOM      2  C   UNL     1       2.040   8.631  18.190  0.00  0.00    +0.000 C 
ENDROOT
BRANCH   1   7
ATOM      3  C   UNL     1      -0.187  11.101  19.844  0.00  0.00    +0.000 A 
ATOM      4  S   UNL     1      -1.687  11.988  19.854  0.00  0.00    +0.000 S 
ATOM      5  C   UNL     1      -2.171  11.248  18.445  0.00  0.00    +0.000 A 
ATOM      6  C   UNL     1      -1.281  10.333  17.955  0.00  0.00    +0.000 A 
ATOM      7  C   UNL     1      -0.112  10.235  18.749  0.00  0.00    +0.000 A 
ATOM      8  C   UNL     1      -1.803   9.711  16.711  0.00  0.00    +0.000 C 
ATOM      9  C   UNL     1      -2.991  10.655  16.335  0.00  0.00    +0.000 C 
ATOM     10  C   UNL     1      -3.399  11.409  17.636  0.00  0.00    +0.000 C 
BRANCH   3  11
ATOM     11  C   UNL     1       0.757  11.416  20.901  0.00  0.00    +0.000 C 
ATOM     12  O   UNL     1       1.785  12.074  20.780  0.00  0.00    +0.000 OA
BRANCH  11  13
ATOM     13  O   UNL     1       0.405  10.783  22.056  0.00  0.00    +0.000 OA
BRANCH  13  15
ATOM     14  C   UNL     1      -0.333   8.517  22.041  0.00  0.00    +0.000 C 
ATOM     15  C   UNL     1       0.868   9.436  22.180  0.00  0.00    +0.000 C 
ENDBRANCH  13  15
ENDBRANCH  11  13
ENDBRANCH   3  11
ENDBRANCH   1   7
BRANCH   2  16
ATOM     16  C   UNL     1       3.256   7.774  17.879  0.00  0.00    +0.000 C 
BRANCH  16  17
ATOM     17  O   UNL     1       2.878   6.409  17.723  0.00  0.00    +0.000 OA
BRANCH  17  18
ATOM     18  C   UNL     1       3.878   5.512  18.259  0.00  0.00    +0.000 C 
BRANCH  18  19
ATOM     19  C   UNL     1       5.024   5.371  17.279  0.00  0.00    +0.000 A 
ATOM     20  C   UNL     1       4.801   5.184  15.906  0.00  0.00    +0.000 A 
ATOM     21  C   UNL     1       5.873   5.004  15.033  0.00  0.00    +0.000 A 
ATOM     22  C   UNL     1       7.153   5.012  15.560  0.00  0.00    +0.000 A 
ATOM     23  N   UNL     1       7.418   5.191  16.868  0.00  0.00    +0.000 NA
ATOM     24  C   UNL     1       6.356   5.361  17.692  0.00  0.00    +0.000 A 
ATOM     25 CL   UNL     1       6.839   5.583  19.329  0.00  0.00    +0.000 Cl
ENDBRANCH  18  19
BRANCH  18  26
ATOM     26  C   UNL     1       3.196   4.188  18.517  0.00  0.00    +0.000 A 
ATOM     27  C   UNL     1       3.776   2.957  18.771  0.00  0.00    +0.000 A 
ATOM     28  C   UNL     1       2.815   1.910  18.851  0.00  0.00    +0.000 A 
ATOM     29  C   UNL     1       1.531   2.374  18.672  0.00  0.00    +0.000 A 
ATOM     30  S   UNL     1       1.488   4.061  18.413  0.00  0.00    +0.000 S 
ENDBRANCH  18  26
ENDBRANCH  17  18
ENDBRANCH  16  17
ENDBRANCH   2  16
TORSDOF 9
ENDMDL
