MODEL 1
REMARK VINA RESULT:      -8.7      0.000      0.000
REMARK  Name = 
REMARK  5 active torsions:
REMARK  status: ('A' for Active; 'I' for Inactive)
REMARK    1  A    between atoms: C_2  and  C_4
REMARK    2  A    between atoms: C_8  and  C_10
REMARK    3  A    between atoms: C_14  and  O_15
REMARK    4  A    between atoms: O_15  and  C_16
REMARK    5  A    between atoms: C_16  and  C_17
REMARK                            x       y       z     vdW  Elec       q    Type
REMARK                         _______ _______ _______ _____ _____    ______ ____
ROOT
ATOM      1  C   UNL     1       6.032   5.375  17.318  0.00  0.00    +0.000 A 
ATOM      2  C   UNL     1       6.813   5.045  18.363  0.00  0.00    +0.000 A 
ATOM      3  C   UNL     1       7.812   6.044  18.855  0.00  0.00    +0.000 A 
ATOM      4  O   UNL     1       8.564   5.748  19.779  0.00  0.00    +0.000 OA
ATOM      5  C   UNL     1       7.841   7.398  18.188  0.00  0.00    +0.000 A 
ATOM      6  C   UNL     1       7.025   7.556  17.139  0.00  0.00    +0.000 A 
ATOM      7  N   UNL     1       6.194   6.581  16.673  0.00  0.00    +0.000 N 
ATOM      8  H   UNL     1       5.835   6.664  15.730  0.00  0.00    +0.000 HD
ENDROOT
BRANCH   1  13
ATOM      9  C   UNL     1       1.480   4.024  19.061  0.00  0.00    +0.000 C 
ATOM     10  C   UNL     1       1.635   3.609  17.582  0.00  0.00    +0.000 C 
ATOM     11  C   UNL     1       3.003   2.992  17.283  0.00  0.00    +0.000 C 
ATOM     12  N   UNL     1       4.071   3.859  17.770  0.00  0.00    +0.000 N 
ATOM     13  C   UNL     1       5.000   4.363  16.860  0.00  0.00    +0.000 C 
ATOM     14  O   UNL     1       5.000   4.020  15.678  0.00  0.00    +0.000 OA
ATOM     15  C   UNL     1       3.996   4.077  19.219  0.00  0.00    +0.000 C 
ATOM     16  C   UNL     1       2.703   4.843  19.520  0.00  0.00    +0.000 C 
BRANCH   9  18
ATOM     17  N   UNL     1       0.983   3.134  21.293  0.00  0.00    +0.000 N 
ATOM     18  C   UNL     1       1.266   2.837  19.997  0.00  0.00    +0.000 C 
ATOM     19  O   UNL     1       1.379   1.664  19.654  0.00  0.00    +0.000 OA
ATOM     20  H   UNL     1       0.860   2.354  21.926  0.00  0.00    +0.000 HD
ATOM     21  H   UNL     1       0.906   4.070  21.658  0.00  0.00    +0.000 HD
ENDBRANCH   9  18
ENDBRANCH   1  13
BRANCH   5  22
ATOM     22  O   UNL     1       8.631   8.455  18.593  0.00  0.00    +0.000 OA
BRANCH  22  23
ATOM     23  C   UNL     1       8.280   9.726  18.049  0.00  0.00    +0.000 C 
BRANCH  23  24
ATOM     24  C   UNL     1       9.292  10.737  18.542  0.00  0.00    +0.000 A 
ATOM     25  C   UNL     1       9.854  11.676  17.663  0.00  0.00    +0.000 A 
ATOM     26  C   UNL     1      10.792  12.605  18.120  0.00  0.00    +0.000 A 
ATOM     27  C   UNL     1      11.173  12.603  19.460  0.00  0.00    +0.000 A 
ATOM     28 CL   UNL     1      12.333  13.743  20.022  0.00  0.00    +0.000 Cl
ATOM     29  C   UNL     1      10.622  11.682  20.347  0.00  0.00    +0.000 A 
ATOM     30  C   UNL     1       9.684  10.752  19.889  0.00  0.00    +0.000 A 
ENDBRANCH  23  24
ENDBRANCH  22  23
ENDBRANCH   5  22
TORSDOF 5
ENDMDL
MODEL 2
REMARK VINA RESULT:      -8.5      0.864      1.258
REMARK  Name = 
REMARK  5 active torsions:
REMARK  status: ('A' for Active; 'I' for Inactive)
REMARK    1  A    between atoms: C_2  and  C_4
REMARK    2  A    between atoms: C_8  and  C_10
REMARK    3  A    between atoms: C_14  and  O_15
REMARK    4  A    between atoms: O_15  and  C_16
REMARK    5  A    between atoms: C_16  and  C_17
REMARK                            x       y       z     vdW  Elec       q    Type
REMARK                         _______ _______ _______ _____ _____    ______ ____
ROOT
ATOM      1  C   UNL     1       5.969   5.342  17.412  0.00  0.00    +0.000 A 
ATOM      2  C   UNL     1       6.756   5.001  18.449  0.00  0.00    +0.000 A 
ATOM      3  C   UNL     1       7.790   5.976  18.915  0.00  0.00    +0.000 A 
ATOM      4  O   UNL     1       8.548   5.669  19.832  0.00  0.00    +0.000 OA
ATOM      5  C   UNL     1       7.848   7.322  18.233  0.00  0.00    +0.000 A 
ATOM      6  C   UNL     1       7.021   7.491  17.195  0.00  0.00    +0.000 A 
ATOM      7  N   UNL     1       6.156   6.536  16.751  0.00  0.00    +0.000 N 
ATOM      8  H   UNL     1       5.786   6.619  15.813  0.00  0.00    +0.000 HD
ENDROOT
BRANCH   1  13
ATOM      9  C   UNL     1       1.265   4.395  19.007  0.00  0.00    +0.000 C 
ATOM     10  C   UNL     1       1.466   3.853  17.577  0.00  0.00    +0.000 C 
ATOM     11  C   UNL     1       2.808   3.137  17.401  0.00  0.00    +0.000 C 
ATOM     12  N   UNL     1       3.901   3.980  17.875  0.00  0.00    +0.000 N 
ATOM     13  C   UNL     1       4.902   4.355  16.980  0.00  0.00    +0.000 C 
ATOM     14  O   UNL     1       4.939   3.918  15.830  0.00  0.00    +0.000 OA
ATOM     15  C   UNL     1       3.768   4.320  19.296  0.00  0.00    +0.000 C 
ATOM     16  C   UNL     1       2.510   5.179  19.466  0.00  0.00    +0.000 C 
BRANCH   9  18
ATOM     17  N   UNL     1       0.273   2.215  19.543  0.00  0.00    +0.000 N 
ATOM     18  C   UNL     1       0.933   3.302  20.021  0.00  0.00    +0.000 C 
ATOM     19  O   UNL     1       1.187   3.379  21.220  0.00  0.00    +0.000 OA
ATOM     20  H   UNL     1       0.029   1.495  20.210  0.00  0.00    +0.000 HD
ATOM     21  H   UNL     1       0.000   2.094  18.579  0.00  0.00    +0.000 HD
ENDBRANCH   9  18
ENDBRANCH   1  13
BRANCH   5  22
ATOM     22  O   UNL     1       8.674   8.359  18.614  0.00  0.00    +0.000 OA
BRANCH  22  23
ATOM     23  C   UNL     1       8.597   9.533  17.806  0.00  0.00    +0.000 C 
BRANCH  23  24
ATOM     24  C   UNL     1       9.113  10.695  18.626  0.00  0.00    +0.000 A 
ATOM     25  C   UNL     1       9.408  10.535  19.989  0.00  0.00    +0.000 A 
ATOM     26  C   UNL     1       9.880  11.612  20.746  0.00  0.00    +0.000 A 
ATOM     27  C   UNL     1      10.063  12.854  20.142  0.00  0.00    +0.000 A 
ATOM     28 CL   UNL     1      10.638  14.181  21.074  0.00  0.00    +0.000 Cl
ATOM     29  C   UNL     1       9.780  13.029  18.790  0.00  0.00    +0.000 A 
ATOM     30  C   UNL     1       9.308  11.952  18.034  0.00  0.00    +0.000 A 
ENDBRANCH  23  24
ENDBRANCH  22  23
ENDBRANCH   5  22
TORSDOF 5
ENDMDL
MODEL 3
REMARK VINA RESULT:      -8.3      1.748      2.294
REMARK  Name = 
REMARK  5 active torsions:
REMARK  status: ('A' for Active; 'I' for Inactive)
REMARK    1  A    between atoms: C_2  and  C_4
REMARK    2  A    between atoms: C_8  and  C_10
REMARK    3  A    between atoms: C_14  and  O_15
REMARK    4  A    between atoms: O_15  and  C_16
REMARK    5  A    between atoms: C_16  and  C_17
REMARK                            x       y       z     vdW  Elec       q    Type
REMARK                         _______ _______ _______ _____ _____    ______ ____
ROOT
ATOM      1  C   UNL     1       4.452   4.963  17.060  0.00  0.00    +0.000 A 
ATOM      2  C   UNL     1       5.533   4.624  16.334  0.00  0.00    +0.000 A 
ATOM      3  C   UNL     1       6.631   5.626  16.171  0.00  0.00    +0.000 A 
ATOM      4  O   UNL     1       7.607   5.354  15.478  0.00  0.00    +0.000 OA
ATOM      5  C   UNL     1       6.492   6.947  16.890  0.00  0.00    +0.000 A 
ATOM      6  C   UNL     1       5.339   7.143  17.542  0.00  0.00    +0.000 A 
ATOM      7  N   UNL     1       4.329   6.230  17.586  0.00  0.00    +0.000 N 
ATOM      8  H   UNL     1       3.402   6.548  17.838  0.00  0.00    +0.000 HD
ENDROOT
BRANCH   1  13
ATOM      9  C   UNL     1       1.418   3.750  20.920  0.00  0.00    +0.000 C 
ATOM     10  C   UNL     1       0.835   3.223  19.592  0.00  0.00    +0.000 C 
ATOM     11  C   UNL     1       1.897   2.584  18.694  0.00  0.00    +0.000 C 
ATOM     12  N   UNL     1       3.032   3.486  18.526  0.00  0.00    +0.000 N 
ATOM     13  C   UNL     1       3.368   3.919  17.244  0.00  0.00    +0.000 C 
ATOM     14  O   UNL     1       2.795   3.486  16.244  0.00  0.00    +0.000 OA
ATOM     15  C   UNL     1       3.678   3.815  19.802  0.00  0.00    +0.000 C 
ATOM     16  C   UNL     1       2.675   4.601  20.655  0.00  0.00    +0.000 C 
BRANCH   9  18
ATOM     17  N   UNL     1       0.710   2.197  22.684  0.00  0.00    +0.000 N 
ATOM     18  C   UNL     1       1.741   2.637  21.916  0.00  0.00    +0.000 C 
ATOM     19  O   UNL     1       2.864   2.170  22.081  0.00  0.00    +0.000 OA
ATOM     20  H   UNL     1       0.918   1.475  23.362  0.00  0.00    +0.000 HD
ATOM     21  H   UNL     1      -0.232   2.554  22.631  0.00  0.00    +0.000 HD
ENDBRANCH   9  18
ENDBRANCH   1  13
BRANCH   5  22
ATOM     22  O   UNL     1       7.460   7.929  16.921  0.00  0.00    +0.000 OA
BRANCH  22  23
ATOM     23  C   UNL     1       8.158   8.064  18.158  0.00  0.00    +0.000 C 
BRANCH  23  24
ATOM     24  C   UNL     1       8.536   9.520  18.321  0.00  0.00    +0.000 A 
ATOM     25  C   UNL     1       9.442   9.918  19.317  0.00  0.00    +0.000 A 
ATOM     26  C   UNL     1       9.786  11.264  19.469  0.00  0.00    +0.000 A 
ATOM     27  C   UNL     1       9.228  12.220  18.622  0.00  0.00    +0.000 A 
ATOM     28 CL   UNL     1       9.647  13.878  18.812  0.00  0.00    +0.000 Cl
ATOM     29  C   UNL     1       8.332  11.842  17.626  0.00  0.00    +0.000 A 
ATOM     30  C   UNL     1       7.988  10.495  17.475  0.00  0.00    +0.000 A 
ENDBRANCH  23  24
ENDBRANCH  22  23
ENDBRANCH   5  22
TORSDOF 5
ENDMDL
MODEL 4
REMARK VINA RESULT:      -8.2      5.674      8.236
REMARK  Name = 
REMARK  5 active torsions:
REMARK  status: ('A' for Active; 'I' for Inactive)
REMARK    1  A    between atoms: C_2  and  C_4
REMARK    2  A    between atoms: C_8  and  C_10
REMARK    3  A    between atoms: C_14  and  O_15
REMARK    4  A    between atoms: O_15  and  C_16
REMARK    5  A    between atoms: C_16  and  C_17
REMARK                            x       y       z     vdW  Elec       q    Type
REMARK                         _______ _______ _______ _____ _____    ______ ____
ROOT
ATOM      1  C   UNL     1       1.725   7.663  20.397  0.00  0.00    +0.000 A 
ATOM      2  C   UNL     1       1.378   6.511  21.000  0.00  0.00    +0.000 A 
ATOM      3  C   UNL     1       1.767   5.219  20.355  0.00  0.00    +0.000 A 
ATOM      4  O   UNL     1       1.423   4.156  20.864  0.00  0.00    +0.000 OA
ATOM      5  C   UNL     1       2.589   5.282  19.090  0.00  0.00    +0.000 A 
ATOM      6  C   UNL     1       2.821   6.506  18.599  0.00  0.00    +0.000 A 
ATOM      7  N   UNL     1       2.368   7.652  19.179  0.00  0.00    +0.000 N 
ATOM      8  H   UNL     1       2.326   8.494  18.617  0.00  0.00    +0.000 HD
ENDROOT
BRANCH   1  13
ATOM      9  C   UNL     1      -1.531  11.373  19.299  0.00  0.00    +0.000 C 
ATOM     10  C   UNL     1      -1.172  11.401  20.799  0.00  0.00    +0.000 C 
ATOM     11  C   UNL     1       0.324  11.194  21.051  0.00  0.00    +0.000 C 
ATOM     12  N   UNL     1       0.800  10.006  20.349  0.00  0.00    +0.000 N 
ATOM     13  C   UNL     1       1.355   8.961  21.087  0.00  0.00    +0.000 C 
ATOM     14  O   UNL     1       1.541   9.054  22.300  0.00  0.00    +0.000 OA
ATOM     15  C   UNL     1       0.608  10.101  18.897  0.00  0.00    +0.000 C 
ATOM     16  C   UNL     1      -0.898  10.145  18.616  0.00  0.00    +0.000 C 
BRANCH   9  18
ATOM     17  N   UNL     1      -1.192  12.608  17.205  0.00  0.00    +0.000 N 
ATOM     18  C   UNL     1      -1.125  12.648  18.562  0.00  0.00    +0.000 C 
ATOM     19  O   UNL     1      -0.709  13.659  19.119  0.00  0.00    +0.000 OA
ATOM     20  H   UNL     1      -0.904  13.440  16.706  0.00  0.00    +0.000 HD
ATOM     21  H   UNL     1      -1.492  11.805  16.674  0.00  0.00    +0.000 HD
ENDBRANCH   9  18
ENDBRANCH   1  13
BRANCH   5  22
ATOM     22  O   UNL     1       3.109   4.184  18.436  0.00  0.00    +0.000 OA
BRANCH  22  23
ATOM     23  C   UNL     1       4.485   3.911  18.694  0.00  0.00    +0.000 C 
BRANCH  23  24
ATOM     24  C   UNL     1       5.261   4.207  17.429  0.00  0.00    +0.000 A 
ATOM     25  C   UNL     1       4.645   4.113  16.171  0.00  0.00    +0.000 A 
ATOM     26  C   UNL     1       5.365   4.382  15.005  0.00  0.00    +0.000 A 
ATOM     27  C   UNL     1       6.706   4.751  15.089  0.00  0.00    +0.000 A 
ATOM     28 CL   UNL     1       7.596   5.077  13.652  0.00  0.00    +0.000 Cl
ATOM     29  C   UNL     1       7.332   4.854  16.328  0.00  0.00    +0.000 A 
ATOM     30  C   UNL     1       6.611   4.583  17.495  0.00  0.00    +0.000 A 
ENDBRANCH  23  24
ENDBRANCH  22  23
ENDBRANCH   5  22
TORSDOF 5
ENDMDL
MODEL 5
REMARK VINA RESULT:      -8.1      7.238      8.830
REMARK  Name = 
REMARK  5 active torsions:
REMARK  status: ('A' for Active; 'I' for Inactive)
REMARK    1  A    between atoms: C_2  and  C_4
REMARK    2  A    between atoms: C_8  and  C_10
REMARK    3  A    between atoms: C_14  and  O_15
REMARK    4  A    between atoms: O_15  and  C_16
REMARK    5  A    between atoms: C_16  and  C_17
REMARK                            x       y       z     vdW  Elec       q    Type
REMARK                         _______ _______ _______ _____ _____    ______ ____
ROOT
ATOM      1  C   UNL     1       1.740   8.313  19.757  0.00  0.00    +0.000 A 
ATOM      2  C   UNL     1       1.094   9.400  19.297  0.00  0.00    +0.000 A 
ATOM      3  C   UNL     1       0.460  10.328  20.283  0.00  0.00    +0.000 A 
ATOM      4  O   UNL     1      -0.172  11.303  19.884  0.00  0.00    +0.000 OA
ATOM      5  C   UNL     1       0.638  10.025  21.752  0.00  0.00    +0.000 A 
ATOM      6  C   UNL     1       1.276   8.885  22.044  0.00  0.00    +0.000 A 
ATOM      7  N   UNL     1       1.760   8.026  21.104  0.00  0.00    +0.000 N 
ATOM      8  H   UNL     1       1.962   7.073  21.380  0.00  0.00    +0.000 HD
ENDROOT
BRANCH   1  13
ATOM      9  C   UNL     1       1.506   3.342  18.856  0.00  0.00    +0.000 C 
ATOM     10  C   UNL     1       2.037   4.089  17.614  0.00  0.00    +0.000 C 
ATOM     11  C   UNL     1       3.066   5.166  17.969  0.00  0.00    +0.000 C 
ATOM     12  N   UNL     1       2.544   6.045  19.011  0.00  0.00    +0.000 N 
ATOM     13  C   UNL     1       2.409   7.406  18.742  0.00  0.00    +0.000 C 
ATOM     14  O   UNL     1       2.806   7.900  17.687  0.00  0.00    +0.000 OA
ATOM     15  C   UNL     1       2.226   5.319  20.246  0.00  0.00    +0.000 C 
ATOM     16  C   UNL     1       1.080   4.346  19.945  0.00  0.00    +0.000 C 
BRANCH   9  18
ATOM     17  N   UNL     1       3.078   1.483  18.543  0.00  0.00    +0.000 N 
ATOM     18  C   UNL     1       2.510   2.343  19.429  0.00  0.00    +0.000 C 
ATOM     19  O   UNL     1       2.783   2.254  20.622  0.00  0.00    +0.000 OA
ATOM     20  H   UNL     1       3.728   0.803  18.916  0.00  0.00    +0.000 HD
ATOM     21  H   UNL     1       2.880   1.471  17.554  0.00  0.00    +0.000 HD
ENDBRANCH   9  18
ENDBRANCH   1  13
BRANCH   5  22
ATOM     22  O   UNL     1       0.201  10.836  22.779  0.00  0.00    +0.000 OA
BRANCH  22  23
ATOM     23  C   UNL     1      -1.167  10.674  23.149  0.00  0.00    +0.000 C 
BRANCH  23  24
ATOM     24  C   UNL     1      -1.804  12.045  23.182  0.00  0.00    +0.000 A 
ATOM     25  C   UNL     1      -1.060  13.190  22.856  0.00  0.00    +0.000 A 
ATOM     26  C   UNL     1      -1.650  14.456  22.892  0.00  0.00    +0.000 A 
ATOM     27  C   UNL     1      -2.990  14.585  23.250  0.00  0.00    +0.000 A 
ATOM     28 CL   UNL     1      -3.716  16.145  23.300  0.00  0.00    +0.000 Cl
ATOM     29  C   UNL     1      -3.745  13.460  23.572  0.00  0.00    +0.000 A 
ATOM     30  C   UNL     1      -3.153  12.194  23.537  0.00  0.00    +0.000 A 
ENDBRANCH  23  24
ENDBRANCH  22  23
ENDBRANCH   5  22
TORSDOF 5
ENDMDL
MODEL 6
REMARK VINA RESULT:      -8.0      6.927      9.029
REMARK  Name = 
REMARK  5 active torsions:
REMARK  status: ('A' for Active; 'I' for Inactive)
REMARK    1  A    between atoms: C_2  and  C_4
REMARK    2  A    between atoms: C_8  and  C_10
REMARK    3  A    between atoms: C_14  and  O_15
REMARK    4  A    between atoms: O_15  and  C_16
REMARK    5  A    between atoms: C_16  and  C_17
REMARK                            x       y       z     vdW  Elec       q    Type
REMARK                         _______ _______ _______ _____ _____    ______ ____
ROOT
ATOM      1  C   UNL     1       2.379   7.955  18.573  0.00  0.00    +0.000 A 
ATOM      2  C   UNL     1       2.072   7.961  19.884  0.00  0.00    +0.000 A 
ATOM      3  C   UNL     1       1.022   8.907  20.370  0.00  0.00    +0.000 A 
ATOM      4  O   UNL     1       0.756   8.960  21.568  0.00  0.00    +0.000 OA
ATOM      5  C   UNL     1       0.313   9.761  19.346  0.00  0.00    +0.000 A 
ATOM      6  C   UNL     1       0.760   9.664  18.089  0.00  0.00    +0.000 A 
ATOM      7  N   UNL     1       1.784   8.848  17.710  0.00  0.00    +0.000 N 
ATOM      8  H   UNL     1       2.251   9.036  16.831  0.00  0.00    +0.000 HD
ENDROOT
BRANCH   1  13
ATOM      9  C   UNL     1       2.250   2.999  17.579  0.00  0.00    +0.000 C 
ATOM     10  C   UNL     1       3.455   3.656  16.876  0.00  0.00    +0.000 C 
ATOM     11  C   UNL     1       4.193   4.649  17.777  0.00  0.00    +0.000 C 
ATOM     12  N   UNL     1       3.255   5.603  18.361  0.00  0.00    +0.000 N 
ATOM     13  C   UNL     1       3.420   6.962  18.095  0.00  0.00    +0.000 C 
ATOM     14  O   UNL     1       4.387   7.385  17.463  0.00  0.00    +0.000 OA
ATOM     15  C   UNL     1       2.230   4.947  19.179  0.00  0.00    +0.000 C 
ATOM     16  C   UNL     1       1.374   4.070  18.259  0.00  0.00    +0.000 C 
BRANCH   9  18
ATOM     17  N   UNL     1       3.723   1.159  18.265  0.00  0.00    +0.000 N 
ATOM     18  C   UNL     1       2.656   1.934  18.596  0.00  0.00    +0.000 C 
ATOM     19  O   UNL     1       2.055   1.722  19.645  0.00  0.00    +0.000 OA
ATOM     20  H   UNL     1       3.987   0.436  18.922  0.00  0.00    +0.000 HD
ATOM     21  H   UNL     1       4.247   1.250  17.408  0.00  0.00    +0.000 HD
ENDBRANCH   9  18
ENDBRANCH   1  13
BRANCH   5  22
ATOM     22  O   UNL     1      -0.743  10.604  19.624  0.00  0.00    +0.000 OA
BRANCH  22  23
ATOM     23  C   UNL     1      -1.004  11.604  18.640  0.00  0.00    +0.000 C 
BRANCH  23  24
ATOM     24  C   UNL     1      -2.501  11.670  18.431  0.00  0.00    +0.000 A 
ATOM     25  C   UNL     1      -3.338  12.222  19.413  0.00  0.00    +0.000 A 
ATOM     26  C   UNL     1      -4.721  12.277  19.219  0.00  0.00    +0.000 A 
ATOM     27  C   UNL     1      -5.275  11.782  18.041  0.00  0.00    +0.000 A 
ATOM     28 CL   UNL     1      -6.979  11.844  17.804  0.00  0.00    +0.000 Cl
ATOM     29  C   UNL     1      -4.459  11.236  17.054  0.00  0.00    +0.000 A 
ATOM     30  C   UNL     1      -3.076  11.180  17.248  0.00  0.00    +0.000 A 
ENDBRANCH  23  24
ENDBRANCH  22  23
ENDBRANCH   5  22
TORSDOF 5
ENDMDL
MODEL 7
REMARK VINA RESULT:      -7.9      6.662      8.446
REMARK  Name = 
REMARK  5 active torsions:
REMARK  status: ('A' for Active; 'I' for Inactive)
REMARK    1  A    between atoms: C_2  and  C_4
REMARK    2  A    between atoms: C_8  and  C_10
REMARK    3  A    between atoms: C_14  and  O_15
REMARK    4  A    between atoms: O_15  and  C_16
REMARK    5  A    between atoms: C_16  and  C_17
REMARK                            x       y       z     vdW  Elec       q    Type
REMARK                         _______ _______ _______ _____ _____    ______ ____
ROOT
ATOM      1  C   UNL     1       2.447   7.918  18.529  0.00  0.00    +0.000 A 
ATOM      2  C   UNL     1       2.036   7.902  19.811  0.00  0.00    +0.000 A 
ATOM      3  C   UNL     1       0.953   8.845  20.229  0.00  0.00    +0.000 A 
ATOM      4  O   UNL     1       0.593   8.878  21.403  0.00  0.00    +0.000 OA
ATOM      5  C   UNL     1       0.333   9.721  19.167  0.00  0.00    +0.000 A 
ATOM      6  C   UNL     1       0.878   9.643  17.948  0.00  0.00    +0.000 A 
ATOM      7  N   UNL     1       1.926   8.829  17.637  0.00  0.00    +0.000 N 
ATOM      8  H   UNL     1       2.462   9.030  16.802  0.00  0.00    +0.000 HD
ENDROOT
BRANCH   1  13
ATOM      9  C   UNL     1       2.376   2.982  17.433  0.00  0.00    +0.000 C 
ATOM     10  C   UNL     1       3.638   3.645  16.843  0.00  0.00    +0.000 C 
ATOM     11  C   UNL     1       4.305   4.617  17.820  0.00  0.00    +0.000 C 
ATOM     12  N   UNL     1       3.327   5.565  18.343  0.00  0.00    +0.000 N 
ATOM     13  C   UNL     1       3.518   6.928  18.118  0.00  0.00    +0.000 C 
ATOM     14  O   UNL     1       4.536   7.357  17.575  0.00  0.00    +0.000 OA
ATOM     15  C   UNL     1       2.235   4.900  19.063  0.00  0.00    +0.000 C 
ATOM     16  C   UNL     1       1.453   4.045  18.060  0.00  0.00    +0.000 C 
BRANCH   9  18
ATOM     17  N   UNL     1       3.807   1.152  18.225  0.00  0.00    +0.000 N 
ATOM     18  C   UNL     1       2.694   1.896  18.459  0.00  0.00    +0.000 C 
ATOM     19  O   UNL     1       1.988   1.642  19.430  0.00  0.00    +0.000 OA
ATOM     20  H   UNL     1       4.015   0.415  18.887  0.00  0.00    +0.000 HD
ATOM     21  H   UNL     1       4.419   1.277  17.433  0.00  0.00    +0.000 HD
ENDBRANCH   9  18
ENDBRANCH   1  13
BRANCH   5  22
ATOM     22  O   UNL     1      -0.739  10.565  19.374  0.00  0.00    +0.000 OA
BRANCH  22  23
ATOM     23  C   UNL     1      -0.432  11.799  20.022  0.00  0.00    +0.000 C 
BRANCH  23  24
ATOM     24  C   UNL     1      -1.445  12.008  21.125  0.00  0.00    +0.000 A 
ATOM     25  C   UNL     1      -1.182  11.572  22.433  0.00  0.00    +0.000 A 
ATOM     26  C   UNL     1      -2.122  11.762  23.449  0.00  0.00    +0.000 A 
ATOM     27  C   UNL     1      -3.331  12.394  23.164  0.00  0.00    +0.000 A 
ATOM     28 CL   UNL     1      -4.492  12.623  24.413  0.00  0.00    +0.000 Cl
ATOM     29  C   UNL     1      -3.607  12.838  21.873  0.00  0.00    +0.000 A 
ATOM     30  C   UNL     1      -2.666  12.646  20.857  0.00  0.00    +0.000 A 
ENDBRANCH  23  24
ENDBRANCH  22  23
ENDBRANCH   5  22
TORSDOF 5
ENDMDL
MODEL 8
REMARK VINA RESULT:      -7.9      6.316      8.716
REMARK  Name = 
REMARK  5 active torsions:
REMARK  status: ('A' for Active; 'I' for Inactive)
REMARK    1  A    between atoms: C_2  and  C_4
REMARK    2  A    between atoms: C_8  and  C_10
REMARK    3  A    between atoms: C_14  and  O_15
REMARK    4  A    between atoms: O_15  and  C_16
REMARK    5  A    between atoms: C_16  and  C_17
REMARK                            x       y       z     vdW  Elec       q    Type
REMARK                         _______ _______ _______ _____ _____    ______ ____
ROOT
ATOM      1  C   UNL     1       2.597   6.781  19.434  0.00  0.00    +0.000 A 
ATOM      2  C   UNL     1       2.546   7.573  18.347  0.00  0.00    +0.000 A 
ATOM      3  C   UNL     1       1.819   8.876  18.442  0.00  0.00    +0.000 A 
ATOM      4  O   UNL     1       1.723   9.594  17.451  0.00  0.00    +0.000 OA
ATOM      5  C   UNL     1       1.237   9.262  19.781  0.00  0.00    +0.000 A 
ATOM      6  C   UNL     1       1.342   8.349  20.754  0.00  0.00    +0.000 A 
ATOM      7  N   UNL     1       1.938   7.134  20.590  0.00  0.00    +0.000 N 
ATOM      8  H   UNL     1       1.728   6.400  21.256  0.00  0.00    +0.000 HD
ENDROOT
BRANCH   1  13
ATOM      9  C   UNL     1       6.860   5.466  17.052  0.00  0.00    +0.000 C 
ATOM     10  C   UNL     1       6.542   4.461  18.180  0.00  0.00    +0.000 C 
ATOM     11  C   UNL     1       5.062   4.075  18.226  0.00  0.00    +0.000 C 
ATOM     12  N   UNL     1       4.224   5.270  18.244  0.00  0.00    +0.000 N 
ATOM     13  C   UNL     1       3.370   5.482  19.326  0.00  0.00    +0.000 C 
ATOM     14  O   UNL     1       3.235   4.643  20.217  0.00  0.00    +0.000 OA
ATOM     15  C   UNL     1       4.421   6.108  17.055  0.00  0.00    +0.000 C 
ATOM     16  C   UNL     1       5.859   6.638  17.079  0.00  0.00    +0.000 C 
BRANCH   9  18
ATOM     17  N   UNL     1       7.484   5.535  14.680  0.00  0.00    +0.000 N 
ATOM     18  C   UNL     1       6.876   4.825  15.666  0.00  0.00    +0.000 C 
ATOM     19  O   UNL     1       6.341   3.752  15.400  0.00  0.00    +0.000 OA
ATOM     20  H   UNL     1       7.481   5.129  13.753  0.00  0.00    +0.000 HD
ATOM     21  H   UNL     1       7.916   6.437  14.812  0.00  0.00    +0.000 HD
ENDBRANCH   9  18
ENDBRANCH   1  13
BRANCH   5  22
ATOM     22  O   UNL     1       0.630  10.471  20.054  0.00  0.00    +0.000 OA
BRANCH  22  23
ATOM     23  C   UNL     1       0.510  10.798  21.437  0.00  0.00    +0.000 C 
BRANCH  23  24
ATOM     24  C   UNL     1      -0.838  11.454  21.643  0.00  0.00    +0.000 A 
ATOM     25  C   UNL     1      -1.407  11.536  22.924  0.00  0.00    +0.000 A 
ATOM     26  C   UNL     1      -2.655  12.137  23.111  0.00  0.00    +0.000 A 
ATOM     27  C   UNL     1      -3.340  12.663  22.017  0.00  0.00    +0.000 A 
ATOM     28 CL   UNL     1      -4.879  13.398  22.246  0.00  0.00    +0.000 Cl
ATOM     29  C   UNL     1      -2.788  12.595  20.741  0.00  0.00    +0.000 A 
ATOM     30  C   UNL     1      -1.540  11.992  20.555  0.00  0.00    +0.000 A 
ENDBRANCH  23  24
ENDBRANCH  22  23
ENDBRANCH   5  22
TORSDOF 5
ENDMDL
MODEL 9
REMARK VINA RESULT:      -7.9      6.909      8.983
REMARK  Name = 
REMARK  5 active torsions:
REMARK  status: ('A' for Active; 'I' for Inactive)
REMARK    1  A    between atoms: C_2  and  C_4
REMARK    2  A    between atoms: C_8  and  C_10
REMARK    3  A    between atoms: C_14  and  O_15
REMARK    4  A    between atoms: O_15  and  C_16
REMARK    5  A    between atoms: C_16  and  C_17
REMARK                            x       y       z     vdW  Elec       q    Type
REMARK                         _______ _______ _______ _____ _____    ______ ____
ROOT
ATOM      1  C   UNL     1       2.451   7.987  18.587  0.00  0.00    +0.000 A 
ATOM      2  C   UNL     1       2.088   7.923  19.882  0.00  0.00    +0.000 A 
ATOM      3  C   UNL     1       1.028   8.854  20.377  0.00  0.00    +0.000 A 
ATOM      4  O   UNL     1       0.713   8.843  21.564  0.00  0.00    +0.000 OA
ATOM      5  C   UNL     1       0.374   9.774  19.374  0.00  0.00    +0.000 A 
ATOM      6  C   UNL     1       0.872   9.741  18.133  0.00  0.00    +0.000 A 
ATOM      7  N   UNL     1       1.903   8.934  17.752  0.00  0.00    +0.000 N 
ATOM      8  H   UNL     1       2.408   9.165  16.905  0.00  0.00    +0.000 HD
ENDROOT
BRANCH   1  13
ATOM      9  C   UNL     1       2.292   3.118  17.230  0.00  0.00    +0.000 C 
ATOM     10  C   UNL     1       3.548   3.798  16.645  0.00  0.00    +0.000 C 
ATOM     11  C   UNL     1       4.250   4.708  17.657  0.00  0.00    +0.000 C 
ATOM     12  N   UNL     1       3.296   5.637  18.254  0.00  0.00    +0.000 N 
ATOM     13  C   UNL     1       3.500   7.008  18.098  0.00  0.00    +0.000 C 
ATOM     14  O   UNL     1       4.509   7.454  17.554  0.00  0.00    +0.000 OA
ATOM     15  C   UNL     1       2.213   4.947  18.964  0.00  0.00    +0.000 C 
ATOM     16  C   UNL     1       1.397   4.156  17.935  0.00  0.00    +0.000 C 
BRANCH   9  18
ATOM     17  N   UNL     1       1.630   1.597  19.039  0.00  0.00    +0.000 N 
ATOM     18  C   UNL     1       2.620   1.974  18.188  0.00  0.00    +0.000 C 
ATOM     19  O   UNL     1       3.718   1.429  18.254  0.00  0.00    +0.000 OA
ATOM     20  H   UNL     1       1.845   0.855  19.693  0.00  0.00    +0.000 HD
ATOM     21  H   UNL     1       0.714   2.018  19.069  0.00  0.00    +0.000 HD
ENDBRANCH   9  18
ENDBRANCH   1  13
BRANCH   5  22
ATOM     22  O   UNL     1      -0.684  10.614  19.654  0.00  0.00    +0.000 OA
BRANCH  22  23
ATOM     23  C   UNL     1      -0.988  11.575  18.644  0.00  0.00    +0.000 C 
BRANCH  23  24
ATOM     24  C   UNL     1      -2.489  11.597  18.461  0.00  0.00    +0.000 A 
ATOM     25  C   UNL     1      -3.083  11.008  17.334  0.00  0.00    +0.000 A 
ATOM     26  C   UNL     1      -4.470  11.034  17.165  0.00  0.00    +0.000 A 
ATOM     27  C   UNL     1      -5.272  11.647  18.125  0.00  0.00    +0.000 A 
ATOM     28 CL   UNL     1      -6.980  11.685  17.915  0.00  0.00    +0.000 Cl
ATOM     29  C   UNL     1      -4.701  12.232  19.252  0.00  0.00    +0.000 A 
ATOM     30  C   UNL     1      -3.313  12.206  19.420  0.00  0.00    +0.000 A 
ENDBRANCH  23  24
ENDBRANCH  22  23
ENDBRANCH   5  22
TORSDOF 5
ENDMDL
