MODEL 1
REMARK VINA RESULT:      -7.2      0.000      0.000
REMARK  Name = 
REMARK  12 active torsions:
REMARK  status: ('A' for Active; 'I' for Inactive)
REMARK    1  A    between atoms: C_1  and  O_2
REMARK    2  A    between atoms: O_2  and  C_3
REMARK    3  A    between atoms: N_7  and  C_8
REMARK    4  A    between atoms: N_11  and  C_12
REMARK    5  A    between atoms: N_21  and  C_22
REMARK    6  A    between atoms: C_28  and  O_29
REMARK    7  A    between atoms: O_29  and  C_30
REMARK    8  A    between atoms: C_30  and  C_31
REMARK    9  A    between atoms: C_31  and  C_32
REMARK   10  A    between atoms: C_32  and  N_33
REMARK   11  A    between atoms: N_33  and  C_34
REMARK   12  A    between atoms: N_33  and  C_35
REMARK                            x       y       z     vdW  Elec       q    Type
REMARK                         _______ _______ _______ _____ _____    ______ ____
ROOT
ATOM      1  C   UNL     1       0.032   9.789  20.862  0.00  0.00    +0.000 A 
ATOM      2  C   UNL     1       0.599   8.529  20.985  0.00  0.00    +0.000 A 
ATOM      3  C   UNL     1       1.506   8.010  20.042  0.00  0.00    +0.000 A 
ATOM      4  C   UNL     1       2.030   6.718  20.105  0.00  0.00    +0.000 A 
ATOM      5  N   UNL     1       1.617   5.857  21.118  0.00  0.00    +0.000 N 
ATOM      6  N   UNL     1       2.880   6.273  19.185  0.00  0.00    +0.000 NA
ATOM      7  C   UNL     1       3.268   7.102  18.202  0.00  0.00    +0.000 A 
ATOM      8  N   UNL     1       4.214   6.644  17.314  0.00  0.00    +0.000 N 
ATOM      9  C   UNL     1       4.671   7.492  16.229  0.00  0.00    +0.000 C 
ATOM     10  C   UNL     1       4.792   6.708  14.918  0.00  0.00    +0.000 C 
ATOM     11  C   UNL     1       5.940   5.696  14.925  0.00  0.00    +0.000 C 
ATOM     12  N   UNL     1       5.637   4.364  15.471  0.00  0.00    +0.000 NA
ATOM     13  C   UNL     1       6.872   3.604  15.674  0.00  0.00    +0.000 C 
ATOM     14  C   UNL     1       4.796   4.346  16.679  0.00  0.00    +0.000 C 
ATOM     15  C   UNL     1       5.015   5.484  17.693  0.00  0.00    +0.000 C 
ATOM     16  N   UNL     1       2.773   8.344  18.058  0.00  0.00    +0.000 NA
ATOM     17  C   UNL     1       1.891   8.798  18.955  0.00  0.00    +0.000 A 
ATOM     18  C   UNL     1       1.345  10.085  18.846  0.00  0.00    +0.000 A 
ATOM     19  C   UNL     1       0.427  10.604  19.778  0.00  0.00    +0.000 A 
ATOM     20  H   UNL     1       1.641   6.261  22.042  0.00  0.00    +0.000 HD
ENDROOT
BRANCH   5  21
ATOM     21  C   UNL     1       1.772   4.398  21.064  0.00  0.00    +0.000 C 
ATOM     22  C   UNL     1       3.275   4.135  20.898  0.00  0.00    +0.000 C 
ATOM     23  C   UNL     1       3.619   2.790  20.278  0.00  0.00    +0.000 C 
ATOM     24  N   UNL     1       2.856   2.556  19.047  0.00  0.00    +0.000 NA
ATOM     25  C   UNL     1       3.288   1.309  18.413  0.00  0.00    +0.000 C 
ATOM     26  C   UNL     1       1.423   2.510  19.353  0.00  0.00    +0.000 C 
ATOM     27  C   UNL     1       0.929   3.847  19.904  0.00  0.00    +0.000 C 
ENDBRANCH   5  21
BRANCH   1  29
ATOM     28  C   UNL     1      -0.683  10.040  23.160  0.00  0.00    +0.000 C 
ATOM     29  O   UNL     1      -0.870  10.256  21.772  0.00  0.00    +0.000 OA
ENDBRANCH   1  29
BRANCH  19  30
ATOM     30  O   UNL     1       0.017  11.895  19.515  0.00  0.00    +0.000 OA
BRANCH  30  31
ATOM     31  C   UNL     1      -0.872  12.043  18.410  0.00  0.00    +0.000 C 
BRANCH  31  32
ATOM     32  C   UNL     1      -2.159  11.228  18.489  0.00  0.00    +0.000 C 
BRANCH  32  33
ATOM     33  C   UNL     1      -2.132  10.234  17.307  0.00  0.00    +0.000 C 
BRANCH  33  34
ATOM     34  N   UNL     1      -3.323  10.230  16.447  0.00  0.00    +0.000 NA
ATOM     35  C   UNL     1      -4.231  11.329  16.774  0.00  0.00    +0.000 C 
ATOM     36  C   UNL     1      -2.912  10.340  15.040  0.00  0.00    +0.000 C 
ENDBRANCH  33  34
ENDBRANCH  32  33
ENDBRANCH  31  32
ENDBRANCH  30  31
ENDBRANCH  19  30
TORSDOF 7
ENDMDL
MODEL 2
REMARK VINA RESULT:      -6.4      1.691      2.342
REMARK  Name = 
REMARK  12 active torsions:
REMARK  status: ('A' for Active; 'I' for Inactive)
REMARK    1  A    between atoms: C_1  and  O_2
REMARK    2  A    between atoms: O_2  and  C_3
REMARK    3  A    between atoms: N_7  and  C_8
REMARK    4  A    between atoms: N_11  and  C_12
REMARK    5  A    between atoms: N_21  and  C_22
REMARK    6  A    between atoms: C_28  and  O_29
REMARK    7  A    between atoms: O_29  and  C_30
REMARK    8  A    between atoms: C_30  and  C_31
REMARK    9  A    between atoms: C_31  and  C_32
REMARK   10  A    between atoms: C_32  and  N_33
REMARK   11  A    between atoms: N_33  and  C_34
REMARK   12  A    between atoms: N_33  and  C_35
REMARK                            x       y       z     vdW  Elec       q    Type
REMARK                         _______ _______ _______ _____ _____    ______ ____
ROOT
ATOM      1  C   UNL     1       0.127   9.590  21.148  0.00  0.00    +0.000 A 
ATOM      2  C   UNL     1       0.641   8.302  21.176  0.00  0.00    +0.000 A 
ATOM      3  C   UNL     1       1.527   7.818  20.195  0.00  0.00    +0.000 A 
ATOM      4  C   UNL     1       1.997   6.504  20.161  0.00  0.00    +0.000 A 
ATOM      5  N   UNL     1       1.548   5.588  21.108  0.00  0.00    +0.000 N 
ATOM      6  N   UNL     1       2.829   6.094  19.208  0.00  0.00    +0.000 NA
ATOM      7  C   UNL     1       3.252   6.978  18.289  0.00  0.00    +0.000 A 
ATOM      8  N   UNL     1       4.179   6.548  17.367  0.00  0.00    +0.000 N 
ATOM      9  C   UNL     1       4.671   7.455  16.347  0.00  0.00    +0.000 C 
ATOM     10  C   UNL     1       4.761   6.766  14.982  0.00  0.00    +0.000 C 
ATOM     11  C   UNL     1       5.867   5.710  14.911  0.00  0.00    +0.000 C 
ATOM     12  N   UNL     1       5.509   4.355  15.357  0.00  0.00    +0.000 NA
ATOM     13  C   UNL     1       6.711   3.532  15.500  0.00  0.00    +0.000 C 
ATOM     14  C   UNL     1       4.666   4.281  16.562  0.00  0.00    +0.000 C 
ATOM     15  C   UNL     1       4.931   5.332  17.658  0.00  0.00    +0.000 C 
ATOM     16  N   UNL     1       2.808   8.246  18.239  0.00  0.00    +0.000 NA
ATOM     17  C   UNL     1       1.945   8.667  19.169  0.00  0.00    +0.000 A 
ATOM     18  C   UNL     1       1.452   9.981  19.157  0.00  0.00    +0.000 A 
ATOM     19  C   UNL     1       0.556  10.467  20.127  0.00  0.00    +0.000 A 
ATOM     20  H   UNL     1       1.588   5.921  22.059  0.00  0.00    +0.000 HD
ENDROOT
BRANCH   5  21
ATOM     21  C   UNL     1       1.643   4.132  20.945  0.00  0.00    +0.000 C 
ATOM     22  C   UNL     1       3.135   3.787  21.059  0.00  0.00    +0.000 C 
ATOM     23  C   UNL     1       3.535   2.480  20.393  0.00  0.00    +0.000 C 
ATOM     24  N   UNL     1       3.031   2.402  19.018  0.00  0.00    +0.000 NA
ATOM     25  C   UNL     1       3.526   1.188  18.365  0.00  0.00    +0.000 C 
ATOM     26  C   UNL     1       1.565   2.423  19.025  0.00  0.00    +0.000 C 
ATOM     27  C   UNL     1       1.031   3.737  19.593  0.00  0.00    +0.000 C 
ENDBRANCH   5  21
BRANCH   1  29
ATOM     28  C   UNL     1      -0.465   9.902  23.474  0.00  0.00    +0.000 C 
ATOM     29  O   UNL     1      -0.756  10.025  22.092  0.00  0.00    +0.000 OA
ENDBRANCH   1  29
BRANCH  19  30
ATOM     30  O   UNL     1       0.199  11.789  19.962  0.00  0.00    +0.000 OA
BRANCH  30  31
ATOM     31  C   UNL     1      -1.041  12.011  19.294  0.00  0.00    +0.000 C 
BRANCH  31  32
ATOM     32  C   UNL     1      -1.916  13.112  19.884  0.00  0.00    +0.000 C 
BRANCH  32  33
ATOM     33  C   UNL     1      -2.648  12.500  21.099  0.00  0.00    +0.000 C 
BRANCH  33  34
ATOM     34  N   UNL     1      -2.539  13.251  22.357  0.00  0.00    +0.000 NA
ATOM     35  C   UNL     1      -3.149  12.529  23.473  0.00  0.00    +0.000 C 
ATOM     36  C   UNL     1      -1.121  13.501  22.656  0.00  0.00    +0.000 C 
ENDBRANCH  33  34
ENDBRANCH  32  33
ENDBRANCH  31  32
ENDBRANCH  30  31
ENDBRANCH  19  30
TORSDOF 7
ENDMDL
MODEL 3
REMARK VINA RESULT:      -6.4      2.003      2.964
REMARK  Name = 
REMARK  12 active torsions:
REMARK  status: ('A' for Active; 'I' for Inactive)
REMARK    1  A    between atoms: C_1  and  O_2
REMARK    2  A    between atoms: O_2  and  C_3
REMARK    3  A    between atoms: N_7  and  C_8
REMARK    4  A    between atoms: N_11  and  C_12
REMARK    5  A    between atoms: N_21  and  C_22
REMARK    6  A    between atoms: C_28  and  O_29
REMARK    7  A    between atoms: O_29  and  C_30
REMARK    8  A    between atoms: C_30  and  C_31
REMARK    9  A    between atoms: C_31  and  C_32
REMARK   10  A    between atoms: C_32  and  N_33
REMARK   11  A    between atoms: N_33  and  C_34
REMARK   12  A    between atoms: N_33  and  C_35
REMARK                            x       y       z     vdW  Elec       q    Type
REMARK                         _______ _______ _______ _____ _____    ______ ____
ROOT
ATOM      1  C   UNL     1       0.057   9.794  20.904  0.00  0.00    +0.000 A 
ATOM      2  C   UNL     1       0.605   8.524  21.015  0.00  0.00    +0.000 A 
ATOM      3  C   UNL     1       1.507   8.003  20.069  0.00  0.00    +0.000 A 
ATOM      4  C   UNL     1       2.013   6.703  20.119  0.00  0.00    +0.000 A 
ATOM      5  N   UNL     1       1.584   5.836  21.121  0.00  0.00    +0.000 N 
ATOM      6  N   UNL     1       2.859   6.256  19.196  0.00  0.00    +0.000 NA
ATOM      7  C   UNL     1       3.262   7.090  18.224  0.00  0.00    +0.000 A 
ATOM      8  N   UNL     1       4.204   6.628  17.334  0.00  0.00    +0.000 N 
ATOM      9  C   UNL     1       4.676   7.482  16.260  0.00  0.00    +0.000 C 
ATOM     10  C   UNL     1       4.790   6.711  14.941  0.00  0.00    +0.000 C 
ATOM     11  C   UNL     1       5.924   5.682  14.940  0.00  0.00    +0.000 C 
ATOM     12  N   UNL     1       5.600   4.348  15.470  0.00  0.00    +0.000 NA
ATOM     13  C   UNL     1       6.823   3.569  15.667  0.00  0.00    +0.000 C 
ATOM     14  C   UNL     1       4.754   4.329  16.675  0.00  0.00    +0.000 C 
ATOM     15  C   UNL     1       4.987   5.453  17.702  0.00  0.00    +0.000 C 
ATOM     16  N   UNL     1       2.785   8.341  18.093  0.00  0.00    +0.000 NA
ATOM     17  C   UNL     1       1.907   8.797  18.992  0.00  0.00    +0.000 A 
ATOM     18  C   UNL     1       1.379  10.093  18.896  0.00  0.00    +0.000 A 
ATOM     19  C   UNL     1       0.467  10.615  19.831  0.00  0.00    +0.000 A 
ATOM     20  H   UNL     1       1.611   6.230  22.049  0.00  0.00    +0.000 HD
ENDROOT
BRANCH   5  21
ATOM     21  C   UNL     1       1.719   4.376  21.051  0.00  0.00    +0.000 C 
ATOM     22  C   UNL     1       3.223   4.091  20.947  0.00  0.00    +0.000 C 
ATOM     23  C   UNL     1       3.572   2.749  20.322  0.00  0.00    +0.000 C 
ATOM     24  N   UNL     1       2.860   2.547  19.055  0.00  0.00    +0.000 NA
ATOM     25  C   UNL     1       3.300   1.303  18.421  0.00  0.00    +0.000 C 
ATOM     26  C   UNL     1       1.415   2.519  19.297  0.00  0.00    +0.000 C 
ATOM     27  C   UNL     1       0.918   3.856  19.848  0.00  0.00    +0.000 C 
ENDBRANCH   5  21
BRANCH   1  29
ATOM     28  C   UNL     1      -0.654  10.042  23.204  0.00  0.00    +0.000 C 
ATOM     29  O   UNL     1      -0.842  10.264  21.817  0.00  0.00    +0.000 OA
ENDBRANCH   1  29
BRANCH  19  30
ATOM     30  O   UNL     1       0.076  11.915  19.581  0.00  0.00    +0.000 OA
BRANCH  30  31
ATOM     31  C   UNL     1       1.008  12.704  18.846  0.00  0.00    +0.000 C 
BRANCH  31  32
ATOM     32  C   UNL     1       0.803  14.213  18.934  0.00  0.00    +0.000 C 
BRANCH  32  33
ATOM     33  C   UNL     1       2.110  14.810  19.501  0.00  0.00    +0.000 C 
BRANCH  33  34
ATOM     34  N   UNL     1       3.227  14.924  18.553  0.00  0.00    +0.000 NA
ATOM     35  C   UNL     1       3.118  16.128  17.730  0.00  0.00    +0.000 C 
ATOM     36  C   UNL     1       4.496  14.952  19.293  0.00  0.00    +0.000 C 
ENDBRANCH  33  34
ENDBRANCH  32  33
ENDBRANCH  31  32
ENDBRANCH  30  31
ENDBRANCH  19  30
TORSDOF 7
ENDMDL
MODEL 4
REMARK VINA RESULT:      -6.3      0.917      1.213
REMARK  Name = 
REMARK  12 active torsions:
REMARK  status: ('A' for Active; 'I' for Inactive)
REMARK    1  A    between atoms: C_1  and  O_2
REMARK    2  A    between atoms: O_2  and  C_3
REMARK    3  A    between atoms: N_7  and  C_8
REMARK    4  A    between atoms: N_11  and  C_12
REMARK    5  A    between atoms: N_21  and  C_22
REMARK    6  A    between atoms: C_28  and  O_29
REMARK    7  A    between atoms: O_29  and  C_30
REMARK    8  A    between atoms: C_30  and  C_31
REMARK    9  A    between atoms: C_31  and  C_32
REMARK   10  A    between atoms: C_32  and  N_33
REMARK   11  A    between atoms: N_33  and  C_34
REMARK   12  A    between atoms: N_33  and  C_35
REMARK                            x       y       z     vdW  Elec       q    Type
REMARK                         _______ _______ _______ _____ _____    ______ ____
ROOT
ATOM      1  C   UNL     1       0.094   9.795  20.921  0.00  0.00    +0.000 A 
ATOM      2  C   UNL     1       0.570   8.494  20.988  0.00  0.00    +0.000 A 
ATOM      3  C   UNL     1       1.475   7.967  20.047  0.00  0.00    +0.000 A 
ATOM      4  C   UNL     1       1.908   6.641  20.051  0.00  0.00    +0.000 A 
ATOM      5  N   UNL     1       1.400   5.754  20.997  0.00  0.00    +0.000 N 
ATOM      6  N   UNL     1       2.760   6.190  19.135  0.00  0.00    +0.000 NA
ATOM      7  C   UNL     1       3.239   7.045  18.216  0.00  0.00    +0.000 A 
ATOM      8  N   UNL     1       4.184   6.573  17.335  0.00  0.00    +0.000 N 
ATOM      9  C   UNL     1       4.737   7.447  16.318  0.00  0.00    +0.000 C 
ATOM     10  C   UNL     1       4.853   6.732  14.968  0.00  0.00    +0.000 C 
ATOM     11  C   UNL     1       5.930   5.644  14.953  0.00  0.00    +0.000 C 
ATOM     12  N   UNL     1       5.518   4.308  15.409  0.00  0.00    +0.000 NA
ATOM     13  C   UNL     1       6.690   3.454  15.607  0.00  0.00    +0.000 C 
ATOM     14  C   UNL     1       4.633   4.280  16.585  0.00  0.00    +0.000 C 
ATOM     15  C   UNL     1       4.891   5.341  17.671  0.00  0.00    +0.000 C 
ATOM     16  N   UNL     1       2.834   8.324  18.130  0.00  0.00    +0.000 NA
ATOM     17  C   UNL     1       1.952   8.787  19.022  0.00  0.00    +0.000 A 
ATOM     18  C   UNL     1       1.498  10.113  18.971  0.00  0.00    +0.000 A 
ATOM     19  C   UNL     1       0.583  10.641  19.901  0.00  0.00    +0.000 A 
ATOM     20  H   UNL     1       1.417   6.103  21.944  0.00  0.00    +0.000 HD
ENDROOT
BRANCH   5  21
ATOM     21  C   UNL     1       1.459   4.294  20.863  0.00  0.00    +0.000 C 
ATOM     22  C   UNL     1       2.913   3.897  21.151  0.00  0.00    +0.000 C 
ATOM     23  C   UNL     1       3.338   2.566  20.550  0.00  0.00    +0.000 C 
ATOM     24  N   UNL     1       2.993   2.486  19.127  0.00  0.00    +0.000 NA
ATOM     25  C   UNL     1       3.513   1.246  18.549  0.00  0.00    +0.000 C 
ATOM     26  C   UNL     1       1.538   2.560  18.964  0.00  0.00    +0.000 C 
ATOM     27  C   UNL     1       0.991   3.901  19.452  0.00  0.00    +0.000 C 
ENDBRANCH   5  21
BRANCH   1  29
ATOM     28  C   UNL     1      -0.627  10.059  23.216  0.00  0.00    +0.000 C 
ATOM     29  O   UNL     1      -0.808  10.272  21.826  0.00  0.00    +0.000 OA
ENDBRANCH   1  29
BRANCH  19  30
ATOM     30  O   UNL     1       0.271  11.970  19.701  0.00  0.00    +0.000 OA
BRANCH  30  31
ATOM     31  C   UNL     1      -0.879  12.215  18.895  0.00  0.00    +0.000 C 
BRANCH  31  32
ATOM     32  C   UNL     1      -2.061  12.856  19.615  0.00  0.00    +0.000 C 
BRANCH  32  33
ATOM     33  C   UNL     1      -3.226  11.844  19.551  0.00  0.00    +0.000 C 
BRANCH  33  34
ATOM     34  N   UNL     1      -4.205  12.061  18.478  0.00  0.00    +0.000 NA
ATOM     35  C   UNL     1      -4.437  10.843  17.701  0.00  0.00    +0.000 C 
ATOM     36  C   UNL     1      -5.476  12.518  19.058  0.00  0.00    +0.000 C 
ENDBRANCH  33  34
ENDBRANCH  32  33
ENDBRANCH  31  32
ENDBRANCH  30  31
ENDBRANCH  19  30
TORSDOF 7
ENDMDL
MODEL 5
REMARK VINA RESULT:      -6.3      4.757     10.970
REMARK  Name = 
REMARK  12 active torsions:
REMARK  status: ('A' for Active; 'I' for Inactive)
REMARK    1  A    between atoms: C_1  and  O_2
REMARK    2  A    between atoms: O_2  and  C_3
REMARK    3  A    between atoms: N_7  and  C_8
REMARK    4  A    between atoms: N_11  and  C_12
REMARK    5  A    between atoms: N_21  and  C_22
REMARK    6  A    between atoms: C_28  and  O_29
REMARK    7  A    between atoms: O_29  and  C_30
REMARK    8  A    between atoms: C_30  and  C_31
REMARK    9  A    between atoms: C_31  and  C_32
REMARK   10  A    between atoms: C_32  and  N_33
REMARK   11  A    between atoms: N_33  and  C_34
REMARK   12  A    between atoms: N_33  and  C_35
REMARK                            x       y       z     vdW  Elec       q    Type
REMARK                         _______ _______ _______ _____ _____    ______ ____
ROOT
ATOM      1  C   UNL     1      -2.442  10.147  17.303  0.00  0.00    +0.000 A 
ATOM      2  C   UNL     1      -3.463  10.916  17.841  0.00  0.00    +0.000 A 
ATOM      3  C   UNL     1      -3.276  11.747  18.962  0.00  0.00    +0.000 A 
ATOM      4  C   UNL     1      -4.305  12.471  19.566  0.00  0.00    +0.000 A 
ATOM      5  N   UNL     1      -5.606  12.350  19.085  0.00  0.00    +0.000 N 
ATOM      6  N   UNL     1      -4.078  13.238  20.628  0.00  0.00    +0.000 NA
ATOM      7  C   UNL     1      -2.824  13.343  21.098  0.00  0.00    +0.000 A 
ATOM      8  N   UNL     1      -2.603  14.210  22.144  0.00  0.00    +0.000 N 
ATOM      9  C   UNL     1      -1.271  14.365  22.697  0.00  0.00    +0.000 C 
ATOM     10  C   UNL     1      -1.302  14.416  24.227  0.00  0.00    +0.000 C 
ATOM     11  C   UNL     1      -1.935  15.698  24.775  0.00  0.00    +0.000 C 
ATOM     12  N   UNL     1      -3.397  15.691  24.936  0.00  0.00    +0.000 NA
ATOM     13  C   UNL     1      -3.887  17.045  25.194  0.00  0.00    +0.000 C 
ATOM     14  C   UNL     1      -4.155  15.047  23.850  0.00  0.00    +0.000 C 
ATOM     15  C   UNL     1      -3.609  15.230  22.422  0.00  0.00    +0.000 C 
ATOM     16  N   UNL     1      -1.794  12.643  20.590  0.00  0.00    +0.000 NA
ATOM     17  C   UNL     1      -2.010  11.841  19.543  0.00  0.00    +0.000 A 
ATOM     18  C   UNL     1      -0.968  11.089  18.980  0.00  0.00    +0.000 A 
ATOM     19  C   UNL     1      -1.151  10.247  17.867  0.00  0.00    +0.000 A 
ATOM     20  H   UNL     1      -5.689  12.445  18.084  0.00  0.00    +0.000 HD
ENDROOT
BRANCH   5  21
ATOM     21  C   UNL     1      -6.800  12.724  19.853  0.00  0.00    +0.000 C 
ATOM     22  C   UNL     1      -6.574  14.169  20.317  0.00  0.00    +0.000 C 
ATOM     23  C   UNL     1      -7.373  14.573  21.546  0.00  0.00    +0.000 C 
ATOM     24  N   UNL     1      -7.224  13.594  22.627  0.00  0.00    +0.000 NA
ATOM     25  C   UNL     1      -7.910  14.063  23.833  0.00  0.00    +0.000 C 
ATOM     26  C   UNL     1      -7.761  12.298  22.200  0.00  0.00    +0.000 C 
ATOM     27  C   UNL     1      -6.977  11.735  21.015  0.00  0.00    +0.000 C 
ENDBRANCH   5  21
BRANCH   1  29
ATOM     28  C   UNL     1      -2.879   9.855  14.941  0.00  0.00    +0.000 C 
ATOM     29  O   UNL     1      -2.657   9.325  16.236  0.00  0.00    +0.000 OA
ENDBRANCH   1  29
BRANCH  19  30
ATOM     30  O   UNL     1      -0.006   9.605  17.444  0.00  0.00    +0.000 OA
BRANCH  30  31
ATOM     31  C   UNL     1       0.994   9.414  18.443  0.00  0.00    +0.000 C 
BRANCH  31  32
ATOM     32  C   UNL     1       2.229   8.638  17.995  0.00  0.00    +0.000 C 
BRANCH  32  33
ATOM     33  C   UNL     1       2.532   7.603  19.100  0.00  0.00    +0.000 C 
BRANCH  33  34
ATOM     34  N   UNL     1       2.866   6.249  18.636  0.00  0.00    +0.000 NA
ATOM     35  C   UNL     1       3.185   5.358  19.751  0.00  0.00    +0.000 C 
ATOM     36  C   UNL     1       1.733   5.698  17.880  0.00  0.00    +0.000 C 
ENDBRANCH  33  34
ENDBRANCH  32  33
ENDBRANCH  31  32
ENDBRANCH  30  31
ENDBRANCH  19  30
TORSDOF 7
ENDMDL
MODEL 6
REMARK VINA RESULT:      -6.2      1.968      2.808
REMARK  Name = 
REMARK  12 active torsions:
REMARK  status: ('A' for Active; 'I' for Inactive)
REMARK    1  A    between atoms: C_1  and  O_2
REMARK    2  A    between atoms: O_2  and  C_3
REMARK    3  A    between atoms: N_7  and  C_8
REMARK    4  A    between atoms: N_11  and  C_12
REMARK    5  A    between atoms: N_21  and  C_22
REMARK    6  A    between atoms: C_28  and  O_29
REMARK    7  A    between atoms: O_29  and  C_30
REMARK    8  A    between atoms: C_30  and  C_31
REMARK    9  A    between atoms: C_31  and  C_32
REMARK   10  A    between atoms: C_32  and  N_33
REMARK   11  A    between atoms: N_33  and  C_34
REMARK   12  A    between atoms: N_33  and  C_35
REMARK                            x       y       z     vdW  Elec       q    Type
REMARK                         _______ _______ _______ _____ _____    ______ ____
ROOT
ATOM      1  C   UNL     1       0.091   9.740  20.998  0.00  0.00    +0.000 A 
ATOM      2  C   UNL     1       0.568   8.438  21.045  0.00  0.00    +0.000 A 
ATOM      3  C   UNL     1       1.471   7.926  20.094  0.00  0.00    +0.000 A 
ATOM      4  C   UNL     1       1.905   6.600  20.077  0.00  0.00    +0.000 A 
ATOM      5  N   UNL     1       1.400   5.699  21.011  0.00  0.00    +0.000 N 
ATOM      6  N   UNL     1       2.755   6.163  19.152  0.00  0.00    +0.000 NA
ATOM      7  C   UNL     1       3.230   7.032  18.244  0.00  0.00    +0.000 A 
ATOM      8  N   UNL     1       4.173   6.574  17.354  0.00  0.00    +0.000 N 
ATOM      9  C   UNL     1       4.723   7.463  16.348  0.00  0.00    +0.000 C 
ATOM     10  C   UNL     1       4.836   6.768  14.987  0.00  0.00    +0.000 C 
ATOM     11  C   UNL     1       5.914   5.681  14.954  0.00  0.00    +0.000 C 
ATOM     12  N   UNL     1       5.504   4.338  15.391  0.00  0.00    +0.000 NA
ATOM     13  C   UNL     1       6.677   3.482  15.574  0.00  0.00    +0.000 C 
ATOM     14  C   UNL     1       4.622   4.292  16.570  0.00  0.00    +0.000 C 
ATOM     15  C   UNL     1       4.882   5.338  17.670  0.00  0.00    +0.000 C 
ATOM     16  N   UNL     1       2.824   8.312  18.178  0.00  0.00    +0.000 NA
ATOM     17  C   UNL     1       1.944   8.760  19.079  0.00  0.00    +0.000 A 
ATOM     18  C   UNL     1       1.489  10.087  19.049  0.00  0.00    +0.000 A 
ATOM     19  C   UNL     1       0.577  10.601  19.989  0.00  0.00    +0.000 A 
ATOM     20  H   UNL     1       1.420   6.034  21.963  0.00  0.00    +0.000 HD
ENDROOT
BRANCH   5  21
ATOM     21  C   UNL     1       1.460   4.241  20.855  0.00  0.00    +0.000 C 
ATOM     22  C   UNL     1       2.909   3.838  21.161  0.00  0.00    +0.000 C 
ATOM     23  C   UNL     1       3.343   2.516  20.547  0.00  0.00    +0.000 C 
ATOM     24  N   UNL     1       3.021   2.459  19.117  0.00  0.00    +0.000 NA
ATOM     25  C   UNL     1       3.549   1.226  18.529  0.00  0.00    +0.000 C 
ATOM     26  C   UNL     1       1.569   2.536  18.932  0.00  0.00    +0.000 C 
ATOM     27  C   UNL     1       1.016   3.870  19.432  0.00  0.00    +0.000 C 
ENDBRANCH   5  21
BRANCH   1  29
ATOM     28  C   UNL     1      -0.631   9.956  23.297  0.00  0.00    +0.000 C 
ATOM     29  O   UNL     1      -0.808  10.202  21.913  0.00  0.00    +0.000 OA
ENDBRANCH   1  29
BRANCH  19  30
ATOM     30  O   UNL     1       0.263  11.932  19.809  0.00  0.00    +0.000 OA
BRANCH  30  31
ATOM     31  C   UNL     1       0.784  12.530  18.624  0.00  0.00    +0.000 C 
BRANCH  31  32
ATOM     32  C   UNL     1       1.681  13.744  18.841  0.00  0.00    +0.000 C 
BRANCH  32  33
ATOM     33  C   UNL     1       0.853  14.775  19.639  0.00  0.00    +0.000 C 
BRANCH  33  34
ATOM     34  N   UNL     1       1.384  15.139  20.960  0.00  0.00    +0.000 NA
ATOM     35  C   UNL     1       0.525  14.656  22.041  0.00  0.00    +0.000 C 
ATOM     36  C   UNL     1       2.731  14.571  21.119  0.00  0.00    +0.000 C 
ENDBRANCH  33  34
ENDBRANCH  32  33
ENDBRANCH  31  32
ENDBRANCH  30  31
ENDBRANCH  19  30
TORSDOF 7
ENDMDL
MODEL 7
REMARK VINA RESULT:      -6.2      1.767      2.457
REMARK  Name = 
REMARK  12 active torsions:
REMARK  status: ('A' for Active; 'I' for Inactive)
REMARK    1  A    between atoms: C_1  and  O_2
REMARK    2  A    between atoms: O_2  and  C_3
REMARK    3  A    between atoms: N_7  and  C_8
REMARK    4  A    between atoms: N_11  and  C_12
REMARK    5  A    between atoms: N_21  and  C_22
REMARK    6  A    between atoms: C_28  and  O_29
REMARK    7  A    between atoms: O_29  and  C_30
REMARK    8  A    between atoms: C_30  and  C_31
REMARK    9  A    between atoms: C_31  and  C_32
REMARK   10  A    between atoms: C_32  and  N_33
REMARK   11  A    between atoms: N_33  and  C_34
REMARK   12  A    between atoms: N_33  and  C_35
REMARK                            x       y       z     vdW  Elec       q    Type
REMARK                         _______ _______ _______ _____ _____    ______ ____
ROOT
ATOM      1  C   UNL     1      -0.091   9.390  21.267  0.00  0.00    +0.000 A 
ATOM      2  C   UNL     1       0.443   8.109  21.265  0.00  0.00    +0.000 A 
ATOM      3  C   UNL     1       1.365   7.673  20.295  0.00  0.00    +0.000 A 
ATOM      4  C   UNL     1       1.857   6.370  20.228  0.00  0.00    +0.000 A 
ATOM      5  N   UNL     1       1.395   5.413  21.128  0.00  0.00    +0.000 N 
ATOM      6  N   UNL     1       2.723   6.006  19.287  0.00  0.00    +0.000 NA
ATOM      7  C   UNL     1       3.158   6.928  18.412  0.00  0.00    +0.000 A 
ATOM      8  N   UNL     1       4.118   6.545  17.504  0.00  0.00    +0.000 N 
ATOM      9  C   UNL     1       4.625   7.496  16.531  0.00  0.00    +0.000 C 
ATOM     10  C   UNL     1       4.766   6.857  15.146  0.00  0.00    +0.000 C 
ATOM     11  C   UNL     1       5.890   5.821  15.071  0.00  0.00    +0.000 C 
ATOM     12  N   UNL     1       5.541   4.445  15.458  0.00  0.00    +0.000 NA
ATOM     13  C   UNL     1       6.751   3.636  15.607  0.00  0.00    +0.000 C 
ATOM     14  C   UNL     1       4.665   4.317  16.634  0.00  0.00    +0.000 C 
ATOM     15  C   UNL     1       4.881   5.331  17.773  0.00  0.00    +0.000 C 
ATOM     16  N   UNL     1       2.695   8.191  18.394  0.00  0.00    +0.000 NA
ATOM     17  C   UNL     1       1.799   8.565  19.311  0.00  0.00    +0.000 A 
ATOM     18  C   UNL     1       1.285   9.871  19.332  0.00  0.00    +0.000 A 
ATOM     19  C   UNL     1       0.354  10.308  20.291  0.00  0.00    +0.000 A 
ATOM     20  H   UNL     1       1.402   5.712  22.092  0.00  0.00    +0.000 HD
ENDROOT
BRANCH   5  21
ATOM     21  C   UNL     1       1.519   3.965  20.918  0.00  0.00    +0.000 C 
ATOM     22  C   UNL     1       2.997   3.625  21.150  0.00  0.00    +0.000 C 
ATOM     23  C   UNL     1       3.468   2.348  20.472  0.00  0.00    +0.000 C 
ATOM     24  N   UNL     1       3.090   2.323  19.055  0.00  0.00    +0.000 NA
ATOM     25  C   UNL     1       3.652   1.140  18.402  0.00  0.00    +0.000 C 
ATOM     26  C   UNL     1       1.628   2.335  18.931  0.00  0.00    +0.000 C 
ATOM     27  C   UNL     1       1.033   3.622  19.501  0.00  0.00    +0.000 C 
ENDBRANCH   5  21
BRANCH   1  29
ATOM     28  C   UNL     1      -0.744  10.861  23.074  0.00  0.00    +0.000 C 
ATOM     29  O   UNL     1      -1.008   9.777  22.200  0.00  0.00    +0.000 OA
ENDBRANCH   1  29
BRANCH  19  30
ATOM     30  O   UNL     1      -0.019  11.630  20.162  0.00  0.00    +0.000 OA
BRANCH  30  31
ATOM     31  C   UNL     1      -0.515  12.004  18.878  0.00  0.00    +0.000 C 
BRANCH  31  32
ATOM     32  C   UNL     1      -0.080  13.379  18.381  0.00  0.00    +0.000 C 
BRANCH  32  33
ATOM     33  C   UNL     1       0.148  14.256  19.632  0.00  0.00    +0.000 C 
BRANCH  33  34
ATOM     34  N   UNL     1       0.679  15.603  19.382  0.00  0.00    +0.000 NA
ATOM     35  C   UNL     1       1.964  15.557  18.685  0.00  0.00    +0.000 C 
ATOM     36  C   UNL     1      -0.285  16.367  18.577  0.00  0.00    +0.000 C 
ENDBRANCH  33  34
ENDBRANCH  32  33
ENDBRANCH  31  32
ENDBRANCH  30  31
ENDBRANCH  19  30
TORSDOF 7
ENDMDL
MODEL 8
REMARK VINA RESULT:      -6.1      4.862      8.362
REMARK  Name = 
REMARK  12 active torsions:
REMARK  status: ('A' for Active; 'I' for Inactive)
REMARK    1  A    between atoms: C_1  and  O_2
REMARK    2  A    between atoms: O_2  and  C_3
REMARK    3  A    between atoms: N_7  and  C_8
REMARK    4  A    between atoms: N_11  and  C_12
REMARK    5  A    between atoms: N_21  and  C_22
REMARK    6  A    between atoms: C_28  and  O_29
REMARK    7  A    between atoms: O_29  and  C_30
REMARK    8  A    between atoms: C_30  and  C_31
REMARK    9  A    between atoms: C_31  and  C_32
REMARK   10  A    between atoms: C_32  and  N_33
REMARK   11  A    between atoms: N_33  and  C_34
REMARK   12  A    between atoms: N_33  and  C_35
REMARK                            x       y       z     vdW  Elec       q    Type
REMARK                         _______ _______ _______ _____ _____    ______ ____
ROOT
ATOM      1  C   UNL     1      -5.348  12.970  22.157  0.00  0.00    +0.000 A 
ATOM      2  C   UNL     1      -4.007  12.615  22.196  0.00  0.00    +0.000 A 
ATOM      3  C   UNL     1      -3.000  13.392  21.595  0.00  0.00    +0.000 A 
ATOM      4  C   UNL     1      -1.656  13.018  21.556  0.00  0.00    +0.000 A 
ATOM      5  N   UNL     1      -1.268  11.793  22.092  0.00  0.00    +0.000 N 
ATOM      6  N   UNL     1      -0.742  13.785  20.970  0.00  0.00    +0.000 NA
ATOM      7  C   UNL     1      -1.122  14.961  20.442  0.00  0.00    +0.000 A 
ATOM      8  N   UNL     1      -0.143  15.774  19.920  0.00  0.00    +0.000 N 
ATOM      9  C   UNL     1      -0.490  17.055  19.333  0.00  0.00    +0.000 C 
ATOM     10  C   UNL     1       0.281  17.303  18.033  0.00  0.00    +0.000 C 
ATOM     11  C   UNL     1       1.776  17.545  18.257  0.00  0.00    +0.000 C 
ATOM     12  N   UNL     1       2.633  16.350  18.311  0.00  0.00    +0.000 NA
ATOM     13  C   UNL     1       3.966  16.702  18.801  0.00  0.00    +0.000 C 
ATOM     14  C   UNL     1       2.079  15.202  19.049  0.00  0.00    +0.000 C 
ATOM     15  C   UNL     1       1.243  15.522  20.302  0.00  0.00    +0.000 C 
ATOM     16  N   UNL     1      -2.404  15.365  20.409  0.00  0.00    +0.000 NA
ATOM     17  C   UNL     1      -3.342  14.591  20.964  0.00  0.00    +0.000 A 
ATOM     18  C   UNL     1      -4.693  14.968  20.953  0.00  0.00    +0.000 A 
ATOM     19  C   UNL     1      -5.707  14.189  21.540  0.00  0.00    +0.000 A 
ATOM     20  H   UNL     1      -1.627  11.612  23.018  0.00  0.00    +0.000 HD
ENDROOT
BRANCH   5  21
ATOM     21  C   UNL     1      -0.004  11.122  21.766  0.00  0.00    +0.000 C 
ATOM     22  C   UNL     1      -0.174  10.554  20.350  0.00  0.00    +0.000 C 
ATOM     23  C   UNL     1       0.741   9.386  20.020  0.00  0.00    +0.000 C 
ATOM     24  N   UNL     1       0.690   8.355  21.062  0.00  0.00    +0.000 NA
ATOM     25  C   UNL     1       1.491   7.195  20.666  0.00  0.00    +0.000 C 
ATOM     26  C   UNL     1       1.175   8.907  22.331  0.00  0.00    +0.000 C 
ATOM     27  C   UNL     1       0.278  10.042  22.822  0.00  0.00    +0.000 C 
ENDBRANCH   5  21
BRANCH   1  29
ATOM     28  C   UNL     1      -6.875  12.510  23.977  0.00  0.00    +0.000 C 
ATOM     29  O   UNL     1      -6.310  12.183  22.719  0.00  0.00    +0.000 OA
ENDBRANCH   1  29
BRANCH  19  30
ATOM     30  O   UNL     1      -6.971  14.733  21.446  0.00  0.00    +0.000 OA
BRANCH  30  31
ATOM     31  C   UNL     1      -7.506  14.814  20.126  0.00  0.00    +0.000 C 
BRANCH  31  32
ATOM     32  C   UNL     1      -7.876  13.480  19.486  0.00  0.00    +0.000 C 
BRANCH  32  33
ATOM     33  C   UNL     1      -6.959  13.305  18.255  0.00  0.00    +0.000 C 
BRANCH  33  34
ATOM     34  N   UNL     1      -6.021  12.176  18.311  0.00  0.00    +0.000 NA
ATOM     35  C   UNL     1      -6.700  10.923  18.640  0.00  0.00    +0.000 C 
ATOM     36  C   UNL     1      -5.344  12.037  17.013  0.00  0.00    +0.000 C 
ENDBRANCH  33  34
ENDBRANCH  32  33
ENDBRANCH  31  32
ENDBRANCH  30  31
ENDBRANCH  19  30
TORSDOF 7
ENDMDL
MODEL 9
REMARK VINA RESULT:      -6.1      3.672      9.762
REMARK  Name = 
REMARK  12 active torsions:
REMARK  status: ('A' for Active; 'I' for Inactive)
REMARK    1  A    between atoms: C_1  and  O_2
REMARK    2  A    between atoms: O_2  and  C_3
REMARK    3  A    between atoms: N_7  and  C_8
REMARK    4  A    between atoms: N_11  and  C_12
REMARK    5  A    between atoms: N_21  and  C_22
REMARK    6  A    between atoms: C_28  and  O_29
REMARK    7  A    between atoms: O_29  and  C_30
REMARK    8  A    between atoms: C_30  and  C_31
REMARK    9  A    between atoms: C_31  and  C_32
REMARK   10  A    between atoms: C_32  and  N_33
REMARK   11  A    between atoms: N_33  and  C_34
REMARK   12  A    between atoms: N_33  and  C_35
REMARK                            x       y       z     vdW  Elec       q    Type
REMARK                         _______ _______ _______ _____ _____    ______ ____
ROOT
ATOM      1  C   UNL     1       2.728   7.862  18.189  0.00  0.00    +0.000 A 
ATOM      2  C   UNL     1       2.600   9.244  18.187  0.00  0.00    +0.000 A 
ATOM      3  C   UNL     1       1.803   9.933  19.120  0.00  0.00    +0.000 A 
ATOM      4  C   UNL     1       1.599  11.313  19.092  0.00  0.00    +0.000 A 
ATOM      5  N   UNL     1       2.165  12.070  18.069  0.00  0.00    +0.000 N 
ATOM      6  N   UNL     1       0.831  11.916  19.994  0.00  0.00    +0.000 NA
ATOM      7  C   UNL     1       0.277  11.180  20.972  0.00  0.00    +0.000 A 
ATOM      8  N   UNL     1      -0.441  11.842  21.941  0.00  0.00    +0.000 N 
ATOM      9  C   UNL     1      -1.066  11.103  23.022  0.00  0.00    +0.000 C 
ATOM     10  C   UNL     1      -2.479  11.621  23.310  0.00  0.00    +0.000 C 
ATOM     11  C   UNL     1      -2.493  13.015  23.941  0.00  0.00    +0.000 C 
ATOM     12  N   UNL     1      -2.472  14.156  23.012  0.00  0.00    +0.000 NA
ATOM     13  C   UNL     1      -2.207  15.399  23.738  0.00  0.00    +0.000 C 
ATOM     14  C   UNL     1      -1.578  14.016  21.851  0.00  0.00    +0.000 C 
ATOM     15  C   UNL     1      -0.245  13.281  22.087  0.00  0.00    +0.000 C 
ATOM     16  N   UNL     1       0.398   9.843  21.036  0.00  0.00    +0.000 NA
ATOM     17  C   UNL     1       1.139   9.215  20.118  0.00  0.00    +0.000 A 
ATOM     18  C   UNL     1       1.294   7.821  20.142  0.00  0.00    +0.000 A 
ATOM     19  C   UNL     1       2.079   7.125  19.203  0.00  0.00    +0.000 A 
ATOM     20  H   UNL     1       3.143  11.884  17.908  0.00  0.00    +0.000 HD
ENDROOT
BRANCH   5  21
ATOM     21  C   UNL     1       1.711  13.418  17.704  0.00  0.00    +0.000 C 
ATOM     22  C   UNL     1       2.762  14.388  18.261  0.00  0.00    +0.000 C 
ATOM     23  C   UNL     1       2.257  15.803  18.497  0.00  0.00    +0.000 C 
ATOM     24  N   UNL     1       1.008  15.804  19.267  0.00  0.00    +0.000 NA
ATOM     25  C   UNL     1       0.606  17.178  19.576  0.00  0.00    +0.000 C 
ATOM     26  C   UNL     1      -0.043  15.118  18.510  0.00  0.00    +0.000 C 
ATOM     27  C   UNL     1       0.307  13.648  18.283  0.00  0.00    +0.000 C 
ENDBRANCH   5  21
BRANCH   1  29
ATOM     28  C   UNL     1       4.863   6.982  17.464  0.00  0.00    +0.000 C 
ATOM     29  O   UNL     1       3.481   7.215  17.253  0.00  0.00    +0.000 OA
ENDBRANCH   1  29
BRANCH  19  30
ATOM     30  O   UNL     1       2.127   5.761  19.401  0.00  0.00    +0.000 OA
BRANCH  30  31
ATOM     31  C   UNL     1       1.624   5.305  20.655  0.00  0.00    +0.000 C 
BRANCH  31  32
ATOM     32  C   UNL     1       1.235   3.831  20.710  0.00  0.00    +0.000 C 
BRANCH  32  33
ATOM     33  C   UNL     1       2.520   3.041  21.043  0.00  0.00    +0.000 C 
BRANCH  33  34
ATOM     34  N   UNL     1       3.138   2.323  19.920  0.00  0.00    +0.000 NA
ATOM     35  C   UNL     1       2.227   2.212  18.781  0.00  0.00    +0.000 C 
ATOM     36  C   UNL     1       4.359   3.026  19.502  0.00  0.00    +0.000 C 
ENDBRANCH  33  34
ENDBRANCH  32  33
ENDBRANCH  31  32
ENDBRANCH  30  31
ENDBRANCH  19  30
TORSDOF 7
ENDMDL
