MODEL 1
REMARK VINA RESULT:      -7.9      0.000      0.000
REMARK  Name = 
REMARK  5 active torsions:
REMARK  status: ('A' for Active; 'I' for Inactive)
REMARK    1  A    between atoms: N_3  and  C_4
REMARK    2  A    between atoms: C_7  and  O_8
REMARK    3  A    between atoms: O_8  and  C_9
REMARK    4  A    between atoms: C_9  and  C_10
REMARK    5  A    between atoms: N_18  and  C_19
REMARK                            x       y       z     vdW  Elec       q    Type
REMARK                         _______ _______ _______ _____ _____    ______ ____
ROOT
ATOM      1  C   UNL     1       6.563   6.958  17.137  0.00  0.00    +0.000 A 
ATOM      2  C   UNL     1       7.192   5.781  16.727  0.00  0.00    +0.000 A 
ATOM      3  C   UNL     1       6.508   4.573  16.683  0.00  0.00    +0.000 A 
ATOM      4  C   UNL     1       5.188   4.501  17.111  0.00  0.00    +0.000 A 
ATOM      5  C   UNL     1       4.536   5.671  17.509  0.00  0.00    +0.000 A 
ATOM      6  C   UNL     1       5.229   6.896  17.535  0.00  0.00    +0.000 A 
ENDROOT
BRANCH   1   9
ATOM      7  O   UNL     1       8.704   7.715  18.928  0.00  0.00    +0.000 OA
ATOM      8  C   UNL     1       8.213   8.497  18.119  0.00  0.00    +0.000 C 
ATOM      9  N   UNL     1       7.254   8.191  17.181  0.00  0.00    +0.000 N 
ATOM     10  N   UNL     1       8.579   9.822  18.129  0.00  0.00    +0.000 N 
ATOM     11  H   UNL     1       7.153   8.810  16.394  0.00  0.00    +0.000 HD
ATOM     12  H   UNL     1       8.420  10.380  17.305  0.00  0.00    +0.000 HD
BRANCH  10  13
ATOM     13  C   UNL     1       9.592  10.223  19.091  0.00  0.00    +0.000 C 
ATOM     14  C   UNL     1      10.506  11.325  18.614  0.00  0.00    +0.000 C 
ATOM     15  C   UNL     1      11.065  11.840  19.924  0.00  0.00    +0.000 C 
ATOM     16  O   UNL     1      10.006  11.753  20.883  0.00  0.00    +0.000 OA
ATOM     17  C   UNL     1       9.029  10.823  20.384  0.00  0.00    +0.000 C 
ENDBRANCH  10  13
ENDBRANCH   1   9
BRANCH   4  18
ATOM     18  O   UNL     1       4.475   3.334  17.190  0.00  0.00    +0.000 OA
BRANCH  18  19
ATOM     19  C   UNL     1       3.056   3.522  17.216  0.00  0.00    +0.000 C 
BRANCH  19  20
ATOM     20  C   UNL     1       2.560   3.426  18.631  0.00  0.00    +0.000 A 
ATOM     21  C   UNL     1       1.341   4.005  19.005  0.00  0.00    +0.000 A 
ATOM     22  C   UNL     1       0.886   3.888  20.317  0.00  0.00    +0.000 A 
ATOM     23  C   UNL     1       1.644   3.194  21.259  0.00  0.00    +0.000 A 
ATOM     24  C   UNL     1       2.860   2.618  20.896  0.00  0.00    +0.000 A 
ATOM     25  C   UNL     1       3.318   2.735  19.587  0.00  0.00    +0.000 A 
ENDBRANCH  19  20
ENDBRANCH  18  19
ENDBRANCH   4  18
TORSDOF 5
ENDMDL
MODEL 2
REMARK VINA RESULT:      -7.9      1.490      1.886
REMARK  Name = 
REMARK  5 active torsions:
REMARK  status: ('A' for Active; 'I' for Inactive)
REMARK    1  A    between atoms: N_3  and  C_4
REMARK    2  A    between atoms: C_7  and  O_8
REMARK    3  A    between atoms: O_8  and  C_9
REMARK    4  A    between atoms: C_9  and  C_10
REMARK    5  A    between atoms: N_18  and  C_19
REMARK                            x       y       z     vdW  Elec       q    Type
REMARK                         _______ _______ _______ _____ _____    ______ ____
ROOT
ATOM      1  C   UNL     1       7.319   7.462  17.752  0.00  0.00    +0.000 A 
ATOM      2  C   UNL     1       7.971   6.650  18.682  0.00  0.00    +0.000 A 
ATOM      3  C   UNL     1       7.451   5.417  19.055  0.00  0.00    +0.000 A 
ATOM      4  C   UNL     1       6.227   4.993  18.552  0.00  0.00    +0.000 A 
ATOM      5  C   UNL     1       5.568   5.785  17.608  0.00  0.00    +0.000 A 
ATOM      6  C   UNL     1       6.108   7.025  17.220  0.00  0.00    +0.000 A 
ENDROOT
BRANCH   1   9
ATOM      7  O   UNL     1       8.981   9.233  19.323  0.00  0.00    +0.000 OA
ATOM      8  C   UNL     1       8.568   9.534  18.207  0.00  0.00    +0.000 C 
ATOM      9  N   UNL     1       7.847   8.716  17.367  0.00  0.00    +0.000 N 
ATOM     10  N   UNL     1       8.774  10.799  17.711  0.00  0.00    +0.000 N 
ATOM     11  H   UNL     1       7.828   8.949  16.387  0.00  0.00    +0.000 HD
ATOM     12  H   UNL     1       8.713  10.951  16.716  0.00  0.00    +0.000 HD
BRANCH  10  13
ATOM     13  C   UNL     1       9.532  11.721  18.539  0.00  0.00    +0.000 C 
ATOM     14  C   UNL     1      10.977  11.883  18.134  0.00  0.00    +0.000 C 
ATOM     15  C   UNL     1      11.332  13.194  18.804  0.00  0.00    +0.000 C 
ATOM     16  O   UNL     1      10.165  14.020  18.730  0.00  0.00    +0.000 OA
ATOM     17  C   UNL     1       9.031  13.168  18.491  0.00  0.00    +0.000 C 
ENDBRANCH  10  13
ENDBRANCH   1   9
BRANCH   4  18
ATOM     18  O   UNL     1       5.601   3.840  18.943  0.00  0.00    +0.000 OA
BRANCH  18  19
ATOM     19  C   UNL     1       4.353   3.605  18.281  0.00  0.00    +0.000 C 
BRANCH  19  20
ATOM     20  C   UNL     1       3.267   3.421  19.302  0.00  0.00    +0.000 A 
ATOM     21  C   UNL     1       3.517   2.745  20.502  0.00  0.00    +0.000 A 
ATOM     22  C   UNL     1       2.504   2.601  21.448  0.00  0.00    +0.000 A 
ATOM     23  C   UNL     1       1.238   3.129  21.199  0.00  0.00    +0.000 A 
ATOM     24  C   UNL     1       0.979   3.800  20.005  0.00  0.00    +0.000 A 
ATOM     25  C   UNL     1       1.989   3.944  19.059  0.00  0.00    +0.000 A 
ENDBRANCH  19  20
ENDBRANCH  18  19
ENDBRANCH   4  18
TORSDOF 5
ENDMDL
MODEL 3
REMARK VINA RESULT:      -7.9      1.472      1.781
REMARK  Name = 
REMARK  5 active torsions:
REMARK  status: ('A' for Active; 'I' for Inactive)
REMARK    1  A    between atoms: N_3  and  C_4
REMARK    2  A    between atoms: C_7  and  O_8
REMARK    3  A    between atoms: O_8  and  C_9
REMARK    4  A    between atoms: C_9  and  C_10
REMARK    5  A    between atoms: N_18  and  C_19
REMARK                            x       y       z     vdW  Elec       q    Type
REMARK                         _______ _______ _______ _____ _____    ______ ____
ROOT
ATOM      1  C   UNL     1       7.278   7.483  17.761  0.00  0.00    +0.000 A 
ATOM      2  C   UNL     1       5.991   7.149  17.334  0.00  0.00    +0.000 A 
ATOM      3  C   UNL     1       5.377   5.973  17.744  0.00  0.00    +0.000 A 
ATOM      4  C   UNL     1       6.063   5.067  18.544  0.00  0.00    +0.000 A 
ATOM      5  C   UNL     1       7.345   5.392  18.995  0.00  0.00    +0.000 A 
ATOM      6  C   UNL     1       7.957   6.593  18.591  0.00  0.00    +0.000 A 
ENDROOT
BRANCH   1   9
ATOM      7  O   UNL     1       8.887   9.273  19.366  0.00  0.00    +0.000 OA
ATOM      8  C   UNL     1       8.593   9.517  18.199  0.00  0.00    +0.000 C 
ATOM      9  N   UNL     1       7.907   8.681  17.349  0.00  0.00    +0.000 N 
ATOM     10  N   UNL     1       8.913  10.734  17.646  0.00  0.00    +0.000 N 
ATOM     11  H   UNL     1       7.989   8.847  16.359  0.00  0.00    +0.000 HD
ATOM     12  H   UNL     1       8.950  10.821  16.642  0.00  0.00    +0.000 HD
BRANCH  10  13
ATOM     13  C   UNL     1       9.643  11.671  18.482  0.00  0.00    +0.000 C 
ATOM     14  C   UNL     1      11.115  11.779  18.163  0.00  0.00    +0.000 C 
ATOM     15  C   UNL     1      11.463  13.109  18.799  0.00  0.00    +0.000 C 
ATOM     16  O   UNL     1      10.327  13.960  18.616  0.00  0.00    +0.000 OA
ATOM     17  C   UNL     1       9.186  13.127  18.342  0.00  0.00    +0.000 C 
ENDBRANCH  10  13
ENDBRANCH   1   9
BRANCH   4  18
ATOM     18  O   UNL     1       5.566   3.845  18.910  0.00  0.00    +0.000 OA
BRANCH  18  19
ATOM     19  C   UNL     1       4.336   3.501  18.261  0.00  0.00    +0.000 C 
BRANCH  19  20
ATOM     20  C   UNL     1       3.244   3.375  19.284  0.00  0.00    +0.000 A 
ATOM     21  C   UNL     1       1.957   3.861  19.024  0.00  0.00    +0.000 A 
ATOM     22  C   UNL     1       0.950   3.717  19.976  0.00  0.00    +0.000 A 
ATOM     23  C   UNL     1       1.223   3.091  21.191  0.00  0.00    +0.000 A 
ATOM     24  C   UNL     1       2.503   2.609  21.461  0.00  0.00    +0.000 A 
ATOM     25  C   UNL     1       3.511   2.752  20.512  0.00  0.00    +0.000 A 
ENDBRANCH  19  20
ENDBRANCH  18  19
ENDBRANCH   4  18
TORSDOF 5
ENDMDL
MODEL 4
REMARK VINA RESULT:      -7.8      1.502      2.062
REMARK  Name = 
REMARK  5 active torsions:
REMARK  status: ('A' for Active; 'I' for Inactive)
REMARK    1  A    between atoms: N_3  and  C_4
REMARK    2  A    between atoms: C_7  and  O_8
REMARK    3  A    between atoms: O_8  and  C_9
REMARK    4  A    between atoms: C_9  and  C_10
REMARK    5  A    between atoms: N_18  and  C_19
REMARK                            x       y       z     vdW  Elec       q    Type
REMARK                         _______ _______ _______ _____ _____    ______ ____
ROOT
ATOM      1  C   UNL     1       7.349   7.521  17.777  0.00  0.00    +0.000 A 
ATOM      2  C   UNL     1       6.071   7.189  17.324  0.00  0.00    +0.000 A 
ATOM      3  C   UNL     1       5.435   6.027  17.741  0.00  0.00    +0.000 A 
ATOM      4  C   UNL     1       6.092   5.132  18.577  0.00  0.00    +0.000 A 
ATOM      5  C   UNL     1       7.365   5.455  19.054  0.00  0.00    +0.000 A 
ATOM      6  C   UNL     1       7.998   6.642  18.642  0.00  0.00    +0.000 A 
ENDROOT
BRANCH   1   9
ATOM      7  O   UNL     1       8.901   9.349  19.394  0.00  0.00    +0.000 OA
ATOM      8  C   UNL     1       8.655   9.561  18.210  0.00  0.00    +0.000 C 
ATOM      9  N   UNL     1       7.999   8.705  17.357  0.00  0.00    +0.000 N 
ATOM     10  N   UNL     1       9.002  10.761  17.637  0.00  0.00    +0.000 N 
ATOM     11  H   UNL     1       8.121   8.843  16.367  0.00  0.00    +0.000 HD
ATOM     12  H   UNL     1       9.079  10.820  16.634  0.00  0.00    +0.000 HD
BRANCH  10  13
ATOM     13  C   UNL     1       9.703  11.719  18.475  0.00  0.00    +0.000 C 
ATOM     14  C   UNL     1      11.183  11.829  18.197  0.00  0.00    +0.000 C 
ATOM     15  C   UNL     1      11.506  13.173  18.816  0.00  0.00    +0.000 C 
ATOM     16  O   UNL     1      10.371  14.014  18.584  0.00  0.00    +0.000 OA
ATOM     17  C   UNL     1       9.243  13.169  18.294  0.00  0.00    +0.000 C 
ENDBRANCH  10  13
ENDBRANCH   1   9
BRANCH   4  18
ATOM     18  O   UNL     1       5.574   3.922  18.955  0.00  0.00    +0.000 OA
BRANCH  18  19
ATOM     19  C   UNL     1       4.347   3.586  18.298  0.00  0.00    +0.000 C 
BRANCH  19  20
ATOM     20  C   UNL     1       3.263   3.398  19.321  0.00  0.00    +0.000 A 
ATOM     21  C   UNL     1       3.511   2.704  20.511  0.00  0.00    +0.000 A 
ATOM     22  C   UNL     1       2.500   2.557  21.459  0.00  0.00    +0.000 A 
ATOM     23  C   UNL     1       1.238   3.100  21.222  0.00  0.00    +0.000 A 
ATOM     24  C   UNL     1       0.981   3.789  20.038  0.00  0.00    +0.000 A 
ATOM     25  C   UNL     1       1.989   3.936  19.090  0.00  0.00    +0.000 A 
ENDBRANCH  19  20
ENDBRANCH  18  19
ENDBRANCH   4  18
TORSDOF 5
ENDMDL
MODEL 5
REMARK VINA RESULT:      -7.8      2.439      9.143
REMARK  Name = 
REMARK  5 active torsions:
REMARK  status: ('A' for Active; 'I' for Inactive)
REMARK    1  A    between atoms: N_3  and  C_4
REMARK    2  A    between atoms: C_7  and  O_8
REMARK    3  A    between atoms: O_8  and  C_9
REMARK    4  A    between atoms: C_9  and  C_10
REMARK    5  A    between atoms: N_18  and  C_19
REMARK                            x       y       z     vdW  Elec       q    Type
REMARK                         _______ _______ _______ _____ _____    ______ ____
ROOT
ATOM      1  C   UNL     1       6.681   5.217  18.362  0.00  0.00    +0.000 A 
ATOM      2  C   UNL     1       6.167   5.939  17.282  0.00  0.00    +0.000 A 
ATOM      3  C   UNL     1       6.677   7.183  16.936  0.00  0.00    +0.000 A 
ATOM      4  C   UNL     1       7.676   7.767  17.705  0.00  0.00    +0.000 A 
ATOM      5  C   UNL     1       8.215   7.054  18.779  0.00  0.00    +0.000 A 
ATOM      6  C   UNL     1       7.706   5.786  19.115  0.00  0.00    +0.000 A 
ENDROOT
BRANCH   1   9
ATOM      7  O   UNL     1       3.969   4.565  19.126  0.00  0.00    +0.000 OA
ATOM      8  C   UNL     1       4.876   3.737  19.143  0.00  0.00    +0.000 C 
ATOM      9  N   UNL     1       6.167   3.948  18.716  0.00  0.00    +0.000 N 
ATOM     10  N   UNL     1       4.659   2.484  19.662  0.00  0.00    +0.000 N 
ATOM     11  H   UNL     1       6.726   3.140  18.494  0.00  0.00    +0.000 HD
ATOM     12  H   UNL     1       5.282   1.734  19.406  0.00  0.00    +0.000 HD
BRANCH  10  13
ATOM     13  C   UNL     1       3.317   2.183  20.131  0.00  0.00    +0.000 C 
ATOM     14  C   UNL     1       2.786   3.143  21.168  0.00  0.00    +0.000 C 
ATOM     15  C   UNL     1       1.296   2.893  21.075  0.00  0.00    +0.000 C 
ATOM     16  O   UNL     1       1.008   2.639  19.696  0.00  0.00    +0.000 OA
ATOM     17  C   UNL     1       2.238   2.269  19.046  0.00  0.00    +0.000 C 
ENDBRANCH  10  13
ENDBRANCH   1   9
BRANCH   4  18
ATOM     18  O   UNL     1       8.163   9.029  17.490  0.00  0.00    +0.000 OA
BRANCH  18  19
ATOM     19  C   UNL     1       8.782   9.616  18.640  0.00  0.00    +0.000 C 
BRANCH  19  20
ATOM     20  C   UNL     1       9.416  10.924  18.260  0.00  0.00    +0.000 A 
ATOM     21  C   UNL     1       8.629  12.027  17.906  0.00  0.00    +0.000 A 
ATOM     22  C   UNL     1       9.232  13.238  17.576  0.00  0.00    +0.000 A 
ATOM     23  C   UNL     1      10.621  13.355  17.597  0.00  0.00    +0.000 A 
ATOM     24  C   UNL     1      11.412  12.261  17.945  0.00  0.00    +0.000 A 
ATOM     25  C   UNL     1      10.812  11.049  18.273  0.00  0.00    +0.000 A 
ENDBRANCH  19  20
ENDBRANCH  18  19
ENDBRANCH   4  18
TORSDOF 5
ENDMDL
MODEL 6
REMARK VINA RESULT:      -7.8      0.639      1.021
REMARK  Name = 
REMARK  5 active torsions:
REMARK  status: ('A' for Active; 'I' for Inactive)
REMARK    1  A    between atoms: N_3  and  C_4
REMARK    2  A    between atoms: C_7  and  O_8
REMARK    3  A    between atoms: O_8  and  C_9
REMARK    4  A    between atoms: C_9  and  C_10
REMARK    5  A    between atoms: N_18  and  C_19
REMARK                            x       y       z     vdW  Elec       q    Type
REMARK                         _______ _______ _______ _____ _____    ______ ____
ROOT
ATOM      1  C   UNL     1       6.458   6.991  17.083  0.00  0.00    +0.000 A 
ATOM      2  C   UNL     1       7.095   5.822  16.661  0.00  0.00    +0.000 A 
ATOM      3  C   UNL     1       6.415   4.612  16.594  0.00  0.00    +0.000 A 
ATOM      4  C   UNL     1       5.092   4.530  17.009  0.00  0.00    +0.000 A 
ATOM      5  C   UNL     1       4.433   5.692  17.418  0.00  0.00    +0.000 A 
ATOM      6  C   UNL     1       5.121   6.919  17.468  0.00  0.00    +0.000 A 
ENDROOT
BRANCH   1   9
ATOM      7  O   UNL     1       8.667   7.686  18.816  0.00  0.00    +0.000 OA
ATOM      8  C   UNL     1       8.140   8.498  18.061  0.00  0.00    +0.000 C 
ATOM      9  N   UNL     1       7.146   8.225  17.150  0.00  0.00    +0.000 N 
ATOM     10  N   UNL     1       8.500   9.823  18.111  0.00  0.00    +0.000 N 
ATOM     11  H   UNL     1       7.009   8.876  16.394  0.00  0.00    +0.000 HD
ATOM     12  H   UNL     1       8.305  10.414  17.318  0.00  0.00    +0.000 HD
BRANCH  10  13
ATOM     13  C   UNL     1       9.549  10.191  19.048  0.00  0.00    +0.000 C 
ATOM     14  C   UNL     1      10.480  11.271  18.553  0.00  0.00    +0.000 C 
ATOM     15  C   UNL     1      11.088  11.762  19.850  0.00  0.00    +0.000 C 
ATOM     16  O   UNL     1      10.053  11.697  20.837  0.00  0.00    +0.000 OA
ATOM     17  C   UNL     1       9.037  10.797  20.359  0.00  0.00    +0.000 C 
ENDBRANCH  10  13
ENDBRANCH   1   9
BRANCH   4  18
ATOM     18  O   UNL     1       4.383   3.360  17.066  0.00  0.00    +0.000 OA
BRANCH  18  19
ATOM     19  C   UNL     1       4.428   2.716  18.344  0.00  0.00    +0.000 C 
BRANCH  19  20
ATOM     20  C   UNL     1       3.117   2.907  19.052  0.00  0.00    +0.000 A 
ATOM     21  C   UNL     1       3.061   3.536  20.302  0.00  0.00    +0.000 A 
ATOM     22  C   UNL     1       1.834   3.723  20.935  0.00  0.00    +0.000 A 
ATOM     23  C   UNL     1       0.660   3.282  20.326  0.00  0.00    +0.000 A 
ATOM     24  C   UNL     1       0.707   2.651  19.084  0.00  0.00    +0.000 A 
ATOM     25  C   UNL     1       1.932   2.461  18.450  0.00  0.00    +0.000 A 
ENDBRANCH  19  20
ENDBRANCH  18  19
ENDBRANCH   4  18
TORSDOF 5
ENDMDL
MODEL 7
REMARK VINA RESULT:      -7.8      2.343      9.163
REMARK  Name = 
REMARK  5 active torsions:
REMARK  status: ('A' for Active; 'I' for Inactive)
REMARK    1  A    between atoms: N_3  and  C_4
REMARK    2  A    between atoms: C_7  and  O_8
REMARK    3  A    between atoms: O_8  and  C_9
REMARK    4  A    between atoms: C_9  and  C_10
REMARK    5  A    between atoms: N_18  and  C_19
REMARK                            x       y       z     vdW  Elec       q    Type
REMARK                         _______ _______ _______ _____ _____    ______ ____
ROOT
ATOM      1  C   UNL     1       6.622   5.250  18.179  0.00  0.00    +0.000 A 
ATOM      2  C   UNL     1       6.217   6.088  17.139  0.00  0.00    +0.000 A 
ATOM      3  C   UNL     1       6.796   7.336  16.948  0.00  0.00    +0.000 A 
ATOM      4  C   UNL     1       7.756   7.804  17.837  0.00  0.00    +0.000 A 
ATOM      5  C   UNL     1       8.187   6.973  18.874  0.00  0.00    +0.000 A 
ATOM      6  C   UNL     1       7.609   5.702  19.053  0.00  0.00    +0.000 A 
ENDROOT
BRANCH   1   9
ATOM      7  O   UNL     1       3.934   4.663  19.071  0.00  0.00    +0.000 OA
ATOM      8  C   UNL     1       4.771   3.786  18.877  0.00  0.00    +0.000 C 
ATOM      9  N   UNL     1       6.038   3.977  18.375  0.00  0.00    +0.000 N 
ATOM     10  N   UNL     1       4.496   2.482  19.211  0.00  0.00    +0.000 N 
ATOM     11  H   UNL     1       6.511   3.181  17.980  0.00  0.00    +0.000 HD
ATOM     12  H   UNL     1       5.035   1.743  18.787  0.00  0.00    +0.000 HD
BRANCH  10  13
ATOM     13  C   UNL     1       3.174   2.199  19.745  0.00  0.00    +0.000 C 
ATOM     14  C   UNL     1       2.834   2.953  21.008  0.00  0.00    +0.000 C 
ATOM     15  C   UNL     1       1.323   2.852  21.022  0.00  0.00    +0.000 C 
ATOM     16  O   UNL     1       0.896   2.925  19.657  0.00  0.00    +0.000 OA
ATOM     17  C   UNL     1       2.022   2.604  18.820  0.00  0.00    +0.000 C 
ENDBRANCH  10  13
ENDBRANCH   1   9
BRANCH   4  18
ATOM     18  O   UNL     1       8.303   9.058  17.776  0.00  0.00    +0.000 OA
BRANCH  18  19
ATOM     19  C   UNL     1       8.935   9.474  18.992  0.00  0.00    +0.000 C 
BRANCH  19  20
ATOM     20  C   UNL     1       9.529  10.842  18.810  0.00  0.00    +0.000 A 
ATOM     21  C   UNL     1      10.639  11.248  19.559  0.00  0.00    +0.000 A 
ATOM     22  C   UNL     1      11.191  12.512  19.362  0.00  0.00    +0.000 A 
ATOM     23  C   UNL     1      10.635  13.376  18.419  0.00  0.00    +0.000 A 
ATOM     24  C   UNL     1       9.527  12.982  17.672  0.00  0.00    +0.000 A 
ATOM     25  C   UNL     1       8.974  11.720  17.868  0.00  0.00    +0.000 A 
ENDBRANCH  19  20
ENDBRANCH  18  19
ENDBRANCH   4  18
TORSDOF 5
ENDMDL
MODEL 8
REMARK VINA RESULT:      -7.8      0.785      1.305
REMARK  Name = 
REMARK  5 active torsions:
REMARK  status: ('A' for Active; 'I' for Inactive)
REMARK    1  A    between atoms: N_3  and  C_4
REMARK    2  A    between atoms: C_7  and  O_8
REMARK    3  A    between atoms: O_8  and  C_9
REMARK    4  A    between atoms: C_9  and  C_10
REMARK    5  A    between atoms: N_18  and  C_19
REMARK                            x       y       z     vdW  Elec       q    Type
REMARK                         _______ _______ _______ _____ _____    ______ ____
ROOT
ATOM      1  C   UNL     1       6.197   6.706  17.214  0.00  0.00    +0.000 A 
ATOM      2  C   UNL     1       5.956   6.026  18.410  0.00  0.00    +0.000 A 
ATOM      3  C   UNL     1       5.325   4.789  18.423  0.00  0.00    +0.000 A 
ATOM      4  C   UNL     1       4.860   4.228  17.240  0.00  0.00    +0.000 A 
ATOM      5  C   UNL     1       5.106   4.886  16.032  0.00  0.00    +0.000 A 
ATOM      6  C   UNL     1       5.762   6.130  16.022  0.00  0.00    +0.000 A 
ENDROOT
BRANCH   1   9
ATOM      7  O   UNL     1       8.589   7.481  18.644  0.00  0.00    +0.000 OA
ATOM      8  C   UNL     1       7.938   8.274  17.969  0.00  0.00    +0.000 C 
ATOM      9  N   UNL     1       6.843   7.964  17.195  0.00  0.00    +0.000 N 
ATOM     10  N   UNL     1       8.254   9.611  17.976  0.00  0.00    +0.000 N 
ATOM     11  H   UNL     1       6.585   8.609  16.466  0.00  0.00    +0.000 HD
ATOM     12  H   UNL     1       7.935  10.194  17.218  0.00  0.00    +0.000 HD
BRANCH  10  13
ATOM     13  C   UNL     1       9.403  10.017  18.768  0.00  0.00    +0.000 C 
ATOM     14  C   UNL     1      10.225  11.125  18.156  0.00  0.00    +0.000 C 
ATOM     15  C   UNL     1      10.980  11.641  19.363  0.00  0.00    +0.000 C 
ATOM     16  O   UNL     1      10.085  11.546  20.477  0.00  0.00    +0.000 OA
ATOM     17  C   UNL     1       9.046  10.611  20.135  0.00  0.00    +0.000 C 
ENDBRANCH  10  13
ENDBRANCH   1   9
BRANCH   4  18
ATOM     18  O   UNL     1       4.143   3.063  17.179  0.00  0.00    +0.000 OA
BRANCH  18  19
ATOM     19  C   UNL     1       2.724   3.254  17.184  0.00  0.00    +0.000 C 
BRANCH  19  20
ATOM     20  C   UNL     1       2.226   3.304  18.600  0.00  0.00    +0.000 A 
ATOM     21  C   UNL     1       2.326   2.185  19.436  0.00  0.00    +0.000 A 
ATOM     22  C   UNL     1       1.878   2.254  20.753  0.00  0.00    +0.000 A 
ATOM     23  C   UNL     1       1.327   3.438  21.242  0.00  0.00    +0.000 A 
ATOM     24  C   UNL     1       1.219   4.556  20.415  0.00  0.00    +0.000 A 
ATOM     25  C   UNL     1       1.665   4.488  19.098  0.00  0.00    +0.000 A 
ENDBRANCH  19  20
ENDBRANCH  18  19
ENDBRANCH   4  18
TORSDOF 5
ENDMDL
MODEL 9
REMARK VINA RESULT:      -7.7      0.862      1.207
REMARK  Name = 
REMARK  5 active torsions:
REMARK  status: ('A' for Active; 'I' for Inactive)
REMARK    1  A    between atoms: N_3  and  C_4
REMARK    2  A    between atoms: C_7  and  O_8
REMARK    3  A    between atoms: O_8  and  C_9
REMARK    4  A    between atoms: C_9  and  C_10
REMARK    5  A    between atoms: N_18  and  C_19
REMARK                            x       y       z     vdW  Elec       q    Type
REMARK                         _______ _______ _______ _____ _____    ______ ____
ROOT
ATOM      1  C   UNL     1       5.982   6.842  17.030  0.00  0.00    +0.000 A 
ATOM      2  C   UNL     1       5.182   6.488  18.118  0.00  0.00    +0.000 A 
ATOM      3  C   UNL     1       4.472   5.294  18.135  0.00  0.00    +0.000 A 
ATOM      4  C   UNL     1       4.496   4.451  17.030  0.00  0.00    +0.000 A 
ATOM      5  C   UNL     1       5.303   4.781  15.939  0.00  0.00    +0.000 A 
ATOM      6  C   UNL     1       6.034   5.983  15.934  0.00  0.00    +0.000 A 
ENDROOT
BRANCH   1   9
ATOM      7  O   UNL     1       8.387   7.481  18.505  0.00  0.00    +0.000 OA
ATOM      8  C   UNL     1       7.804   8.304  17.804  0.00  0.00    +0.000 C 
ATOM      9  N   UNL     1       6.709   8.055  17.010  0.00  0.00    +0.000 N 
ATOM     10  N   UNL     1       8.207   9.618  17.802  0.00  0.00    +0.000 N 
ATOM     11  H   UNL     1       6.510   8.706  16.267  0.00  0.00    +0.000 HD
ATOM     12  H   UNL     1       7.944  10.209  17.029  0.00  0.00    +0.000 HD
BRANCH  10  13
ATOM     13  C   UNL     1       9.362   9.959  18.615  0.00  0.00    +0.000 C 
ATOM     14  C   UNL     1      10.203  11.087  18.066  0.00  0.00    +0.000 C 
ATOM     15  C   UNL     1      10.966  11.521  19.300  0.00  0.00    +0.000 C 
ATOM     16  O   UNL     1      10.069  11.379  20.407  0.00  0.00    +0.000 OA
ATOM     17  C   UNL     1       9.015  10.481  20.013  0.00  0.00    +0.000 C 
ENDBRANCH  10  13
ENDBRANCH   1   9
BRANCH   4  18
ATOM     18  O   UNL     1       3.749   3.308  16.928  0.00  0.00    +0.000 OA
BRANCH  18  19
ATOM     19  C   UNL     1       3.974   2.372  17.989  0.00  0.00    +0.000 C 
BRANCH  19  20
ATOM     20  C   UNL     1       2.980   2.610  19.091  0.00  0.00    +0.000 A 
ATOM     21  C   UNL     1       1.633   2.857  18.801  0.00  0.00    +0.000 A 
ATOM     22  C   UNL     1       0.721   3.054  19.836  0.00  0.00    +0.000 A 
ATOM     23  C   UNL     1       1.149   3.009  21.162  0.00  0.00    +0.000 A 
ATOM     24  C   UNL     1       2.490   2.768  21.459  0.00  0.00    +0.000 A 
ATOM     25  C   UNL     1       3.403   2.571  20.427  0.00  0.00    +0.000 A 
ENDBRANCH  19  20
ENDBRANCH  18  19
ENDBRANCH   4  18
TORSDOF 5
ENDMDL
