MODEL 1
REMARK VINA RESULT:      -9.6      0.000      0.000
REMARK  Name = 
REMARK  4 active torsions:
REMARK  status: ('A' for Active; 'I' for Inactive)
REMARK    1  A    between atoms: S_2  and  N_4
REMARK    2  A    between atoms: S_2  and  C_22
REMARK    3  A    between atoms: N_4  and  N_5
REMARK    4  A    between atoms: C_8  and  C_9
REMARK                            x       y       z     vdW  Elec       q    Type
REMARK                         _______ _______ _______ _____ _____    ______ ____
ROOT
ATOM      1  N   UNL     1       4.993   4.647  17.880  0.00  0.00    +0.000 NA
ATOM      2  C   UNL     1       3.907   4.987  18.505  0.00  0.00    +0.000 C 
ATOM      3  C   UNL     1       3.034   6.168  18.199  0.00  0.00    +0.000 C 
ATOM      4  C   UNL     1       2.686   6.820  19.536  0.00  0.00    +0.000 C 
ATOM      5  O   UNL     1       1.899   5.935  20.348  0.00  0.00    +0.000 OA
ATOM      6  C   UNL     1       2.431   4.676  20.471  0.00  0.00    +0.000 A 
ATOM      7  C   UNL     1       1.919   3.884  21.500  0.00  0.00    +0.000 A 
ATOM      8  C   UNL     1       2.394   2.584  21.686  0.00  0.00    +0.000 A 
ATOM      9  C   UNL     1       3.376   2.066  20.841  0.00  0.00    +0.000 A 
ATOM     10  C   UNL     1       3.889   2.849  19.806  0.00  0.00    +0.000 A 
ATOM     11  C   UNL     1       3.412   4.151  19.623  0.00  0.00    +0.000 A 
ENDROOT
BRANCH   4  12
ATOM     12  C   UNL     1       1.935   8.108  19.240  0.00  0.00    +0.000 A 
ATOM     13  C   UNL     1       2.074   8.781  18.018  0.00  0.00    +0.000 A 
ATOM     14  C   UNL     1       1.518  10.050  17.842  0.00  0.00    +0.000 A 
ATOM     15  C   UNL     1       0.818  10.659  18.882  0.00  0.00    +0.000 A 
ATOM     16  C   UNL     1       0.644   9.989  20.090  0.00  0.00    +0.000 A 
ATOM     17  C   UNL     1       1.193   8.719  20.268  0.00  0.00    +0.000 A 
ENDBRANCH   4  12
BRANCH   1  18
ATOM     18  N   UNL     1       5.474   5.472  16.818  0.00  0.00    +0.000 N 
ATOM     19  H   UNL     1       4.984   6.284  16.446  0.00  0.00    +0.000 HD
BRANCH  18  21
ATOM     20  O   UNL     1       7.647   6.761  16.354  0.00  0.00    +0.000 OA
ATOM     21  S   UNL     1       7.103   5.420  16.348  0.00  0.00    +0.000 S 
ATOM     22  O   UNL     1       7.712   4.359  17.128  0.00  0.00    +0.000 OA
BRANCH  21  23
ATOM     23  C   UNL     1       7.001   4.860  14.663  0.00  0.00    +0.000 A 
ATOM     24  C   UNL     1       6.058   3.888  14.318  0.00  0.00    +0.000 A 
ATOM     25  C   UNL     1       5.957   3.474  12.989  0.00  0.00    +0.000 A 
ATOM     26  C   UNL     1       6.785   4.037  12.016  0.00  0.00    +0.000 A 
ATOM     27  C   UNL     1       7.712   5.022  12.365  0.00  0.00    +0.000 A 
ATOM     28  C   UNL     1       7.818   5.442  13.691  0.00  0.00    +0.000 A 
ENDBRANCH  21  23
ENDBRANCH  18  21
ENDBRANCH   1  18
TORSDOF 4
ENDMDL
MODEL 2
REMARK VINA RESULT:      -9.4      0.351      1.352
REMARK  Name = 
REMARK  4 active torsions:
REMARK  status: ('A' for Active; 'I' for Inactive)
REMARK    1  A    between atoms: S_2  and  N_4
REMARK    2  A    between atoms: S_2  and  C_22
REMARK    3  A    between atoms: N_4  and  N_5
REMARK    4  A    between atoms: C_8  and  C_9
REMARK                            x       y       z     vdW  Elec       q    Type
REMARK                         _______ _______ _______ _____ _____    ______ ____
ROOT
ATOM      1  N   UNL     1       5.133   4.790  18.089  0.00  0.00    +0.000 NA
ATOM      2  C   UNL     1       4.006   5.065  18.671  0.00  0.00    +0.000 C 
ATOM      3  C   UNL     1       3.108   6.229  18.372  0.00  0.00    +0.000 C 
ATOM      4  C   UNL     1       2.670   6.807  19.716  0.00  0.00    +0.000 C 
ATOM      5  O   UNL     1       1.875   5.860  20.447  0.00  0.00    +0.000 OA
ATOM      6  C   UNL     1       2.445   4.615  20.542  0.00  0.00    +0.000 A 
ATOM      7  C   UNL     1       1.910   3.761  21.508  0.00  0.00    +0.000 A 
ATOM      8  C   UNL     1       2.421   2.470  21.660  0.00  0.00    +0.000 A 
ATOM      9  C   UNL     1       3.463   2.023  20.846  0.00  0.00    +0.000 A 
ATOM     10  C   UNL     1       3.999   2.870  19.874  0.00  0.00    +0.000 A 
ATOM     11  C   UNL     1       3.485   4.162  19.724  0.00  0.00    +0.000 A 
ENDROOT
BRANCH   4  12
ATOM     12  C   UNL     1       1.889   8.081  19.439  0.00  0.00    +0.000 A 
ATOM     13  C   UNL     1       1.122   8.709  20.431  0.00  0.00    +0.000 A 
ATOM     14  C   UNL     1       0.275   9.769  20.104  0.00  0.00    +0.000 A 
ATOM     15  C   UNL     1       0.184  10.214  18.786  0.00  0.00    +0.000 A 
ATOM     16  C   UNL     1       0.964   9.622  17.797  0.00  0.00    +0.000 A 
ATOM     17  C   UNL     1       1.816   8.566  18.121  0.00  0.00    +0.000 A 
ENDBRANCH   4  12
BRANCH   1  18
ATOM     18  N   UNL     1       5.637   5.677  17.090  0.00  0.00    +0.000 N 
ATOM     19  H   UNL     1       5.250   6.597  16.881  0.00  0.00    +0.000 HD
BRANCH  18  21
ATOM     20  O   UNL     1       7.842   6.739  16.310  0.00  0.00    +0.000 OA
ATOM     21  S   UNL     1       7.185   5.456  16.432  0.00  0.00    +0.000 S 
ATOM     22  O   UNL     1       7.788   4.371  17.183  0.00  0.00    +0.000 OA
BRANCH  21  23
ATOM     23  C   UNL     1       6.827   4.846  14.800  0.00  0.00    +0.000 A 
ATOM     24  C   UNL     1       7.707   5.127  13.752  0.00  0.00    +0.000 A 
ATOM     25  C   UNL     1       7.441   4.619  12.480  0.00  0.00    +0.000 A 
ATOM     26  C   UNL     1       6.310   3.829  12.264  0.00  0.00    +0.000 A 
ATOM     27  C   UNL     1       5.444   3.537  13.320  0.00  0.00    +0.000 A 
ATOM     28  C   UNL     1       5.705   4.039  14.595  0.00  0.00    +0.000 A 
ENDBRANCH  21  23
ENDBRANCH  18  21
ENDBRANCH   1  18
TORSDOF 4
ENDMDL
MODEL 3
REMARK VINA RESULT:      -9.3      1.790      2.264
REMARK  Name = 
REMARK  4 active torsions:
REMARK  status: ('A' for Active; 'I' for Inactive)
REMARK    1  A    between atoms: S_2  and  N_4
REMARK    2  A    between atoms: S_2  and  C_22
REMARK    3  A    between atoms: N_4  and  N_5
REMARK    4  A    between atoms: C_8  and  C_9
REMARK                            x       y       z     vdW  Elec       q    Type
REMARK                         _______ _______ _______ _____ _____    ______ ____
ROOT
ATOM      1  N   UNL     1       5.508   4.400  19.494  0.00  0.00    +0.000 NA
ATOM      2  C   UNL     1       4.279   4.730  19.238  0.00  0.00    +0.000 C 
ATOM      3  C   UNL     1       3.752   6.120  19.035  0.00  0.00    +0.000 C 
ATOM      4  C   UNL     1       2.446   6.217  19.822  0.00  0.00    +0.000 C 
ATOM      5  O   UNL     1       1.456   5.327  19.285  0.00  0.00    +0.000 OA
ATOM      6  C   UNL     1       1.902   4.040  19.115  0.00  0.00    +0.000 A 
ATOM      7  C   UNL     1       0.923   3.063  18.930  0.00  0.00    +0.000 A 
ATOM      8  C   UNL     1       1.291   1.730  18.735  0.00  0.00    +0.000 A 
ATOM      9  C   UNL     1       2.638   1.367  18.716  0.00  0.00    +0.000 A 
ATOM     10  C   UNL     1       3.624   2.339  18.894  0.00  0.00    +0.000 A 
ATOM     11  C   UNL     1       3.252   3.673  19.090  0.00  0.00    +0.000 A 
ENDROOT
BRANCH   4  12
ATOM     12  C   UNL     1       1.976   7.662  19.761  0.00  0.00    +0.000 A 
ATOM     13  C   UNL     1       1.329   8.275  20.843  0.00  0.00    +0.000 A 
ATOM     14  C   UNL     1       0.749   9.536  20.698  0.00  0.00    +0.000 A 
ATOM     15  C   UNL     1       0.809  10.199  19.473  0.00  0.00    +0.000 A 
ATOM     16  C   UNL     1       1.478   9.617  18.399  0.00  0.00    +0.000 A 
ATOM     17  C   UNL     1       2.063   8.359  18.543  0.00  0.00    +0.000 A 
ENDBRANCH   4  12
BRANCH   1  18
ATOM     18  N   UNL     1       6.486   5.428  19.655  0.00  0.00    +0.000 N 
ATOM     19  H   UNL     1       6.669   5.926  20.526  0.00  0.00    +0.000 HD
BRANCH  18  21
ATOM     20  O   UNL     1       8.225   6.991  18.589  0.00  0.00    +0.000 OA
ATOM     21  S   UNL     1       7.725   5.635  18.513  0.00  0.00    +0.000 S 
ATOM     22  O   UNL     1       8.611   4.497  18.673  0.00  0.00    +0.000 OA
BRANCH  21  23
ATOM     23  C   UNL     1       6.864   5.435  16.970  0.00  0.00    +0.000 A 
ATOM     24  C   UNL     1       7.023   4.254  16.241  0.00  0.00    +0.000 A 
ATOM     25  C   UNL     1       6.321   4.087  15.048  0.00  0.00    +0.000 A 
ATOM     26  C   UNL     1       5.459   5.088  14.596  0.00  0.00    +0.000 A 
ATOM     27  C   UNL     1       5.290   6.258  15.339  0.00  0.00    +0.000 A 
ATOM     28  C   UNL     1       5.987   6.433  16.534  0.00  0.00    +0.000 A 
ENDBRANCH  21  23
ENDBRANCH  18  21
ENDBRANCH   1  18
TORSDOF 4
ENDMDL
MODEL 4
REMARK VINA RESULT:      -9.0      2.096      3.045
REMARK  Name = 
REMARK  4 active torsions:
REMARK  status: ('A' for Active; 'I' for Inactive)
REMARK    1  A    between atoms: S_2  and  N_4
REMARK    2  A    between atoms: S_2  and  C_22
REMARK    3  A    between atoms: N_4  and  N_5
REMARK    4  A    between atoms: C_8  and  C_9
REMARK                            x       y       z     vdW  Elec       q    Type
REMARK                         _______ _______ _______ _____ _____    ______ ____
ROOT
ATOM      1  N   UNL     1       4.067   4.149  17.288  0.00  0.00    +0.000 NA
ATOM      2  C   UNL     1       3.212   4.659  18.122  0.00  0.00    +0.000 C 
ATOM      3  C   UNL     1       2.544   5.997  18.006  0.00  0.00    +0.000 C 
ATOM      4  C   UNL     1       2.600   6.641  19.391  0.00  0.00    +0.000 C 
ATOM      5  O   UNL     1       1.830   5.884  20.339  0.00  0.00    +0.000 OA
ATOM      6  C   UNL     1       2.120   4.542  20.343  0.00  0.00    +0.000 A 
ATOM      7  C   UNL     1       1.676   3.816  21.448  0.00  0.00    +0.000 A 
ATOM      8  C   UNL     1       1.916   2.442  21.525  0.00  0.00    +0.000 A 
ATOM      9  C   UNL     1       2.592   1.786  20.496  0.00  0.00    +0.000 A 
ATOM     10  C   UNL     1       3.034   2.505  19.384  0.00  0.00    +0.000 A 
ATOM     11  C   UNL     1       2.794   3.881  19.310  0.00  0.00    +0.000 A 
ENDROOT
BRANCH   4  12
ATOM     12  C   UNL     1       2.071   8.060  19.263  0.00  0.00    +0.000 A 
ATOM     13  C   UNL     1       1.299   8.656  20.270  0.00  0.00    +0.000 A 
ATOM     14  C   UNL     1       0.676   9.886  20.051  0.00  0.00    +0.000 A 
ATOM     15  C   UNL     1       0.818  10.534  18.825  0.00  0.00    +0.000 A 
ATOM     16  C   UNL     1       1.608   9.971  17.827  0.00  0.00    +0.000 A 
ATOM     17  C   UNL     1       2.236   8.745  18.045  0.00  0.00    +0.000 A 
ENDBRANCH   4  12
BRANCH   1  18
ATOM     18  N   UNL     1       4.480   4.915  16.157  0.00  0.00    +0.000 N 
ATOM     19  H   UNL     1       3.957   5.695  15.761  0.00  0.00    +0.000 HD
BRANCH  18  21
ATOM     20  O   UNL     1       6.530   3.488  15.557  0.00  0.00    +0.000 OA
ATOM     21  S   UNL     1       6.087   4.864  15.612  0.00  0.00    +0.000 S 
ATOM     22  O   UNL     1       6.140   5.718  14.440  0.00  0.00    +0.000 OA
BRANCH  21  23
ATOM     23  C   UNL     1       6.964   5.689  16.921  0.00  0.00    +0.000 A 
ATOM     24  C   UNL     1       7.172   7.069  16.846  0.00  0.00    +0.000 A 
ATOM     25  C   UNL     1       7.831   7.719  17.890  0.00  0.00    +0.000 A 
ATOM     26  C   UNL     1       8.268   6.994  19.001  0.00  0.00    +0.000 A 
ATOM     27  C   UNL     1       8.040   5.619  19.078  0.00  0.00    +0.000 A 
ATOM     28  C   UNL     1       7.380   4.962  18.039  0.00  0.00    +0.000 A 
ENDBRANCH  21  23
ENDBRANCH  18  21
ENDBRANCH   1  18
TORSDOF 4
ENDMDL
MODEL 5
REMARK VINA RESULT:      -8.9      0.552      1.076
REMARK  Name = 
REMARK  4 active torsions:
REMARK  status: ('A' for Active; 'I' for Inactive)
REMARK    1  A    between atoms: S_2  and  N_4
REMARK    2  A    between atoms: S_2  and  C_22
REMARK    3  A    between atoms: N_4  and  N_5
REMARK    4  A    between atoms: C_8  and  C_9
REMARK                            x       y       z     vdW  Elec       q    Type
REMARK                         _______ _______ _______ _____ _____    ______ ____
ROOT
ATOM      1  N   UNL     1       4.293   4.160  17.491  0.00  0.00    +0.000 NA
ATOM      2  C   UNL     1       3.396   4.678  18.274  0.00  0.00    +0.000 C 
ATOM      3  C   UNL     1       2.636   5.950  18.043  0.00  0.00    +0.000 C 
ATOM      4  C   UNL     1       2.632   6.711  19.368  0.00  0.00    +0.000 C 
ATOM      5  O   UNL     1       1.910   5.984  20.374  0.00  0.00    +0.000 OA
ATOM      6  C   UNL     1       2.293   4.672  20.493  0.00  0.00    +0.000 A 
ATOM      7  C   UNL     1       1.891   4.011  21.655  0.00  0.00    +0.000 A 
ATOM      8  C   UNL     1       2.226   2.669  21.850  0.00  0.00    +0.000 A 
ATOM      9  C   UNL     1       2.958   1.979  20.882  0.00  0.00    +0.000 A 
ATOM     10  C   UNL     1       3.359   2.631  19.715  0.00  0.00    +0.000 A 
ATOM     11  C   UNL     1       3.022   3.975  19.524  0.00  0.00    +0.000 A 
ENDROOT
BRANCH   4  12
ATOM     12  C   UNL     1       2.006   8.073  19.117  0.00  0.00    +0.000 A 
ATOM     13  C   UNL     1       2.282   8.811  17.958  0.00  0.00    +0.000 A 
ATOM     14  C   UNL     1       1.840  10.130  17.837  0.00  0.00    +0.000 A 
ATOM     15  C   UNL     1       1.118  10.725  18.870  0.00  0.00    +0.000 A 
ATOM     16  C   UNL     1       0.808   9.993  20.014  0.00  0.00    +0.000 A 
ATOM     17  C   UNL     1       1.243   8.674  20.135  0.00  0.00    +0.000 A 
ENDBRANCH   4  12
BRANCH   1  18
ATOM     18  N   UNL     1       4.662   4.856  16.300  0.00  0.00    +0.000 N 
ATOM     19  H   UNL     1       4.006   5.303  15.660  0.00  0.00    +0.000 HD
BRANCH  18  21
ATOM     20  O   UNL     1       6.323   6.804  16.091  0.00  0.00    +0.000 OA
ATOM     21  S   UNL     1       6.263   5.360  16.049  0.00  0.00    +0.000 S 
ATOM     22  O   UNL     1       7.081   4.547  16.929  0.00  0.00    +0.000 OA
BRANCH  21  23
ATOM     23  C   UNL     1       6.577   4.829  14.380  0.00  0.00    +0.000 A 
ATOM     24  C   UNL     1       7.659   5.368  13.679  0.00  0.00    +0.000 A 
ATOM     25  C   UNL     1       7.922   4.925  12.383  0.00  0.00    +0.000 A 
ATOM     26  C   UNL     1       7.116   3.945  11.800  0.00  0.00    +0.000 A 
ATOM     27  C   UNL     1       6.048   3.397  12.513  0.00  0.00    +0.000 A 
ATOM     28  C   UNL     1       5.779   3.833  13.811  0.00  0.00    +0.000 A 
ENDBRANCH  21  23
ENDBRANCH  18  21
ENDBRANCH   1  18
TORSDOF 4
ENDMDL
MODEL 6
REMARK VINA RESULT:      -8.9      2.092      2.798
REMARK  Name = 
REMARK  4 active torsions:
REMARK  status: ('A' for Active; 'I' for Inactive)
REMARK    1  A    between atoms: S_2  and  N_4
REMARK    2  A    between atoms: S_2  and  C_22
REMARK    3  A    between atoms: N_4  and  N_5
REMARK    4  A    between atoms: C_8  and  C_9
REMARK                            x       y       z     vdW  Elec       q    Type
REMARK                         _______ _______ _______ _____ _____    ______ ____
ROOT
ATOM      1  N   UNL     1       4.148   4.151  17.324  0.00  0.00    +0.000 NA
ATOM      2  C   UNL     1       3.288   4.672  18.146  0.00  0.00    +0.000 C 
ATOM      3  C   UNL     1       2.549   5.964  17.963  0.00  0.00    +0.000 C 
ATOM      4  C   UNL     1       2.604   6.699  19.302  0.00  0.00    +0.000 C 
ATOM      5  O   UNL     1       1.898   5.968  20.316  0.00  0.00    +0.000 OA
ATOM      6  C   UNL     1       2.257   4.646  20.399  0.00  0.00    +0.000 A 
ATOM      7  C   UNL     1       1.878   3.972  21.561  0.00  0.00    +0.000 A 
ATOM      8  C   UNL     1       2.190   2.620  21.719  0.00  0.00    +0.000 A 
ATOM      9  C   UNL     1       2.875   1.933  20.716  0.00  0.00    +0.000 A 
ATOM     10  C   UNL     1       3.252   2.599  19.549  0.00  0.00    +0.000 A 
ATOM     11  C   UNL     1       2.939   3.953  19.393  0.00  0.00    +0.000 A 
ENDROOT
BRANCH   4  12
ATOM     12  C   UNL     1       1.999   8.079  19.096  0.00  0.00    +0.000 A 
ATOM     13  C   UNL     1       2.260   8.836  17.946  0.00  0.00    +0.000 A 
ATOM     14  C   UNL     1       1.842  10.166  17.865  0.00  0.00    +0.000 A 
ATOM     15  C   UNL     1       1.159  10.753  18.929  0.00  0.00    +0.000 A 
ATOM     16  C   UNL     1       0.865  10.002  20.065  0.00  0.00    +0.000 A 
ATOM     17  C   UNL     1       1.276   8.672  20.147  0.00  0.00    +0.000 A 
ENDBRANCH   4  12
BRANCH   1  18
ATOM     18  N   UNL     1       4.494   4.862  16.135  0.00  0.00    +0.000 N 
ATOM     19  H   UNL     1       3.902   5.554  15.679  0.00  0.00    +0.000 HD
BRANCH  18  21
ATOM     20  O   UNL     1       6.625   3.576  15.498  0.00  0.00    +0.000 OA
ATOM     21  S   UNL     1       6.102   4.921  15.595  0.00  0.00    +0.000 S 
ATOM     22  O   UNL     1       6.108   5.814  14.452  0.00  0.00    +0.000 OA
BRANCH  21  23
ATOM     23  C   UNL     1       6.928   5.754  16.933  0.00  0.00    +0.000 A 
ATOM     24  C   UNL     1       7.399   5.011  18.019  0.00  0.00    +0.000 A 
ATOM     25  C   UNL     1       8.075   5.663  19.051  0.00  0.00    +0.000 A 
ATOM     26  C   UNL     1       8.286   7.041  18.988  0.00  0.00    +0.000 A 
ATOM     27  C   UNL     1       7.830   7.774  17.891  0.00  0.00    +0.000 A 
ATOM     28  C   UNL     1       7.154   7.130  16.854  0.00  0.00    +0.000 A 
ENDBRANCH  21  23
ENDBRANCH  18  21
ENDBRANCH   1  18
TORSDOF 4
ENDMDL
MODEL 7
REMARK VINA RESULT:      -8.9      0.771      1.206
REMARK  Name = 
REMARK  4 active torsions:
REMARK  status: ('A' for Active; 'I' for Inactive)
REMARK    1  A    between atoms: S_2  and  N_4
REMARK    2  A    between atoms: S_2  and  C_22
REMARK    3  A    between atoms: N_4  and  N_5
REMARK    4  A    between atoms: C_8  and  C_9
REMARK                            x       y       z     vdW  Elec       q    Type
REMARK                         _______ _______ _______ _____ _____    ______ ____
ROOT
ATOM      1  N   UNL     1       3.931   4.125  17.322  0.00  0.00    +0.000 NA
ATOM      2  C   UNL     1       3.073   4.644  18.147  0.00  0.00    +0.000 C 
ATOM      3  C   UNL     1       2.457   6.008  18.053  0.00  0.00    +0.000 C 
ATOM      4  C   UNL     1       2.498   6.610  19.456  0.00  0.00    +0.000 C 
ATOM      5  O   UNL     1       1.676   5.857  20.361  0.00  0.00    +0.000 OA
ATOM      6  C   UNL     1       1.917   4.506  20.334  0.00  0.00    +0.000 A 
ATOM      7  C   UNL     1       1.417   3.765  21.406  0.00  0.00    +0.000 A 
ATOM      8  C   UNL     1       1.604   2.382  21.450  0.00  0.00    +0.000 A 
ATOM      9  C   UNL     1       2.285   1.731  20.420  0.00  0.00    +0.000 A 
ATOM     10  C   UNL     1       2.783   2.463  19.342  0.00  0.00    +0.000 A 
ATOM     11  C   UNL     1       2.594   3.848  19.301  0.00  0.00    +0.000 A 
ENDROOT
BRANCH   4  12
ATOM     12  C   UNL     1       2.024   8.051  19.354  0.00  0.00    +0.000 A 
ATOM     13  C   UNL     1       1.218   8.636  20.341  0.00  0.00    +0.000 A 
ATOM     14  C   UNL     1       0.650   9.895  20.136  0.00  0.00    +0.000 A 
ATOM     15  C   UNL     1       0.880  10.583  18.947  0.00  0.00    +0.000 A 
ATOM     16  C   UNL     1       1.706  10.029  17.971  0.00  0.00    +0.000 A 
ATOM     17  C   UNL     1       2.279   8.774  18.175  0.00  0.00    +0.000 A 
ENDBRANCH   4  12
BRANCH   1  18
ATOM     18  N   UNL     1       4.403   4.907  16.225  0.00  0.00    +0.000 N 
ATOM     19  H   UNL     1       3.811   5.469  15.614  0.00  0.00    +0.000 HD
BRANCH  18  21
ATOM     20  O   UNL     1       6.200   6.740  16.135  0.00  0.00    +0.000 OA
ATOM     21  S   UNL     1       6.047   5.303  16.083  0.00  0.00    +0.000 S 
ATOM     22  O   UNL     1       6.749   4.438  17.014  0.00  0.00    +0.000 OA
BRANCH  21  23
ATOM     23  C   UNL     1       6.437   4.751  14.438  0.00  0.00    +0.000 A 
ATOM     24  C   UNL     1       5.593   3.837  13.801  0.00  0.00    +0.000 A 
ATOM     25  C   UNL     1       5.883   3.431  12.498  0.00  0.00    +0.000 A 
ATOM     26  C   UNL     1       7.000   3.945  11.837  0.00  0.00    +0.000 A 
ATOM     27  C   UNL     1       7.829   4.872  12.473  0.00  0.00    +0.000 A 
ATOM     28  C   UNL     1       7.545   5.284  13.775  0.00  0.00    +0.000 A 
ENDBRANCH  21  23
ENDBRANCH  18  21
ENDBRANCH   1  18
TORSDOF 4
ENDMDL
MODEL 8
REMARK VINA RESULT:      -8.8      2.837      6.579
REMARK  Name = 
REMARK  4 active torsions:
REMARK  status: ('A' for Active; 'I' for Inactive)
REMARK    1  A    between atoms: S_2  and  N_4
REMARK    2  A    between atoms: S_2  and  C_22
REMARK    3  A    between atoms: N_4  and  N_5
REMARK    4  A    between atoms: C_8  and  C_9
REMARK                            x       y       z     vdW  Elec       q    Type
REMARK                         _______ _______ _______ _____ _____    ______ ____
ROOT
ATOM      1  N   UNL     1       2.094   6.287  21.004  0.00  0.00    +0.000 NA
ATOM      2  C   UNL     1       2.315   6.700  19.793  0.00  0.00    +0.000 C 
ATOM      3  C   UNL     1       2.954   5.915  18.685  0.00  0.00    +0.000 C 
ATOM      4  C   UNL     1       3.950   6.849  18.000  0.00  0.00    +0.000 C 
ATOM      5  O   UNL     1       3.274   7.952  17.377  0.00  0.00    +0.000 OA
ATOM      6  C   UNL     1       2.392   8.601  18.205  0.00  0.00    +0.000 A 
ATOM      7  C   UNL     1       1.967   9.864  17.791  0.00  0.00    +0.000 A 
ATOM      8  C   UNL     1       1.058  10.586  18.567  0.00  0.00    +0.000 A 
ATOM      9  C   UNL     1       0.564  10.048  19.756  0.00  0.00    +0.000 A 
ATOM     10  C   UNL     1       0.980   8.783  20.174  0.00  0.00    +0.000 A 
ATOM     11  C   UNL     1       1.891   8.062  19.395  0.00  0.00    +0.000 A 
ENDROOT
BRANCH   4  12
ATOM     12  C   UNL     1       4.722   6.030  16.978  0.00  0.00    +0.000 A 
ATOM     13  C   UNL     1       5.075   6.553  15.725  0.00  0.00    +0.000 A 
ATOM     14  C   UNL     1       5.620   5.726  14.742  0.00  0.00    +0.000 A 
ATOM     15  C   UNL     1       5.820   4.370  14.997  0.00  0.00    +0.000 A 
ATOM     16  C   UNL     1       5.506   3.844  16.248  0.00  0.00    +0.000 A 
ATOM     17  C   UNL     1       4.966   4.669  17.234  0.00  0.00    +0.000 A 
ENDBRANCH   4  12
BRANCH   1  18
ATOM     18  N   UNL     1       2.526   4.980  21.384  0.00  0.00    +0.000 N 
ATOM     19  H   UNL     1       3.280   4.784  22.040  0.00  0.00    +0.000 HD
BRANCH  18  21
ATOM     20  O   UNL     1       1.475   2.817  22.289  0.00  0.00    +0.000 OA
ATOM     21  S   UNL     1       1.548   3.623  21.090  0.00  0.00    +0.000 S 
ATOM     22  O   UNL     1       0.348   4.126  20.448  0.00  0.00    +0.000 OA
BRANCH  21  23
ATOM     23  C   UNL     1       2.482   2.733  19.866  0.00  0.00    +0.000 A 
ATOM     24  C   UNL     1       3.759   2.263  20.183  0.00  0.00    +0.000 A 
ATOM     25  C   UNL     1       4.476   1.536  19.232  0.00  0.00    +0.000 A 
ATOM     26  C   UNL     1       3.913   1.274  17.981  0.00  0.00    +0.000 A 
ATOM     27  C   UNL     1       2.629   1.731  17.677  0.00  0.00    +0.000 A 
ATOM     28  C   UNL     1       1.905   2.457  18.624  0.00  0.00    +0.000 A 
ENDBRANCH  21  23
ENDBRANCH  18  21
ENDBRANCH   1  18
TORSDOF 4
ENDMDL
MODEL 9
REMARK VINA RESULT:      -8.7      1.712      2.034
REMARK  Name = 
REMARK  4 active torsions:
REMARK  status: ('A' for Active; 'I' for Inactive)
REMARK    1  A    between atoms: S_2  and  N_4
REMARK    2  A    between atoms: S_2  and  C_22
REMARK    3  A    between atoms: N_4  and  N_5
REMARK    4  A    between atoms: C_8  and  C_9
REMARK                            x       y       z     vdW  Elec       q    Type
REMARK                         _______ _______ _______ _____ _____    ______ ____
ROOT
ATOM      1  N   UNL     1       5.359   4.603  19.486  0.00  0.00    +0.000 NA
ATOM      2  C   UNL     1       4.097   4.868  19.337  0.00  0.00    +0.000 C 
ATOM      3  C   UNL     1       3.482   6.228  19.182  0.00  0.00    +0.000 C 
ATOM      4  C   UNL     1       2.246   6.259  20.079  0.00  0.00    +0.000 C 
ATOM      5  O   UNL     1       1.261   5.316  19.627  0.00  0.00    +0.000 OA
ATOM      6  C   UNL     1       1.758   4.054  19.418  0.00  0.00    +0.000 A 
ATOM      7  C   UNL     1       0.818   3.027  19.317  0.00  0.00    +0.000 A 
ATOM      8  C   UNL     1       1.237   1.714  19.089  0.00  0.00    +0.000 A 
ATOM      9  C   UNL     1       2.595   1.422  18.954  0.00  0.00    +0.000 A 
ATOM     10  C   UNL     1       3.540   2.444  19.048  0.00  0.00    +0.000 A 
ATOM     11  C   UNL     1       3.118   3.758  19.277  0.00  0.00    +0.000 A 
ENDROOT
BRANCH   4  12
ATOM     12  C   UNL     1       1.698   7.677  20.060  0.00  0.00    +0.000 A 
ATOM     13  C   UNL     1       1.760   8.479  18.912  0.00  0.00    +0.000 A 
ATOM     14  C   UNL     1       1.417   9.830  18.973  0.00  0.00    +0.000 A 
ATOM     15  C   UNL     1       1.009  10.396  20.180  0.00  0.00    +0.000 A 
ATOM     16  C   UNL     1       0.911   9.605  21.322  0.00  0.00    +0.000 A 
ATOM     17  C   UNL     1       1.247   8.253  21.262  0.00  0.00    +0.000 A 
ENDBRANCH   4  12
BRANCH   1  18
ATOM     18  N   UNL     1       6.292   5.681  19.564  0.00  0.00    +0.000 N 
ATOM     19  H   UNL     1       6.414   6.287  20.374  0.00  0.00    +0.000 HD
BRANCH  18  21
ATOM     20  O   UNL     1       8.063   7.160  18.435  0.00  0.00    +0.000 OA
ATOM     21  S   UNL     1       7.578   5.797  18.463  0.00  0.00    +0.000 S 
ATOM     22  O   UNL     1       8.466   4.690  18.765  0.00  0.00    +0.000 OA
BRANCH  21  23
ATOM     23  C   UNL     1       6.788   5.446  16.909  0.00  0.00    +0.000 A 
ATOM     24  C   UNL     1       5.831   6.332  16.408  0.00  0.00    +0.000 A 
ATOM     25  C   UNL     1       5.237   6.071  15.172  0.00  0.00    +0.000 A 
ATOM     26  C   UNL     1       5.607   4.939  14.443  0.00  0.00    +0.000 A 
ATOM     27  C   UNL     1       6.578   4.068  14.941  0.00  0.00    +0.000 A 
ATOM     28  C   UNL     1       7.178   4.323  16.174  0.00  0.00    +0.000 A 
ENDBRANCH  21  23
ENDBRANCH  18  21
ENDBRANCH   1  18
TORSDOF 4
ENDMDL
