MODEL 1
REMARK VINA RESULT:      -8.0      0.000      0.000
REMARK  Name = 
REMARK  2 active torsions:
REMARK  status: ('A' for Active; 'I' for Inactive)
REMARK    1  A    between atoms: C_2  and  OXT_3
REMARK    2  A    between atoms: C_2  and  CA_4
REMARK                            x       y       z     vdW  Elec       q    Type
REMARK                         _______ _______ _______ _____ _____    ______ ____
ROOT
ATOM      1  CA  UNL     1       6.810   5.019  15.557  0.00  0.00    +0.000 C 
ATOM      2  C   UNL     1       5.265   5.105  15.600  0.00  0.00    +0.000 C 
ATOM      3  N   UNL     1       4.823   5.499  16.941  0.00  0.00    +0.000 N 
ATOM      4  C   UNL     1       3.865   4.813  17.648  0.00  0.00    +0.000 A 
ATOM      5  C   UNL     1       2.835   4.124  17.007  0.00  0.00    +0.000 A 
ATOM      6  N   UNL     1       1.866   3.418  17.635  0.00  0.00    +0.000 NA
ATOM      7  C   UNL     1       1.936   3.407  18.970  0.00  0.00    +0.000 A 
ATOM      8  C   UNL     1       0.967   2.709  19.678  0.00  0.00    +0.000 A 
ATOM      9  C   UNL     1       0.973   2.675  21.070  0.00  0.00    +0.000 A 
ATOM     10  C   UNL     1       1.970   3.346  21.763  0.00  0.00    +0.000 A 
ATOM     11  C   UNL     1       2.958   4.042  21.056  0.00  0.00    +0.000 A 
ATOM     12  C   UNL     1       2.960   4.094  19.664  0.00  0.00    +0.000 A 
ATOM     13  N   UNL     1       3.913   4.796  19.000  0.00  0.00    +0.000 NA
ATOM     14  C   UNL     1       5.431   6.714  17.473  0.00  0.00    +0.000 C 
ATOM     15  C   UNL     1       6.968   6.594  17.411  0.00  0.00    +0.000 C 
ATOM     16  N   UNL     1       7.517   6.253  16.065  0.00  0.00    +0.000 NA
ATOM     17  H   UNL     1       8.498   6.000  16.223  0.00  0.00    +0.000 HD
ENDROOT
BRANCH   1  19
ATOM     18  O   UNL     1       7.986   5.426  13.466  0.00  0.00    +0.000 OA
ATOM     19  C   UNL     1       7.213   4.742  14.107  0.00  0.00    +0.000 C 
BRANCH  19  20
ATOM     20  OXT UNL     1       6.621   3.630  13.596  0.00  0.00    +0.000 OA
ATOM     21  HXT UNL     1       7.110   3.369  12.781  0.00  0.00    +0.000 HD
ENDBRANCH  19  20
ENDBRANCH   1  19
TORSDOF 2
ENDMDL
MODEL 2
REMARK VINA RESULT:      -7.8      1.006      1.258
REMARK  Name = 
REMARK  2 active torsions:
REMARK  status: ('A' for Active; 'I' for Inactive)
REMARK    1  A    between atoms: C_2  and  OXT_3
REMARK    2  A    between atoms: C_2  and  CA_4
REMARK                            x       y       z     vdW  Elec       q    Type
REMARK                         _______ _______ _______ _____ _____    ______ ____
ROOT
ATOM      1  CA  UNL     1       6.552   4.202  15.400  0.00  0.00    +0.000 C 
ATOM      2  C   UNL     1       5.302   4.961  15.907  0.00  0.00    +0.000 C 
ATOM      3  N   UNL     1       5.245   4.908  17.371  0.00  0.00    +0.000 N 
ATOM      4  C   UNL     1       4.127   4.514  18.065  0.00  0.00    +0.000 A 
ATOM      5  C   UNL     1       2.842   4.719  17.561  0.00  0.00    +0.000 A 
ATOM      6  N   UNL     1       1.698   4.347  18.181  0.00  0.00    +0.000 NA
ATOM      7  C   UNL     1       1.853   3.745  19.364  0.00  0.00    +0.000 A 
ATOM      8  C   UNL     1       0.719   3.346  20.059  0.00  0.00    +0.000 A 
ATOM      9  C   UNL     1       0.814   2.731  21.305  0.00  0.00    +0.000 A 
ATOM     10  C   UNL     1       2.066   2.506  21.860  0.00  0.00    +0.000 A 
ATOM     11  C   UNL     1       3.215   2.895  21.160  0.00  0.00    +0.000 A 
ATOM     12  C   UNL     1       3.136   3.520  19.918  0.00  0.00    +0.000 A 
ATOM     13  N   UNL     1       4.262   3.911  19.269  0.00  0.00    +0.000 NA
ATOM     14  C   UNL     1       6.448   5.356  18.065  0.00  0.00    +0.000 C 
ATOM     15  C   UNL     1       7.672   4.582  17.532  0.00  0.00    +0.000 C 
ATOM     16  N   UNL     1       7.847   4.629  16.050  0.00  0.00    +0.000 NA
ATOM     17  H   UNL     1       8.548   3.914  15.832  0.00  0.00    +0.000 HD
ENDROOT
BRANCH   1  19
ATOM     18  O   UNL     1       5.990   3.776  13.071  0.00  0.00    +0.000 OA
ATOM     19  C   UNL     1       6.631   4.410  13.886  0.00  0.00    +0.000 C 
BRANCH  19  20
ATOM     20  OXT UNL     1       7.494   5.399  13.532  0.00  0.00    +0.000 OA
ATOM     21  HXT UNL     1       8.412   5.049  13.614  0.00  0.00    +0.000 HD
ENDBRANCH  19  20
ENDBRANCH   1  19
TORSDOF 2
ENDMDL
MODEL 3
REMARK VINA RESULT:      -7.2      3.375      7.024
REMARK  Name = 
REMARK  2 active torsions:
REMARK  status: ('A' for Active; 'I' for Inactive)
REMARK    1  A    between atoms: C_2  and  OXT_3
REMARK    2  A    between atoms: C_2  and  CA_4
REMARK                            x       y       z     vdW  Elec       q    Type
REMARK                         _______ _______ _______ _____ _____    ______ ____
ROOT
ATOM      1  CA  UNL     1       4.087   2.135  19.369  0.00  0.00    +0.000 C 
ATOM      2  C   UNL     1       4.618   3.512  18.903  0.00  0.00    +0.000 C 
ATOM      3  N   UNL     1       4.260   3.737  17.500  0.00  0.00    +0.000 N 
ATOM      4  C   UNL     1       5.171   4.116  16.544  0.00  0.00    +0.000 A 
ATOM      5  C   UNL     1       6.290   4.886  16.863  0.00  0.00    +0.000 A 
ATOM      6  N   UNL     1       7.234   5.285  15.979  0.00  0.00    +0.000 NA
ATOM      7  C   UNL     1       7.041   4.894  14.715  0.00  0.00    +0.000 A 
ATOM      8  C   UNL     1       7.967   5.278  13.754  0.00  0.00    +0.000 A 
ATOM      9  C   UNL     1       7.812   4.920  12.417  0.00  0.00    +0.000 A 
ATOM     10  C   UNL     1       6.715   4.159  12.039  0.00  0.00    +0.000 A 
ATOM     11  C   UNL     1       5.783   3.759  13.004  0.00  0.00    +0.000 A 
ATOM     12  C   UNL     1       5.918   4.118  14.343  0.00  0.00    +0.000 A 
ATOM     13  N   UNL     1       4.989   3.739  15.257  0.00  0.00    +0.000 NA
ATOM     14  C   UNL     1       2.845   3.585  17.179  0.00  0.00    +0.000 C 
ATOM     15  C   UNL     1       2.350   2.205  17.660  0.00  0.00    +0.000 C 
ATOM     16  N   UNL     1       2.619   1.909  19.099  0.00  0.00    +0.000 NA
ATOM     17  H   UNL     1       2.438   0.906  19.213  0.00  0.00    +0.000 HD
ENDROOT
BRANCH   1  19
ATOM     18  O   UNL     1       5.400   1.583  21.343  0.00  0.00    +0.000 OA
ATOM     19  C   UNL     1       4.369   2.019  20.869  0.00  0.00    +0.000 C 
BRANCH  19  20
ATOM     20  OXT UNL     1       3.341   2.468  21.637  0.00  0.00    +0.000 OA
ATOM     21  HXT UNL     1       3.676   2.591  22.556  0.00  0.00    +0.000 HD
ENDBRANCH  19  20
ENDBRANCH   1  19
TORSDOF 2
ENDMDL
MODEL 4
REMARK VINA RESULT:      -6.5      3.457      6.961
REMARK  Name = 
REMARK  2 active torsions:
REMARK  status: ('A' for Active; 'I' for Inactive)
REMARK    1  A    between atoms: C_2  and  OXT_3
REMARK    2  A    between atoms: C_2  and  CA_4
REMARK                            x       y       z     vdW  Elec       q    Type
REMARK                         _______ _______ _______ _____ _____    ______ ____
ROOT
ATOM      1  CA  UNL     1       2.126   2.713  20.178  0.00  0.00    +0.000 C 
ATOM      2  C   UNL     1       3.065   3.916  19.922  0.00  0.00    +0.000 C 
ATOM      3  N   UNL     1       3.015   4.298  18.508  0.00  0.00    +0.000 N 
ATOM      4  C   UNL     1       4.138   4.464  17.735  0.00  0.00    +0.000 A 
ATOM      5  C   UNL     1       5.350   4.886  18.283  0.00  0.00    +0.000 A 
ATOM      6  N   UNL     1       6.498   5.058  17.587  0.00  0.00    +0.000 NA
ATOM      7  C   UNL     1       6.422   4.796  16.279  0.00  0.00    +0.000 A 
ATOM      8  C   UNL     1       7.562   4.962  15.503  0.00  0.00    +0.000 A 
ATOM      9  C   UNL     1       7.543   4.725  14.131  0.00  0.00    +0.000 A 
ATOM     10  C   UNL     1       6.365   4.308  13.528  0.00  0.00    +0.000 A 
ATOM     11  C   UNL     1       5.214   4.127  14.305  0.00  0.00    +0.000 A 
ATOM     12  C   UNL     1       5.214   4.371  15.677  0.00  0.00    +0.000 A 
ATOM     13  N   UNL     1       4.080   4.213  16.406  0.00  0.00    +0.000 NA
ATOM     14  C   UNL     1       1.682   4.549  17.970  0.00  0.00    +0.000 C 
ATOM     15  C   UNL     1       0.775   3.332  18.246  0.00  0.00    +0.000 C 
ATOM     16  N   UNL     1       0.716   2.904  19.676  0.00  0.00    +0.000 NA
ATOM     17  H   UNL     1       0.265   1.984  19.670  0.00  0.00    +0.000 HD
ENDROOT
BRANCH   1  19
ATOM     18  O   UNL     1       1.142   2.583  22.400  0.00  0.00    +0.000 OA
ATOM     19  C   UNL     1       2.116   2.451  21.686  0.00  0.00    +0.000 C 
BRANCH  19  20
ATOM     20  OXT UNL     1       3.322   2.039  22.160  0.00  0.00    +0.000 OA
ATOM     21  HXT UNL     1       3.774   1.528  21.447  0.00  0.00    +0.000 HD
ENDBRANCH  19  20
ENDBRANCH   1  19
TORSDOF 2
ENDMDL
MODEL 5
REMARK VINA RESULT:      -6.5      4.134      5.679
REMARK  Name = 
REMARK  2 active torsions:
REMARK  status: ('A' for Active; 'I' for Inactive)
REMARK    1  A    between atoms: C_2  and  OXT_3
REMARK    2  A    between atoms: C_2  and  CA_4
REMARK                            x       y       z     vdW  Elec       q    Type
REMARK                         _______ _______ _______ _____ _____    ______ ____
ROOT
ATOM      1  CA  UNL     1       4.414   2.950  19.220  0.00  0.00    +0.000 C 
ATOM      2  C   UNL     1       3.088   3.532  19.766  0.00  0.00    +0.000 C 
ATOM      3  N   UNL     1       2.572   4.549  18.845  0.00  0.00    +0.000 N 
ATOM      4  C   UNL     1       2.196   5.807  19.250  0.00  0.00    +0.000 A 
ATOM      5  C   UNL     1       1.692   6.045  20.529  0.00  0.00    +0.000 A 
ATOM      6  N   UNL     1       1.315   7.256  21.000  0.00  0.00    +0.000 NA
ATOM      7  C   UNL     1       1.447   8.274  20.144  0.00  0.00    +0.000 A 
ATOM      8  C   UNL     1       1.069   9.544  20.560  0.00  0.00    +0.000 A 
ATOM      9  C   UNL     1       1.165  10.642  19.709  0.00  0.00    +0.000 A 
ATOM     10  C   UNL     1       1.654  10.465  18.422  0.00  0.00    +0.000 A 
ATOM     11  C   UNL     1       2.049   9.190  17.999  0.00  0.00    +0.000 A 
ATOM     12  C   UNL     1       1.949   8.080  18.835  0.00  0.00    +0.000 A 
ATOM     13  N   UNL     1       2.314   6.849  18.395  0.00  0.00    +0.000 NA
ATOM     14  C   UNL     1       2.426   4.126  17.457  0.00  0.00    +0.000 C 
ATOM     15  C   UNL     1       3.764   3.548  16.948  0.00  0.00    +0.000 C 
ATOM     16  N   UNL     1       4.340   2.461  17.794  0.00  0.00    +0.000 NA
ATOM     17  H   UNL     1       5.302   2.334  17.463  0.00  0.00    +0.000 HD
ENDROOT
BRANCH   1  19
ATOM     18  O   UNL     1       5.036   1.926  21.338  0.00  0.00    +0.000 OA
ATOM     19  C   UNL     1       4.828   1.805  20.147  0.00  0.00    +0.000 C 
BRANCH  19  20
ATOM     20  OXT UNL     1       4.932   0.613  19.502  0.00  0.00    +0.000 OA
ATOM     21  HXT UNL     1       4.059   0.408  19.092  0.00  0.00    +0.000 HD
ENDBRANCH  19  20
ENDBRANCH   1  19
TORSDOF 2
ENDMDL
MODEL 6
REMARK VINA RESULT:      -6.3      2.321      3.243
REMARK  Name = 
REMARK  2 active torsions:
REMARK  status: ('A' for Active; 'I' for Inactive)
REMARK    1  A    between atoms: C_2  and  OXT_3
REMARK    2  A    between atoms: C_2  and  CA_4
REMARK                            x       y       z     vdW  Elec       q    Type
REMARK                         _______ _______ _______ _____ _____    ______ ____
ROOT
ATOM      1  CA  UNL     1       7.056   6.954  17.282  0.00  0.00    +0.000 C 
ATOM      2  C   UNL     1       6.794   5.992  18.465  0.00  0.00    +0.000 C 
ATOM      3  N   UNL     1       6.016   4.837  18.007  0.00  0.00    +0.000 N 
ATOM      4  C   UNL     1       4.870   4.409  18.632  0.00  0.00    +0.000 A 
ATOM      5  C   UNL     1       4.673   4.584  20.002  0.00  0.00    +0.000 A 
ATOM      6  N   UNL     1       3.567   4.200  20.681  0.00  0.00    +0.000 NA
ATOM      7  C   UNL     1       2.616   3.611  19.948  0.00  0.00    +0.000 A 
ATOM      8  C   UNL     1       1.458   3.184  20.584  0.00  0.00    +0.000 A 
ATOM      9  C   UNL     1       0.440   2.547  19.880  0.00  0.00    +0.000 A 
ATOM     10  C   UNL     1       0.582   2.340  18.515  0.00  0.00    +0.000 A 
ATOM     11  C   UNL     1       1.742   2.779  17.864  0.00  0.00    +0.000 A 
ATOM     12  C   UNL     1       2.774   3.409  18.556  0.00  0.00    +0.000 A 
ATOM     13  N   UNL     1       3.899   3.803  17.909  0.00  0.00    +0.000 NA
ATOM     14  C   UNL     1       6.566   4.122  16.861  0.00  0.00    +0.000 C 
ATOM     15  C   UNL     1       6.818   5.112  15.705  0.00  0.00    +0.000 C 
ATOM     16  N   UNL     1       7.655   6.295  16.063  0.00  0.00    +0.000 NA
ATOM     17  H   UNL     1       7.555   6.951  15.281  0.00  0.00    +0.000 HD
ENDROOT
BRANCH   1  19
ATOM     18  O   UNL     1       8.133   9.137  17.243  0.00  0.00    +0.000 OA
ATOM     19  C   UNL     1       7.984   8.061  17.789  0.00  0.00    +0.000 C 
BRANCH  19  20
ATOM     20  OXT UNL     1       8.631   7.726  18.937  0.00  0.00    +0.000 OA
ATOM     21  HXT UNL     1       9.203   6.944  18.750  0.00  0.00    +0.000 HD
ENDBRANCH  19  20
ENDBRANCH   1  19
TORSDOF 2
ENDMDL
MODEL 7
REMARK VINA RESULT:      -6.1      3.942      4.671
REMARK  Name = 
REMARK  2 active torsions:
REMARK  status: ('A' for Active; 'I' for Inactive)
REMARK    1  A    between atoms: C_2  and  OXT_3
REMARK    2  A    between atoms: C_2  and  CA_4
REMARK                            x       y       z     vdW  Elec       q    Type
REMARK                         _______ _______ _______ _____ _____    ______ ____
ROOT
ATOM      1  CA  UNL     1       6.781   5.949  17.911  0.00  0.00    +0.000 C 
ATOM      2  C   UNL     1       5.401   5.537  18.476  0.00  0.00    +0.000 C 
ATOM      3  N   UNL     1       4.338   6.279  17.792  0.00  0.00    +0.000 N 
ATOM      4  C   UNL     1       3.354   6.969  18.459  0.00  0.00    +0.000 A 
ATOM      5  C   UNL     1       2.899   6.564  19.714  0.00  0.00    +0.000 A 
ATOM      6  N   UNL     1       1.945   7.200  20.434  0.00  0.00    +0.000 NA
ATOM      7  C   UNL     1       1.423   8.290  19.862  0.00  0.00    +0.000 A 
ATOM      8  C   UNL     1       0.431   8.984  20.543  0.00  0.00    +0.000 A 
ATOM      9  C   UNL     1      -0.166  10.115  19.993  0.00  0.00    +0.000 A 
ATOM     10  C   UNL     1       0.242  10.562  18.744  0.00  0.00    +0.000 A 
ATOM     11  C   UNL     1       1.250   9.874  18.057  0.00  0.00    +0.000 A 
ATOM     12  C   UNL     1       1.850   8.735  18.589  0.00  0.00    +0.000 A 
ATOM     13  N   UNL     1       2.807   8.069  17.894  0.00  0.00    +0.000 NA
ATOM     14  C   UNL     1       4.353   6.201  16.335  0.00  0.00    +0.000 C 
ATOM     15  C   UNL     1       5.743   6.614  15.808  0.00  0.00    +0.000 C 
ATOM     16  N   UNL     1       6.889   5.867  16.407  0.00  0.00    +0.000 NA
ATOM     17  H   UNL     1       7.730   6.384  16.132  0.00  0.00    +0.000 HD
ENDROOT
BRANCH   1  19
ATOM     18  O   UNL     1       8.240   5.177  19.700  0.00  0.00    +0.000 OA
ATOM     19  C   UNL     1       7.831   5.046  18.563  0.00  0.00    +0.000 C 
BRANCH  19  20
ATOM     20  OXT UNL     1       8.264   4.056  17.737  0.00  0.00    +0.000 OA
ATOM     21  HXT UNL     1       7.484   3.701  17.248  0.00  0.00    +0.000 HD
ENDBRANCH  19  20
ENDBRANCH   1  19
TORSDOF 2
ENDMDL
MODEL 8
REMARK VINA RESULT:      -6.1      3.589      4.183
REMARK  Name = 
REMARK  2 active torsions:
REMARK  status: ('A' for Active; 'I' for Inactive)
REMARK    1  A    between atoms: C_2  and  OXT_3
REMARK    2  A    between atoms: C_2  and  CA_4
REMARK                            x       y       z     vdW  Elec       q    Type
REMARK                         _______ _______ _______ _____ _____    ______ ____
ROOT
ATOM      1  CA  UNL     1       4.767   4.364  16.721  0.00  0.00    +0.000 C 
ATOM      2  C   UNL     1       4.770   5.901  16.895  0.00  0.00    +0.000 C 
ATOM      3  N   UNL     1       4.367   6.250  18.261  0.00  0.00    +0.000 N 
ATOM      4  C   UNL     1       3.380   7.164  18.542  0.00  0.00    +0.000 A 
ATOM      5  C   UNL     1       3.115   8.240  17.694  0.00  0.00    +0.000 A 
ATOM      6  N   UNL     1       2.153   9.170  17.899  0.00  0.00    +0.000 NA
ATOM      7  C   UNL     1       1.428   9.012  19.010  0.00  0.00    +0.000 A 
ATOM      8  C   UNL     1       0.430   9.937  19.287  0.00  0.00    +0.000 A 
ATOM      9  C   UNL     1      -0.348   9.839  20.438  0.00  0.00    +0.000 A 
ATOM     10  C   UNL     1      -0.126   8.793  21.322  0.00  0.00    +0.000 A 
ATOM     11  C   UNL     1       0.870   7.849  21.044  0.00  0.00    +0.000 A 
ATOM     12  C   UNL     1       1.664   7.939  19.903  0.00  0.00    +0.000 A 
ATOM     13  N   UNL     1       2.640   7.027  19.666  0.00  0.00    +0.000 NA
ATOM     14  C   UNL     1       5.122   5.600  19.326  0.00  0.00    +0.000 C 
ATOM     15  C   UNL     1       5.100   4.071  19.118  0.00  0.00    +0.000 C 
ATOM     16  N   UNL     1       5.553   3.615  17.770  0.00  0.00    +0.000 NA
ATOM     17  H   UNL     1       5.284   2.628  17.708  0.00  0.00    +0.000 HD
ENDROOT
BRANCH   1  19
ATOM     18  O   UNL     1       5.171   4.770  14.355  0.00  0.00    +0.000 OA
ATOM     19  C   UNL     1       5.326   4.059  15.329  0.00  0.00    +0.000 C 
BRANCH  19  20
ATOM     20  OXT UNL     1       6.037   2.901  15.286  0.00  0.00    +0.000 OA
ATOM     21  HXT UNL     1       6.996   3.128  15.323  0.00  0.00    +0.000 HD
ENDBRANCH  19  20
ENDBRANCH   1  19
TORSDOF 2
ENDMDL
MODEL 9
REMARK VINA RESULT:      -6.1      4.587      6.185
REMARK  Name = 
REMARK  2 active torsions:
REMARK  status: ('A' for Active; 'I' for Inactive)
REMARK    1  A    between atoms: C_2  and  OXT_3
REMARK    2  A    between atoms: C_2  and  CA_4
REMARK                            x       y       z     vdW  Elec       q    Type
REMARK                         _______ _______ _______ _____ _____    ______ ____
ROOT
ATOM      1  CA  UNL     1       1.851   3.336  19.026  0.00  0.00    +0.000 C 
ATOM      2  C   UNL     1       2.596   4.691  18.997  0.00  0.00    +0.000 C 
ATOM      3  N   UNL     1       2.304   5.448  20.218  0.00  0.00    +0.000 N 
ATOM      4  C   UNL     1       1.876   6.754  20.208  0.00  0.00    +0.000 A 
ATOM      5  C   UNL     1       2.247   7.639  19.194  0.00  0.00    +0.000 A 
ATOM      6  N   UNL     1       1.854   8.931  19.112  0.00  0.00    +0.000 NA
ATOM      7  C   UNL     1       1.054   9.354  20.096  0.00  0.00    +0.000 A 
ATOM      8  C   UNL     1       0.622  10.673  20.079  0.00  0.00    +0.000 A 
ATOM      9  C   UNL     1      -0.196  11.179  21.085  0.00  0.00    +0.000 A 
ATOM     10  C   UNL     1      -0.593  10.348  22.123  0.00  0.00    +0.000 A 
ATOM     11  C   UNL     1      -0.171   9.013  22.141  0.00  0.00    +0.000 A 
ATOM     12  C   UNL     1       0.656   8.494  21.147  0.00  0.00    +0.000 A 
ATOM     13  N   UNL     1       1.073   7.204  21.200  0.00  0.00    +0.000 NA
ATOM     14  C   UNL     1       2.549   4.742  21.471  0.00  0.00    +0.000 C 
ATOM     15  C   UNL     1       1.795   3.396  21.462  0.00  0.00    +0.000 C 
ATOM     16  N   UNL     1       2.076   2.527  20.281  0.00  0.00    +0.000 NA
ATOM     17  H   UNL     1       1.362   1.792  20.303  0.00  0.00    +0.000 HD
ENDROOT
BRANCH   1  19
ATOM     18  O   UNL     1       2.207   2.929  16.653  0.00  0.00    +0.000 OA
ATOM     19  C   UNL     1       2.302   2.539  17.800  0.00  0.00    +0.000 C 
BRANCH  19  20
ATOM     20  OXT UNL     1       2.840   1.332  18.121  0.00  0.00    +0.000 OA
ATOM     21  HXT UNL     1       3.133   1.367  19.062  0.00  0.00    +0.000 HD
ENDBRANCH  19  20
ENDBRANCH   1  19
TORSDOF 2
ENDMDL
