MODEL 1
REMARK VINA RESULT:      -7.6      0.000      0.000
REMARK  Name = 
REMARK  3 active torsions:
REMARK  status: ('A' for Active; 'I' for Inactive)
REMARK    1  A    between atoms: C_1  and  C_2
REMARK    2  A    between atoms: C_5  and  C_6
REMARK    3  A    between atoms: C_15  and  C_16
REMARK                            x       y       z     vdW  Elec       q    Type
REMARK                         _______ _______ _______ _____ _____    ______ ____
ROOT
ATOM      1  C   UNL     1       4.951   5.808  17.511  0.00  0.00    +0.000 C 
ATOM      2  O   UNL     1       4.830   6.519  16.512  0.00  0.00    +0.000 OA
ATOM      3  N   UNL     1       6.149   5.912  18.238  0.00  0.00    +0.000 N 
ATOM      4  C   UNL     1       6.478   5.315  19.429  0.00  0.00    +0.000 A 
ATOM      5  N   UNL     1       7.704   5.620  19.781  0.00  0.00    +0.000 NA
ATOM      6  N   UNL     1       8.199   6.479  18.836  0.00  0.00    +0.000 NA
ATOM      7  C   UNL     1       7.267   6.676  17.930  0.00  0.00    +0.000 A 
ATOM      8  N   UNL     1       7.341   7.478  16.855  0.00  0.00    +0.000 N 
ATOM      9  H   UNL     1       8.216   7.925  16.609  0.00  0.00    +0.000 HD
ATOM     10  H   UNL     1       6.603   7.488  16.150  0.00  0.00    +0.000 HD
ENDROOT
BRANCH   1  15
ATOM     11  C   UNL     1       0.581   2.200  18.752  0.00  0.00    +0.000 C 
ATOM     12  C   UNL     1       1.699   3.163  18.456  0.00  0.00    +0.000 A 
ATOM     13  C   UNL     1       2.537   2.924  17.356  0.00  0.00    +0.000 A 
ATOM     14  C   UNL     1       3.587   3.794  17.058  0.00  0.00    +0.000 A 
ATOM     15  C   UNL     1       3.812   4.920  17.854  0.00  0.00    +0.000 A 
ATOM     16  C   UNL     1       3.006   5.149  18.973  0.00  0.00    +0.000 A 
ATOM     17  C   UNL     1       1.933   4.290  19.271  0.00  0.00    +0.000 A 
ATOM     18  C   UNL     1       1.067   4.585  20.466  0.00  0.00    +0.000 C 
ENDBRANCH   1  15
TORSDOF 1
ENDMDL
MODEL 2
REMARK VINA RESULT:      -7.4      3.156      5.750
REMARK  Name = 
REMARK  3 active torsions:
REMARK  status: ('A' for Active; 'I' for Inactive)
REMARK    1  A    between atoms: C_1  and  C_2
REMARK    2  A    between atoms: C_5  and  C_6
REMARK    3  A    between atoms: C_15  and  C_16
REMARK                            x       y       z     vdW  Elec       q    Type
REMARK                         _______ _______ _______ _____ _____    ______ ____
ROOT
ATOM      1  C   UNL     1       3.723   3.667  18.208  0.00  0.00    +0.000 C 
ATOM      2  O   UNL     1       3.848   2.626  17.561  0.00  0.00    +0.000 OA
ATOM      3  N   UNL     1       2.619   3.763  19.073  0.00  0.00    +0.000 N 
ATOM      4  C   UNL     1       2.322   4.760  19.967  0.00  0.00    +0.000 A 
ATOM      5  N   UNL     1       1.184   4.519  20.573  0.00  0.00    +0.000 NA
ATOM      6  N   UNL     1       0.725   3.311  20.116  0.00  0.00    +0.000 NA
ATOM      7  C   UNL     1       1.590   2.846  19.243  0.00  0.00    +0.000 A 
ATOM      8  N   UNL     1       1.529   1.675  18.589  0.00  0.00    +0.000 N 
ATOM      9  H   UNL     1       0.703   1.092  18.659  0.00  0.00    +0.000 HD
ATOM     10  H   UNL     1       2.195   1.444  17.851  0.00  0.00    +0.000 HD
ENDROOT
BRANCH   1  15
ATOM     11  C   UNL     1       7.641   7.865  17.383  0.00  0.00    +0.000 C 
ATOM     12  C   UNL     1       6.652   6.755  17.619  0.00  0.00    +0.000 A 
ATOM     13  C   UNL     1       5.474   6.714  16.859  0.00  0.00    +0.000 A 
ATOM     14  C   UNL     1       4.532   5.703  17.057  0.00  0.00    +0.000 A 
ATOM     15  C   UNL     1       4.758   4.714  18.017  0.00  0.00    +0.000 A 
ATOM     16  C   UNL     1       5.913   4.764  18.805  0.00  0.00    +0.000 A 
ATOM     17  C   UNL     1       6.876   5.767  18.599  0.00  0.00    +0.000 A 
ATOM     18  C   UNL     1       8.122   5.772  19.445  0.00  0.00    +0.000 C 
ENDBRANCH   1  15
TORSDOF 1
ENDMDL
MODEL 3
REMARK VINA RESULT:      -7.3      3.251      4.308
REMARK  Name = 
REMARK  3 active torsions:
REMARK  status: ('A' for Active; 'I' for Inactive)
REMARK    1  A    between atoms: C_1  and  C_2
REMARK    2  A    between atoms: C_5  and  C_6
REMARK    3  A    between atoms: C_15  and  C_16
REMARK                            x       y       z     vdW  Elec       q    Type
REMARK                         _______ _______ _______ _____ _____    ______ ____
ROOT
ATOM      1  C   UNL     1       6.456   5.288  15.389  0.00  0.00    +0.000 C 
ATOM      2  O   UNL     1       7.361   6.030  15.775  0.00  0.00    +0.000 OA
ATOM      3  N   UNL     1       6.582   4.728  14.106  0.00  0.00    +0.000 N 
ATOM      4  C   UNL     1       5.774   3.799  13.499  0.00  0.00    +0.000 A 
ATOM      5  N   UNL     1       6.189   3.545  12.281  0.00  0.00    +0.000 NA
ATOM      6  N   UNL     1       7.327   4.280  12.075  0.00  0.00    +0.000 NA
ATOM      7  C   UNL     1       7.579   4.964  13.169  0.00  0.00    +0.000 A 
ATOM      8  N   UNL     1       8.622   5.780  13.390  0.00  0.00    +0.000 N 
ATOM      9  H   UNL     1       9.260   6.011  12.637  0.00  0.00    +0.000 HD
ATOM     10  H   UNL     1       8.679   6.351  14.234  0.00  0.00    +0.000 HD
ENDROOT
BRANCH   1  15
ATOM     11  C   UNL     1       1.983   4.527  19.003  0.00  0.00    +0.000 C 
ATOM     12  C   UNL     1       3.154   4.685  18.071  0.00  0.00    +0.000 A 
ATOM     13  C   UNL     1       3.555   5.973  17.686  0.00  0.00    +0.000 A 
ATOM     14  C   UNL     1       4.632   6.155  16.818  0.00  0.00    +0.000 A 
ATOM     15  C   UNL     1       5.328   5.049  16.324  0.00  0.00    +0.000 A 
ATOM     16  C   UNL     1       4.916   3.760  16.673  0.00  0.00    +0.000 A 
ATOM     17  C   UNL     1       3.845   3.566  17.562  0.00  0.00    +0.000 A 
ATOM     18  C   UNL     1       3.449   2.164  17.940  0.00  0.00    +0.000 C 
ENDBRANCH   1  15
TORSDOF 1
ENDMDL
MODEL 4
REMARK VINA RESULT:      -7.3      1.311      1.994
REMARK  Name = 
REMARK  3 active torsions:
REMARK  status: ('A' for Active; 'I' for Inactive)
REMARK    1  A    between atoms: C_1  and  C_2
REMARK    2  A    between atoms: C_5  and  C_6
REMARK    3  A    between atoms: C_15  and  C_16
REMARK                            x       y       z     vdW  Elec       q    Type
REMARK                         _______ _______ _______ _____ _____    ______ ____
ROOT
ATOM      1  C   UNL     1       5.699   4.991  19.005  0.00  0.00    +0.000 C 
ATOM      2  O   UNL     1       6.422   4.742  19.970  0.00  0.00    +0.000 OA
ATOM      3  N   UNL     1       6.189   5.894  18.045  0.00  0.00    +0.000 N 
ATOM      4  C   UNL     1       5.628   6.246  16.843  0.00  0.00    +0.000 A 
ATOM      5  N   UNL     1       6.360   7.149  16.234  0.00  0.00    +0.000 NA
ATOM      6  N   UNL     1       7.462   7.376  17.016  0.00  0.00    +0.000 NA
ATOM      7  C   UNL     1       7.377   6.611  18.081  0.00  0.00    +0.000 A 
ATOM      8  N   UNL     1       8.272   6.509  19.077  0.00  0.00    +0.000 N 
ATOM      9  H   UNL     1       9.066   7.136  19.117  0.00  0.00    +0.000 HD
ATOM     10  H   UNL     1       8.070   5.964  19.916  0.00  0.00    +0.000 HD
ENDROOT
BRANCH   1  15
ATOM     11  C   UNL     1       0.650   2.150  18.697  0.00  0.00    +0.000 C 
ATOM     12  C   UNL     1       1.942   2.917  18.798  0.00  0.00    +0.000 A 
ATOM     13  C   UNL     1       3.030   2.535  17.999  0.00  0.00    +0.000 A 
ATOM     14  C   UNL     1       4.244   3.220  18.073  0.00  0.00    +0.000 A 
ATOM     15  C   UNL     1       4.385   4.302  18.945  0.00  0.00    +0.000 A 
ATOM     16  C   UNL     1       3.319   4.670  19.771  0.00  0.00    +0.000 A 
ATOM     17  C   UNL     1       2.086   3.999  19.690  0.00  0.00    +0.000 A 
ATOM     18  C   UNL     1       0.950   4.442  20.573  0.00  0.00    +0.000 C 
ENDBRANCH   1  15
TORSDOF 1
ENDMDL
MODEL 5
REMARK VINA RESULT:      -7.2      3.277      4.163
REMARK  Name = 
REMARK  3 active torsions:
REMARK  status: ('A' for Active; 'I' for Inactive)
REMARK    1  A    between atoms: C_1  and  C_2
REMARK    2  A    between atoms: C_5  and  C_6
REMARK    3  A    between atoms: C_15  and  C_16
REMARK                            x       y       z     vdW  Elec       q    Type
REMARK                         _______ _______ _______ _____ _____    ______ ____
ROOT
ATOM      1  C   UNL     1       6.441   5.328  15.376  0.00  0.00    +0.000 C 
ATOM      2  O   UNL     1       7.352   6.062  15.762  0.00  0.00    +0.000 OA
ATOM      3  N   UNL     1       6.573   4.748  14.102  0.00  0.00    +0.000 N 
ATOM      4  C   UNL     1       5.759   3.822  13.499  0.00  0.00    +0.000 A 
ATOM      5  N   UNL     1       6.184   3.545  12.289  0.00  0.00    +0.000 NA
ATOM      6  N   UNL     1       7.335   4.260  12.087  0.00  0.00    +0.000 NA
ATOM      7  C   UNL     1       7.584   4.957  13.174  0.00  0.00    +0.000 A 
ATOM      8  N   UNL     1       8.637   5.761  13.395  0.00  0.00    +0.000 N 
ATOM      9  H   UNL     1       9.286   5.972  12.647  0.00  0.00    +0.000 HD
ATOM     10  H   UNL     1       8.692   6.342  14.232  0.00  0.00    +0.000 HD
ENDROOT
BRANCH   1  15
ATOM     11  C   UNL     1       2.049   4.342  19.035  0.00  0.00    +0.000 C 
ATOM     12  C   UNL     1       3.175   4.636  18.081  0.00  0.00    +0.000 A 
ATOM     13  C   UNL     1       3.926   3.573  17.558  0.00  0.00    +0.000 A 
ATOM     14  C   UNL     1       4.982   3.811  16.676  0.00  0.00    +0.000 A 
ATOM     15  C   UNL     1       5.300   5.119  16.301  0.00  0.00    +0.000 A 
ATOM     16  C   UNL     1       4.581   6.188  16.843  0.00  0.00    +0.000 A 
ATOM     17  C   UNL     1       3.503   5.958  17.716  0.00  0.00    +0.000 A 
ATOM     18  C   UNL     1       2.732   7.133  18.256  0.00  0.00    +0.000 C 
ENDBRANCH   1  15
TORSDOF 1
ENDMDL
MODEL 6
REMARK VINA RESULT:      -7.2      2.622      3.774
REMARK  Name = 
REMARK  3 active torsions:
REMARK  status: ('A' for Active; 'I' for Inactive)
REMARK    1  A    between atoms: C_1  and  C_2
REMARK    2  A    between atoms: C_5  and  C_6
REMARK    3  A    between atoms: C_15  and  C_16
REMARK                            x       y       z     vdW  Elec       q    Type
REMARK                         _______ _______ _______ _____ _____    ______ ____
ROOT
ATOM      1  C   UNL     1       4.187   5.232  17.368  0.00  0.00    +0.000 C 
ATOM      2  O   UNL     1       3.671   4.162  17.041  0.00  0.00    +0.000 OA
ATOM      3  N   UNL     1       5.504   5.473  16.940  0.00  0.00    +0.000 N 
ATOM      4  C   UNL     1       6.249   6.617  17.080  0.00  0.00    +0.000 A 
ATOM      5  N   UNL     1       7.453   6.452  16.586  0.00  0.00    +0.000 NA
ATOM      6  N   UNL     1       7.508   5.189  16.058  0.00  0.00    +0.000 NA
ATOM      7  C   UNL     1       6.342   4.613  16.243  0.00  0.00    +0.000 A 
ATOM      8  N   UNL     1       5.973   3.386  15.842  0.00  0.00    +0.000 N 
ATOM      9  H   UNL     1       6.654   2.753  15.439  0.00  0.00    +0.000 HD
ATOM     10  H   UNL     1       5.077   2.984  16.122  0.00  0.00    +0.000 HD
ENDROOT
BRANCH   1  15
ATOM     11  C   UNL     1       1.011   8.795  20.667  0.00  0.00    +0.000 C 
ATOM     12  C   UNL     1       1.826   7.893  19.778  0.00  0.00    +0.000 A 
ATOM     13  C   UNL     1       2.234   6.641  20.262  0.00  0.00    +0.000 A 
ATOM     14  C   UNL     1       2.997   5.784  19.467  0.00  0.00    +0.000 A 
ATOM     15  C   UNL     1       3.360   6.166  18.173  0.00  0.00    +0.000 A 
ATOM     16  C   UNL     1       2.989   7.427  17.694  0.00  0.00    +0.000 A 
ATOM     17  C   UNL     1       2.204   8.289  18.479  0.00  0.00    +0.000 A 
ATOM     18  C   UNL     1       1.797   9.626  17.918  0.00  0.00    +0.000 C 
ENDBRANCH   1  15
TORSDOF 1
ENDMDL
MODEL 7
REMARK VINA RESULT:      -7.2      3.627      5.066
REMARK  Name = 
REMARK  3 active torsions:
REMARK  status: ('A' for Active; 'I' for Inactive)
REMARK    1  A    between atoms: C_1  and  C_2
REMARK    2  A    between atoms: C_5  and  C_6
REMARK    3  A    between atoms: C_15  and  C_16
REMARK                            x       y       z     vdW  Elec       q    Type
REMARK                         _______ _______ _______ _____ _____    ______ ____
ROOT
ATOM      1  C   UNL     1       3.577   5.418  19.122  0.00  0.00    +0.000 C 
ATOM      2  O   UNL     1       4.705   5.423  19.618  0.00  0.00    +0.000 OA
ATOM      3  N   UNL     1       3.074   4.186  18.670  0.00  0.00    +0.000 N 
ATOM      4  C   UNL     1       1.821   3.903  18.187  0.00  0.00    +0.000 A 
ATOM      5  N   UNL     1       1.734   2.644  17.827  0.00  0.00    +0.000 NA
ATOM      6  N   UNL     1       2.934   2.052  18.118  0.00  0.00    +0.000 NA
ATOM      7  C   UNL     1       3.725   2.959  18.645  0.00  0.00    +0.000 A 
ATOM      8  N   UNL     1       4.976   2.777  19.097  0.00  0.00    +0.000 N 
ATOM      9  H   UNL     1       5.450   1.894  18.951  0.00  0.00    +0.000 HD
ATOM     10  H   UNL     1       5.552   3.566  19.395  0.00  0.00    +0.000 HD
ENDROOT
BRANCH   1  15
ATOM     11  C   UNL     1       0.765  10.474  18.702  0.00  0.00    +0.000 C 
ATOM     12  C   UNL     1       1.489   9.163  18.851  0.00  0.00    +0.000 A 
ATOM     13  C   UNL     1       2.241   8.669  17.775  0.00  0.00    +0.000 A 
ATOM     14  C   UNL     1       2.919   7.453  17.878  0.00  0.00    +0.000 A 
ATOM     15  C   UNL     1       2.857   6.714  19.062  0.00  0.00    +0.000 A 
ATOM     16  C   UNL     1       2.081   7.180  20.128  0.00  0.00    +0.000 A 
ATOM     17  C   UNL     1       1.411   8.412  20.042  0.00  0.00    +0.000 A 
ATOM     18  C   UNL     1       0.611   8.897  21.222  0.00  0.00    +0.000 C 
ENDBRANCH   1  15
TORSDOF 1
ENDMDL
MODEL 8
REMARK VINA RESULT:      -7.1      0.825      1.579
REMARK  Name = 
REMARK  3 active torsions:
REMARK  status: ('A' for Active; 'I' for Inactive)
REMARK    1  A    between atoms: C_1  and  C_2
REMARK    2  A    between atoms: C_5  and  C_6
REMARK    3  A    between atoms: C_15  and  C_16
REMARK                            x       y       z     vdW  Elec       q    Type
REMARK                         _______ _______ _______ _____ _____    ______ ____
ROOT
ATOM      1  C   UNL     1       5.001   5.974  17.524  0.00  0.00    +0.000 C 
ATOM      2  O   UNL     1       4.793   6.771  16.608  0.00  0.00    +0.000 OA
ATOM      3  N   UNL     1       6.233   6.064  18.194  0.00  0.00    +0.000 N 
ATOM      4  C   UNL     1       6.652   5.371  19.302  0.00  0.00    +0.000 A 
ATOM      5  N   UNL     1       7.883   5.699  19.618  0.00  0.00    +0.000 NA
ATOM      6  N   UNL     1       8.287   6.668  18.738  0.00  0.00    +0.000 NA
ATOM      7  C   UNL     1       7.298   6.907  17.905  0.00  0.00    +0.000 A 
ATOM      8  N   UNL     1       7.277   7.811  16.913  0.00  0.00    +0.000 N 
ATOM      9  H   UNL     1       8.117   8.321  16.667  0.00  0.00    +0.000 HD
ATOM     10  H   UNL     1       6.501   7.853  16.251  0.00  0.00    +0.000 HD
ENDROOT
BRANCH   1  15
ATOM     11  C   UNL     1       0.658   2.303  18.675  0.00  0.00    +0.000 C 
ATOM     12  C   UNL     1       1.812   3.227  18.387  0.00  0.00    +0.000 A 
ATOM     13  C   UNL     1       1.567   4.598  18.220  0.00  0.00    +0.000 A 
ATOM     14  C   UNL     1       2.613   5.480  17.944  0.00  0.00    +0.000 A 
ATOM     15  C   UNL     1       3.922   5.003  17.836  0.00  0.00    +0.000 A 
ATOM     16  C   UNL     1       4.172   3.634  17.965  0.00  0.00    +0.000 A 
ATOM     17  C   UNL     1       3.129   2.740  18.262  0.00  0.00    +0.000 A 
ATOM     18  C   UNL     1       3.441   1.276  18.425  0.00  0.00    +0.000 C 
ENDBRANCH   1  15
TORSDOF 1
ENDMDL
MODEL 9
REMARK VINA RESULT:      -7.1      2.153      2.783
REMARK  Name = 
REMARK  3 active torsions:
REMARK  status: ('A' for Active; 'I' for Inactive)
REMARK    1  A    between atoms: C_1  and  C_2
REMARK    2  A    between atoms: C_5  and  C_6
REMARK    3  A    between atoms: C_15  and  C_16
REMARK                            x       y       z     vdW  Elec       q    Type
REMARK                         _______ _______ _______ _____ _____    ______ ____
ROOT
ATOM      1  C   UNL     1       5.654   5.168  18.247  0.00  0.00    +0.000 C 
ATOM      2  O   UNL     1       6.513   5.829  18.833  0.00  0.00    +0.000 OA
ATOM      3  N   UNL     1       5.784   5.025  16.855  0.00  0.00    +0.000 N 
ATOM      4  C   UNL     1       5.029   4.260  16.003  0.00  0.00    +0.000 A 
ATOM      5  N   UNL     1       5.427   4.412  14.762  0.00  0.00    +0.000 NA
ATOM      6  N   UNL     1       6.504   5.258  14.780  0.00  0.00    +0.000 NA
ATOM      7  C   UNL     1       6.736   5.604  16.026  0.00  0.00    +0.000 A 
ATOM      8  N   UNL     1       7.724   6.395  16.475  0.00  0.00    +0.000 N 
ATOM      9  H   UNL     1       8.323   6.887  15.823  0.00  0.00    +0.000 HD
ATOM     10  H   UNL     1       7.763   6.692  17.451  0.00  0.00    +0.000 HD
ENDROOT
BRANCH   1  15
ATOM     11  C   UNL     1       1.541   2.719  21.524  0.00  0.00    +0.000 C 
ATOM     12  C   UNL     1       2.584   3.387  20.669  0.00  0.00    +0.000 A 
ATOM     13  C   UNL     1       3.664   2.632  20.190  0.00  0.00    +0.000 A 
ATOM     14  C   UNL     1       4.652   3.221  19.400  0.00  0.00    +0.000 A 
ATOM     15  C   UNL     1       4.572   4.577  19.074  0.00  0.00    +0.000 A 
ATOM     16  C   UNL     1       3.519   5.349  19.575  0.00  0.00    +0.000 A 
ATOM     17  C   UNL     1       2.508   4.760  20.355  0.00  0.00    +0.000 A 
ATOM     18  C   UNL     1       1.372   5.615  20.852  0.00  0.00    +0.000 C 
ENDBRANCH   1  15
TORSDOF 1
ENDMDL
