MODEL 1
REMARK VINA RESULT:      -7.4      0.000      0.000
REMARK  Name = 
REMARK  7 active torsions:
REMARK  status: ('A' for Active; 'I' for Inactive)
REMARK    1  A    between atoms: C_1  and  C_2
REMARK    2  A    between atoms: C_2  and  C_3
REMARK    3  A    between atoms: C_3  and  N_4
REMARK    4  A    between atoms: C_3  and  C_19
REMARK    5  A    between atoms: C_5  and  C_7
REMARK    6  A    between atoms: C_9  and  N_10
REMARK    7  A    between atoms: C_14  and  N_15
REMARK                            x       y       z     vdW  Elec       q    Type
REMARK                         _______ _______ _______ _____ _____    ______ ____
ROOT
ATOM      1  N   UNL     1       5.611   5.415  17.292  0.00  0.00    +0.000 N 
ATOM      2  C   UNL     1       5.498   4.896  18.559  0.00  0.00    +0.000 C 
ATOM      3  O   UNL     1       6.412   4.397  19.200  0.00  0.00    +0.000 OA
ATOM      4  H   UNL     1       4.835   5.892  16.859  0.00  0.00    +0.000 HD
ENDROOT
BRANCH   2   5
ATOM      5  C   UNL     1       4.153   5.022  19.185  0.00  0.00    +0.000 A 
ATOM      6  C   UNL     1       3.537   6.271  19.318  0.00  0.00    +0.000 A 
ATOM      7  C   UNL     1       2.316   6.370  19.998  0.00  0.00    +0.000 A 
ATOM      8  C   UNL     1       1.692   5.230  20.525  0.00  0.00    +0.000 A 
ATOM      9  C   UNL     1       2.306   3.981  20.353  0.00  0.00    +0.000 A 
ATOM     10  C   UNL     1       3.530   3.869  19.676  0.00  0.00    +0.000 A 
BRANCH   7  11
ATOM     11  N   UNL     1       1.709   7.693  20.196  0.00  0.00    +0.000 N 
ATOM     12  O   UNL     1       1.758   8.490  19.249  0.00  0.00    +0.000 OA
ATOM     13  O   UNL     1       1.206   7.934  21.300  0.00  0.00    +0.000 OA
ENDBRANCH   7  11
BRANCH   9  14
ATOM     14  N   UNL     1       1.682   2.782  20.931  0.00  0.00    +0.000 N 
ATOM     15  O   UNL     1       1.214   1.947  20.145  0.00  0.00    +0.000 OA
ATOM     16  O   UNL     1       1.649   2.688  22.165  0.00  0.00    +0.000 OA
ENDBRANCH   9  14
ENDBRANCH   2   5
BRANCH   1  17
ATOM     17  C   UNL     1       6.877   5.446  16.569  0.00  0.00    +0.000 C 
BRANCH  17  18
ATOM     18  C   UNL     1       6.656   4.968  15.139  0.00  0.00    +0.000 A 
ATOM     19  C   UNL     1       5.525   4.202  14.820  0.00  0.00    +0.000 A 
ATOM     20  C   UNL     1       5.366   3.667  13.540  0.00  0.00    +0.000 A 
ATOM     21  C   UNL     1       6.328   3.900  12.558  0.00  0.00    +0.000 A 
ATOM     22  C   UNL     1       7.436   4.692  12.846  0.00  0.00    +0.000 A 
ATOM     23  C   UNL     1       7.594   5.232  14.123  0.00  0.00    +0.000 A 
ENDBRANCH  17  18
BRANCH  17  25
ATOM     24  C   UNL     1       7.771   7.477  17.907  0.00  0.00    +0.000 C 
ATOM     25  C   UNL     1       7.522   6.851  16.544  0.00  0.00    +0.000 C 
ENDBRANCH  17  25
ENDBRANCH   1  17
TORSDOF 6
ENDMDL
MODEL 2
REMARK VINA RESULT:      -7.3      4.156      7.531
REMARK  Name = 
REMARK  7 active torsions:
REMARK  status: ('A' for Active; 'I' for Inactive)
REMARK    1  A    between atoms: C_1  and  C_2
REMARK    2  A    between atoms: C_2  and  C_3
REMARK    3  A    between atoms: C_3  and  N_4
REMARK    4  A    between atoms: C_3  and  C_19
REMARK    5  A    between atoms: C_5  and  C_7
REMARK    6  A    between atoms: C_9  and  N_10
REMARK    7  A    between atoms: C_14  and  N_15
REMARK                            x       y       z     vdW  Elec       q    Type
REMARK                         _______ _______ _______ _____ _____    ______ ____
ROOT
ATOM      1  N   UNL     1       1.073   9.144  19.144  0.00  0.00    +0.000 N 
ATOM      2  C   UNL     1       2.044   9.039  18.178  0.00  0.00    +0.000 C 
ATOM      3  O   UNL     1       2.478   9.968  17.512  0.00  0.00    +0.000 OA
ATOM      4  H   UNL     1       0.827   8.350  19.716  0.00  0.00    +0.000 HD
ENDROOT
BRANCH   2   5
ATOM      5  C   UNL     1       2.625   7.680  17.999  0.00  0.00    +0.000 A 
ATOM      6  C   UNL     1       3.860   7.504  17.367  0.00  0.00    +0.000 A 
ATOM      7  C   UNL     1       4.334   6.207  17.127  0.00  0.00    +0.000 A 
ATOM      8  C   UNL     1       3.598   5.086  17.532  0.00  0.00    +0.000 A 
ATOM      9  C   UNL     1       2.376   5.280  18.194  0.00  0.00    +0.000 A 
ATOM     10  C   UNL     1       1.890   6.573  18.439  0.00  0.00    +0.000 A 
BRANCH   7  11
ATOM     11  N   UNL     1       5.599   6.029  16.401  0.00  0.00    +0.000 N 
ATOM     12  O   UNL     1       5.636   6.398  15.219  0.00  0.00    +0.000 OA
ATOM     13  O   UNL     1       6.540   5.503  17.009  0.00  0.00    +0.000 OA
ENDBRANCH   7  11
BRANCH   9  14
ATOM     14  N   UNL     1       1.576   4.114  18.593  0.00  0.00    +0.000 N 
ATOM     15  O   UNL     1       1.386   3.234  17.743  0.00  0.00    +0.000 OA
ATOM     16  O   UNL     1       1.128   4.090  19.747  0.00  0.00    +0.000 OA
ENDBRANCH   9  14
ENDBRANCH   2   5
BRANCH   1  17
ATOM     17  C   UNL     1       0.459  10.417  19.502  0.00  0.00    +0.000 C 
BRANCH  17  18
ATOM     18  C   UNL     1      -0.842  10.589  18.728  0.00  0.00    +0.000 A 
ATOM     19  C   UNL     1      -1.809  11.503  19.172  0.00  0.00    +0.000 A 
ATOM     20  C   UNL     1      -3.048  11.592  18.534  0.00  0.00    +0.000 A 
ATOM     21  C   UNL     1      -3.333  10.779  17.438  0.00  0.00    +0.000 A 
ATOM     22  C   UNL     1      -2.370   9.897  16.959  0.00  0.00    +0.000 A 
ATOM     23  C   UNL     1      -1.129   9.810  17.591  0.00  0.00    +0.000 A 
ENDBRANCH  17  18
BRANCH  17  25
ATOM     24  C   UNL     1      -0.173   9.242  21.724  0.00  0.00    +0.000 C 
ATOM     25  C   UNL     1       0.172  10.542  21.017  0.00  0.00    +0.000 C 
ENDBRANCH  17  25
ENDBRANCH   1  17
TORSDOF 6
ENDMDL
MODEL 3
REMARK VINA RESULT:      -7.3      3.798      6.858
REMARK  Name = 
REMARK  7 active torsions:
REMARK  status: ('A' for Active; 'I' for Inactive)
REMARK    1  A    between atoms: C_1  and  C_2
REMARK    2  A    between atoms: C_2  and  C_3
REMARK    3  A    between atoms: C_3  and  N_4
REMARK    4  A    between atoms: C_3  and  C_19
REMARK    5  A    between atoms: C_5  and  C_7
REMARK    6  A    between atoms: C_9  and  N_10
REMARK    7  A    between atoms: C_14  and  N_15
REMARK                            x       y       z     vdW  Elec       q    Type
REMARK                         _______ _______ _______ _____ _____    ______ ____
ROOT
ATOM      1  N   UNL     1       2.494   7.332  19.897  0.00  0.00    +0.000 N 
ATOM      2  C   UNL     1       1.851   8.164  19.012  0.00  0.00    +0.000 C 
ATOM      3  O   UNL     1       1.840   8.027  17.797  0.00  0.00    +0.000 OA
ATOM      4  H   UNL     1       2.386   7.455  20.892  0.00  0.00    +0.000 HD
ENDROOT
BRANCH   2   5
ATOM      5  C   UNL     1       1.074   9.275  19.628  0.00  0.00    +0.000 A 
ATOM      6  C   UNL     1       0.774   9.270  20.994  0.00  0.00    +0.000 A 
ATOM      7  C   UNL     1      -0.042  10.279  21.524  0.00  0.00    +0.000 A 
ATOM      8  C   UNL     1      -0.541  11.304  20.709  0.00  0.00    +0.000 A 
ATOM      9  C   UNL     1      -0.203  11.312  19.348  0.00  0.00    +0.000 A 
ATOM     10  C   UNL     1       0.611  10.308  18.804  0.00  0.00    +0.000 A 
BRANCH   7  11
ATOM     11  N   UNL     1      -0.411  10.230  22.945  0.00  0.00    +0.000 N 
ATOM     12  O   UNL     1      -1.478  10.765  23.277  0.00  0.00    +0.000 OA
ATOM     13  O   UNL     1       0.374   9.675  23.723  0.00  0.00    +0.000 OA
ENDBRANCH   7  11
BRANCH   9  14
ATOM     14  N   UNL     1      -0.747  12.361  18.473  0.00  0.00    +0.000 N 
ATOM     15  O   UNL     1      -0.089  13.402  18.352  0.00  0.00    +0.000 OA
ATOM     16  O   UNL     1      -1.836  12.145  17.925  0.00  0.00    +0.000 OA
ENDBRANCH   9  14
ENDBRANCH   2   5
BRANCH   1  17
ATOM     17  C   UNL     1       3.232   6.151  19.465  0.00  0.00    +0.000 C 
BRANCH  17  18
ATOM     18  C   UNL     1       2.304   4.943  19.468  0.00  0.00    +0.000 A 
ATOM     19  C   UNL     1       1.791   4.453  20.679  0.00  0.00    +0.000 A 
ATOM     20  C   UNL     1       1.028   3.284  20.707  0.00  0.00    +0.000 A 
ATOM     21  C   UNL     1       0.757   2.595  19.526  0.00  0.00    +0.000 A 
ATOM     22  C   UNL     1       1.222   3.090  18.311  0.00  0.00    +0.000 A 
ATOM     23  C   UNL     1       1.980   4.261  18.280  0.00  0.00    +0.000 A 
ENDBRANCH  17  18
BRANCH  17  25
ATOM     24  C   UNL     1       5.325   5.936  17.953  0.00  0.00    +0.000 C 
ATOM     25  C   UNL     1       3.857   6.312  18.060  0.00  0.00    +0.000 C 
ENDBRANCH  17  25
ENDBRANCH   1  17
TORSDOF 6
ENDMDL
MODEL 4
REMARK VINA RESULT:      -7.3      0.260      1.190
REMARK  Name = 
REMARK  7 active torsions:
REMARK  status: ('A' for Active; 'I' for Inactive)
REMARK    1  A    between atoms: C_1  and  C_2
REMARK    2  A    between atoms: C_2  and  C_3
REMARK    3  A    between atoms: C_3  and  N_4
REMARK    4  A    between atoms: C_3  and  C_19
REMARK    5  A    between atoms: C_5  and  C_7
REMARK    6  A    between atoms: C_9  and  N_10
REMARK    7  A    between atoms: C_14  and  N_15
REMARK                            x       y       z     vdW  Elec       q    Type
REMARK                         _______ _______ _______ _____ _____    ______ ____
ROOT
ATOM      1  N   UNL     1       5.650   5.625  17.429  0.00  0.00    +0.000 N 
ATOM      2  C   UNL     1       5.470   5.005  18.641  0.00  0.00    +0.000 C 
ATOM      3  O   UNL     1       6.330   4.385  19.251  0.00  0.00    +0.000 OA
ATOM      4  H   UNL     1       4.921   6.194  17.027  0.00  0.00    +0.000 HD
ENDROOT
BRANCH   2   5
ATOM      5  C   UNL     1       4.122   5.172  19.251  0.00  0.00    +0.000 A 
ATOM      6  C   UNL     1       3.521   6.433  19.329  0.00  0.00    +0.000 A 
ATOM      7  C   UNL     1       2.296   6.573  19.996  0.00  0.00    +0.000 A 
ATOM      8  C   UNL     1       1.654   5.464  20.563  0.00  0.00    +0.000 A 
ATOM      9  C   UNL     1       2.254   4.201  20.447  0.00  0.00    +0.000 A 
ATOM     10  C   UNL     1       3.481   4.047  19.784  0.00  0.00    +0.000 A 
BRANCH   7  11
ATOM     11  N   UNL     1       1.704   7.910  20.136  0.00  0.00    +0.000 N 
ATOM     12  O   UNL     1       1.693   8.637  19.133  0.00  0.00    +0.000 OA
ATOM     13  O   UNL     1       1.273   8.233  21.250  0.00  0.00    +0.000 OA
ENDBRANCH   7  11
BRANCH   9  14
ATOM     14  N   UNL     1       1.612   3.034  21.067  0.00  0.00    +0.000 N 
ATOM     15  O   UNL     1       1.880   2.798  22.253  0.00  0.00    +0.000 OA
ATOM     16  O   UNL     1       0.855   2.352  20.364  0.00  0.00    +0.000 OA
ENDBRANCH   9  14
ENDBRANCH   2   5
BRANCH   1  17
ATOM     17  C   UNL     1       6.933   5.628  16.734  0.00  0.00    +0.000 C 
BRANCH  17  18
ATOM     18  C   UNL     1       6.765   5.000  15.356  0.00  0.00    +0.000 A 
ATOM     19  C   UNL     1       7.657   5.325  14.323  0.00  0.00    +0.000 A 
ATOM     20  C   UNL     1       7.451   4.841  13.029  0.00  0.00    +0.000 A 
ATOM     21  C   UNL     1       6.360   4.018  12.752  0.00  0.00    +0.000 A 
ATOM     22  C   UNL     1       5.490   3.653  13.775  0.00  0.00    +0.000 A 
ATOM     23  C   UNL     1       5.697   4.130  15.070  0.00  0.00    +0.000 A 
ENDBRANCH  17  18
BRANCH  17  25
ATOM     24  C   UNL     1       7.834   7.769  17.883  0.00  0.00    +0.000 C 
ATOM     25  C   UNL     1       7.531   7.045  16.581  0.00  0.00    +0.000 C 
ENDBRANCH  17  25
ENDBRANCH   1  17
TORSDOF 6
ENDMDL
MODEL 5
REMARK VINA RESULT:      -7.3      0.161      3.111
REMARK  Name = 
REMARK  7 active torsions:
REMARK  status: ('A' for Active; 'I' for Inactive)
REMARK    1  A    between atoms: C_1  and  C_2
REMARK    2  A    between atoms: C_2  and  C_3
REMARK    3  A    between atoms: C_3  and  N_4
REMARK    4  A    between atoms: C_3  and  C_19
REMARK    5  A    between atoms: C_5  and  C_7
REMARK    6  A    between atoms: C_9  and  N_10
REMARK    7  A    between atoms: C_14  and  N_15
REMARK                            x       y       z     vdW  Elec       q    Type
REMARK                         _______ _______ _______ _____ _____    ______ ____
ROOT
ATOM      1  N   UNL     1       5.597   5.457  17.371  0.00  0.00    +0.000 N 
ATOM      2  C   UNL     1       5.522   4.855  18.604  0.00  0.00    +0.000 C 
ATOM      3  O   UNL     1       6.446   4.286  19.167  0.00  0.00    +0.000 OA
ATOM      4  H   UNL     1       4.819   5.985  17.007  0.00  0.00    +0.000 HD
ENDROOT
BRANCH   2   5
ATOM      5  C   UNL     1       4.211   4.979  19.298  0.00  0.00    +0.000 A 
ATOM      6  C   UNL     1       3.542   3.849  19.779  0.00  0.00    +0.000 A 
ATOM      7  C   UNL     1       2.265   3.988  20.340  0.00  0.00    +0.000 A 
ATOM      8  C   UNL     1       1.661   5.248  20.448  0.00  0.00    +0.000 A 
ATOM      9  C   UNL     1       2.359   6.376  19.992  0.00  0.00    +0.000 A 
ATOM     10  C   UNL     1       3.637   6.250  19.426  0.00  0.00    +0.000 A 
BRANCH   7  11
ATOM     11  N   UNL     1       1.540   2.789  20.778  0.00  0.00    +0.000 N 
ATOM     12  O   UNL     1       1.478   2.572  21.996  0.00  0.00    +0.000 OA
ATOM     13  O   UNL     1       1.052   2.061  19.904  0.00  0.00    +0.000 OA
ENDBRANCH   7  11
BRANCH   9  14
ATOM     14  N   UNL     1       1.724   7.699  20.065  0.00  0.00    +0.000 N 
ATOM     15  O   UNL     1       1.139   7.994  21.116  0.00  0.00    +0.000 OA
ATOM     16  O   UNL     1       1.798   8.430  19.068  0.00  0.00    +0.000 OA
ENDBRANCH   9  14
ENDBRANCH   2   5
BRANCH   1  17
ATOM     17  C   UNL     1       6.830   5.498  16.594  0.00  0.00    +0.000 C 
BRANCH  17  18
ATOM     18  C   UNL     1       6.564   4.969  15.190  0.00  0.00    +0.000 A 
ATOM     19  C   UNL     1       5.404   4.225  14.928  0.00  0.00    +0.000 A 
ATOM     20  C   UNL     1       5.201   3.644  13.674  0.00  0.00    +0.000 A 
ATOM     21  C   UNL     1       6.147   3.808  12.663  0.00  0.00    +0.000 A 
ATOM     22  C   UNL     1       7.283   4.578  12.894  0.00  0.00    +0.000 A 
ATOM     23  C   UNL     1       7.485   5.164  14.144  0.00  0.00    +0.000 A 
ENDBRANCH  17  18
BRANCH  17  25
ATOM     24  C   UNL     1       7.779   7.569  17.829  0.00  0.00    +0.000 C 
ATOM     25  C   UNL     1       7.434   6.918  16.499  0.00  0.00    +0.000 C 
ENDBRANCH  17  25
ENDBRANCH   1  17
TORSDOF 6
ENDMDL
MODEL 6
REMARK VINA RESULT:      -7.2      3.730      5.931
REMARK  Name = 
REMARK  7 active torsions:
REMARK  status: ('A' for Active; 'I' for Inactive)
REMARK    1  A    between atoms: C_1  and  C_2
REMARK    2  A    between atoms: C_2  and  C_3
REMARK    3  A    between atoms: C_3  and  N_4
REMARK    4  A    between atoms: C_3  and  C_19
REMARK    5  A    between atoms: C_5  and  C_7
REMARK    6  A    between atoms: C_9  and  N_10
REMARK    7  A    between atoms: C_14  and  N_15
REMARK                            x       y       z     vdW  Elec       q    Type
REMARK                         _______ _______ _______ _____ _____    ______ ____
ROOT
ATOM      1  N   UNL     1       2.676   6.816  18.389  0.00  0.00    +0.000 N 
ATOM      2  C   UNL     1       2.431   8.080  17.909  0.00  0.00    +0.000 C 
ATOM      3  O   UNL     1       2.861   8.530  16.856  0.00  0.00    +0.000 OA
ATOM      4  H   UNL     1       2.215   6.482  19.221  0.00  0.00    +0.000 HD
ENDROOT
BRANCH   2   5
ATOM      5  C   UNL     1       1.518   8.913  18.738  0.00  0.00    +0.000 A 
ATOM      6  C   UNL     1       1.483   8.773  20.130  0.00  0.00    +0.000 A 
ATOM      7  C   UNL     1       0.545   9.502  20.873  0.00  0.00    +0.000 A 
ATOM      8  C   UNL     1      -0.342  10.386  20.244  0.00  0.00    +0.000 A 
ATOM      9  C   UNL     1      -0.272  10.539  18.852  0.00  0.00    +0.000 A 
ATOM     10  C   UNL     1       0.662   9.815  18.095  0.00  0.00    +0.000 A 
BRANCH   7  11
ATOM     11  N   UNL     1       0.466   9.298  22.326  0.00  0.00    +0.000 N 
ATOM     12  O   UNL     1       1.516   9.407  22.975  0.00  0.00    +0.000 OA
ATOM     13  O   UNL     1      -0.637   9.012  22.807  0.00  0.00    +0.000 OA
ENDBRANCH   7  11
BRANCH   9  14
ATOM     14  N   UNL     1      -1.219  11.436  18.173  0.00  0.00    +0.000 N 
ATOM     15  O   UNL     1      -1.984  10.933  17.340  0.00  0.00    +0.000 OA
ATOM     16  O   UNL     1      -1.183  12.639  18.465  0.00  0.00    +0.000 OA
ENDBRANCH   9  14
ENDBRANCH   2   5
BRANCH   1  17
ATOM     17  C   UNL     1       3.483   5.845  17.659  0.00  0.00    +0.000 C 
BRANCH  17  18
ATOM     18  C   UNL     1       4.948   6.009  18.044  0.00  0.00    +0.000 A 
ATOM     19  C   UNL     1       5.803   6.779  17.241  0.00  0.00    +0.000 A 
ATOM     20  C   UNL     1       7.169   6.849  17.523  0.00  0.00    +0.000 A 
ATOM     21  C   UNL     1       7.697   6.162  18.615  0.00  0.00    +0.000 A 
ATOM     22  C   UNL     1       6.856   5.429  19.445  0.00  0.00    +0.000 A 
ATOM     23  C   UNL     1       5.490   5.361  19.170  0.00  0.00    +0.000 A 
ENDBRANCH  17  18
BRANCH  17  25
ATOM     24  C   UNL     1       1.738   4.220  18.675  0.00  0.00    +0.000 C 
ATOM     25  C   UNL     1       3.047   4.384  17.920  0.00  0.00    +0.000 C 
ENDBRANCH  17  25
ENDBRANCH   1  17
TORSDOF 6
ENDMDL
MODEL 7
REMARK VINA RESULT:      -7.2      4.138      7.492
REMARK  Name = 
REMARK  7 active torsions:
REMARK  status: ('A' for Active; 'I' for Inactive)
REMARK    1  A    between atoms: C_1  and  C_2
REMARK    2  A    between atoms: C_2  and  C_3
REMARK    3  A    between atoms: C_3  and  N_4
REMARK    4  A    between atoms: C_3  and  C_19
REMARK    5  A    between atoms: C_5  and  C_7
REMARK    6  A    between atoms: C_9  and  N_10
REMARK    7  A    between atoms: C_14  and  N_15
REMARK                            x       y       z     vdW  Elec       q    Type
REMARK                         _______ _______ _______ _____ _____    ______ ____
ROOT
ATOM      1  N   UNL     1       1.074   9.119  19.038  0.00  0.00    +0.000 N 
ATOM      2  C   UNL     1       2.081   8.968  18.116  0.00  0.00    +0.000 C 
ATOM      3  O   UNL     1       2.564   9.869  17.445  0.00  0.00    +0.000 OA
ATOM      4  H   UNL     1       0.786   8.348  19.620  0.00  0.00    +0.000 HD
ENDROOT
BRANCH   2   5
ATOM      5  C   UNL     1       2.637   7.592  17.997  0.00  0.00    +0.000 A 
ATOM      6  C   UNL     1       3.887   7.370  17.411  0.00  0.00    +0.000 A 
ATOM      7  C   UNL     1       4.340   6.057  17.225  0.00  0.00    +0.000 A 
ATOM      8  C   UNL     1       3.567   4.964  17.641  0.00  0.00    +0.000 A 
ATOM      9  C   UNL     1       2.330   5.205  18.258  0.00  0.00    +0.000 A 
ATOM     10  C   UNL     1       1.865   6.514  18.448  0.00  0.00    +0.000 A 
BRANCH   7  11
ATOM     11  N   UNL     1       5.621   5.829  16.545  0.00  0.00    +0.000 N 
ATOM     12  O   UNL     1       6.288   6.826  16.235  0.00  0.00    +0.000 OA
ATOM     13  O   UNL     1       5.945   4.659  16.307  0.00  0.00    +0.000 OA
ENDBRANCH   7  11
BRANCH   9  14
ATOM     14  N   UNL     1       1.493   4.069  18.667  0.00  0.00    +0.000 N 
ATOM     15  O   UNL     1       1.155   3.262  17.790  0.00  0.00    +0.000 OA
ATOM     16  O   UNL     1       1.163   3.996  19.859  0.00  0.00    +0.000 OA
ENDBRANCH   9  14
ENDBRANCH   2   5
BRANCH   1  17
ATOM     17  C   UNL     1       0.474  10.415  19.337  0.00  0.00    +0.000 C 
BRANCH  17  18
ATOM     18  C   UNL     1      -0.884  10.516  18.655  0.00  0.00    +0.000 A 
ATOM     19  C   UNL     1      -1.149   9.762  17.501  0.00  0.00    +0.000 A 
ATOM     20  C   UNL     1      -2.349   9.926  16.805  0.00  0.00    +0.000 A 
ATOM     21  C   UNL     1      -3.304  10.836  17.258  0.00  0.00    +0.000 A 
ATOM     22  C   UNL     1      -3.074  11.561  18.423  0.00  0.00    +0.000 A 
ATOM     23  C   UNL     1      -1.879  11.395  19.123  0.00  0.00    +0.000 A 
ENDBRANCH  17  18
BRANCH  17  25
ATOM     24  C   UNL     1       0.006   9.430  21.687  0.00  0.00    +0.000 C 
ATOM     25  C   UNL     1       0.305  10.665  20.853  0.00  0.00    +0.000 C 
ENDBRANCH  17  25
ENDBRANCH   1  17
TORSDOF 6
ENDMDL
MODEL 8
REMARK VINA RESULT:      -7.2      3.647      6.207
REMARK  Name = 
REMARK  7 active torsions:
REMARK  status: ('A' for Active; 'I' for Inactive)
REMARK    1  A    between atoms: C_1  and  C_2
REMARK    2  A    between atoms: C_2  and  C_3
REMARK    3  A    between atoms: C_3  and  N_4
REMARK    4  A    between atoms: C_3  and  C_19
REMARK    5  A    between atoms: C_5  and  C_7
REMARK    6  A    between atoms: C_9  and  N_10
REMARK    7  A    between atoms: C_14  and  N_15
REMARK                            x       y       z     vdW  Elec       q    Type
REMARK                         _______ _______ _______ _____ _____    ______ ____
ROOT
ATOM      1  N   UNL     1       2.460   7.026  18.688  0.00  0.00    +0.000 N 
ATOM      2  C   UNL     1       2.211   8.280  18.183  0.00  0.00    +0.000 C 
ATOM      3  O   UNL     1       2.454   8.640  17.040  0.00  0.00    +0.000 OA
ATOM      4  H   UNL     1       2.152   6.772  19.614  0.00  0.00    +0.000 HD
ENDROOT
BRANCH   2   5
ATOM      5  C   UNL     1       1.541   9.224  19.119  0.00  0.00    +0.000 A 
ATOM      6  C   UNL     1       1.173   8.820  20.406  0.00  0.00    +0.000 A 
ATOM      7  C   UNL     1       0.457   9.701  21.228  0.00  0.00    +0.000 A 
ATOM      8  C   UNL     1       0.127  10.990  20.786  0.00  0.00    +0.000 A 
ATOM      9  C   UNL     1       0.533  11.391  19.505  0.00  0.00    +0.000 A 
ATOM     10  C   UNL     1       1.248  10.518  18.671  0.00  0.00    +0.000 A 
BRANCH   7  11
ATOM     11  N   UNL     1       0.012   9.247  22.552  0.00  0.00    +0.000 N 
ATOM     12  O   UNL     1      -0.885   8.393  22.591  0.00  0.00    +0.000 OA
ATOM     13  O   UNL     1       0.547   9.757  23.544  0.00  0.00    +0.000 OA
ENDBRANCH   7  11
BRANCH   9  14
ATOM     14  N   UNL     1       0.163  12.726  19.013  0.00  0.00    +0.000 N 
ATOM     15  O   UNL     1       0.705  13.702  19.549  0.00  0.00    +0.000 OA
ATOM     16  O   UNL     1      -0.677  12.794  18.106  0.00  0.00    +0.000 OA
ENDBRANCH   9  14
ENDBRANCH   2   5
BRANCH   1  17
ATOM     17  C   UNL     1       3.036   5.957  17.880  0.00  0.00    +0.000 C 
BRANCH  17  18
ATOM     18  C   UNL     1       4.553   5.975  18.021  0.00  0.00    +0.000 A 
ATOM     19  C   UNL     1       5.166   5.332  19.107  0.00  0.00    +0.000 A 
ATOM     20  C   UNL     1       6.544   5.432  19.306  0.00  0.00    +0.000 A 
ATOM     21  C   UNL     1       7.330   6.166  18.419  0.00  0.00    +0.000 A 
ATOM     22  C   UNL     1       6.744   6.776  17.314  0.00  0.00    +0.000 A 
ATOM     23  C   UNL     1       5.368   6.672  17.109  0.00  0.00    +0.000 A 
ENDBRANCH  17  18
BRANCH  17  25
ATOM     24  C   UNL     1       2.662   3.485  17.200  0.00  0.00    +0.000 C 
ATOM     25  C   UNL     1       2.503   4.558  18.265  0.00  0.00    +0.000 C 
ENDBRANCH  17  25
ENDBRANCH   1  17
TORSDOF 6
ENDMDL
MODEL 9
REMARK VINA RESULT:      -7.2      4.039      7.785
REMARK  Name = 
REMARK  7 active torsions:
REMARK  status: ('A' for Active; 'I' for Inactive)
REMARK    1  A    between atoms: C_1  and  C_2
REMARK    2  A    between atoms: C_2  and  C_3
REMARK    3  A    between atoms: C_3  and  N_4
REMARK    4  A    between atoms: C_3  and  C_19
REMARK    5  A    between atoms: C_5  and  C_7
REMARK    6  A    between atoms: C_9  and  N_10
REMARK    7  A    between atoms: C_14  and  N_15
REMARK                            x       y       z     vdW  Elec       q    Type
REMARK                         _______ _______ _______ _____ _____    ______ ____
ROOT
ATOM      1  N   UNL     1       1.182   8.968  19.201  0.00  0.00    +0.000 N 
ATOM      2  C   UNL     1       2.115   8.899  18.195  0.00  0.00    +0.000 C 
ATOM      3  O   UNL     1       2.550   9.856  17.571  0.00  0.00    +0.000 OA
ATOM      4  H   UNL     1       0.935   8.147  19.733  0.00  0.00    +0.000 HD
ENDROOT
BRANCH   2   5
ATOM      5  C   UNL     1       2.654   7.540  17.914  0.00  0.00    +0.000 A 
ATOM      6  C   UNL     1       1.938   6.394  18.278  0.00  0.00    +0.000 A 
ATOM      7  C   UNL     1       2.515   5.131  18.089  0.00  0.00    +0.000 A 
ATOM      8  C   UNL     1       3.788   5.000  17.516  0.00  0.00    +0.000 A 
ATOM      9  C   UNL     1       4.477   6.157  17.126  0.00  0.00    +0.000 A 
ATOM     10  C   UNL     1       3.912   7.428  17.312  0.00  0.00    +0.000 A 
BRANCH   7  11
ATOM     11  N   UNL     1       1.788   3.936  18.538  0.00  0.00    +0.000 N 
ATOM     12  O   UNL     1       1.478   3.873  19.735  0.00  0.00    +0.000 OA
ATOM     13  O   UNL     1       1.549   3.060  17.697  0.00  0.00    +0.000 OA
ENDBRANCH   7  11
BRANCH   9  14
ATOM     14  N   UNL     1       5.828   6.038  16.558  0.00  0.00    +0.000 N 
ATOM     15  O   UNL     1       5.957   6.248  15.344  0.00  0.00    +0.000 OA
ATOM     16  O   UNL     1       6.748   5.719  17.322  0.00  0.00    +0.000 OA
ENDBRANCH   9  14
ENDBRANCH   2   5
BRANCH   1  17
ATOM     17  C   UNL     1       0.614  10.231  19.657  0.00  0.00    +0.000 C 
BRANCH  17  18
ATOM     18  C   UNL     1      -0.663  10.524  18.880  0.00  0.00    +0.000 A 
ATOM     19  C   UNL     1      -1.562  11.497  19.343  0.00  0.00    +0.000 A 
ATOM     20  C   UNL     1      -2.785  11.698  18.701  0.00  0.00    +0.000 A 
ATOM     21  C   UNL     1      -3.123  10.940  17.580  0.00  0.00    +0.000 A 
ATOM     22  C   UNL     1      -2.225  10.001  17.083  0.00  0.00    +0.000 A 
ATOM     23  C   UNL     1      -1.000   9.801  17.719  0.00  0.00    +0.000 A 
ENDBRANCH  17  18
BRANCH  17  25
ATOM     24  C   UNL     1      -0.197   8.923  21.742  0.00  0.00    +0.000 C 
ATOM     25  C   UNL     1       0.304  10.240  21.172  0.00  0.00    +0.000 C 
ENDBRANCH  17  25
ENDBRANCH   1  17
TORSDOF 6
ENDMDL
