MODEL 1
REMARK VINA RESULT:      -7.6      0.000      0.000
REMARK  Name = 
REMARK  4 active torsions:
REMARK  status: ('A' for Active; 'I' for Inactive)
REMARK    1  A    between atoms: C_3  and  C_4
REMARK    2  A    between atoms: C_4  and  C_5
REMARK    3  A    between atoms: C_5  and  C_6
REMARK    4  A    between atoms: C_8  and  C_9
REMARK                            x       y       z     vdW  Elec       q    Type
REMARK                         _______ _______ _______ _____ _____    ______ ____
ROOT
ATOM      1  C   UNL     1       7.337   7.102  17.604  0.00  0.00    +0.000 A 
ATOM      2  N   UNL     1       6.222   6.586  18.061  0.00  0.00    +0.000 NA
ATOM      3  C   UNL     1       5.796   5.830  17.000  0.00  0.00    +0.000 A 
ATOM      4  N   UNL     1       6.602   5.860  15.928  0.00  0.00    +0.000 NA
ATOM      5  O   UNL     1       7.636   6.712  16.332  0.00  0.00    +0.000 OA
ENDROOT
BRANCH   3   6
ATOM      6  C   UNL     1       4.536   5.044  17.039  0.00  0.00    +0.000 C 
ATOM      7  C   UNL     1       4.716   3.689  17.752  0.00  0.00    +0.000 C 
ATOM      8  C   UNL     1       3.513   3.596  18.675  0.00  0.00    +0.000 C 
ATOM      9  C   UNL     1       3.708   2.742  19.922  0.00  0.00    +0.000 C 
ATOM     10  C   UNL     1       2.475   2.880  20.820  0.00  0.00    +0.000 C 
ATOM     11  C   UNL     1       2.174   4.354  21.114  0.00  0.00    +0.000 C 
ATOM     12  C   UNL     1       2.100   5.194  19.833  0.00  0.00    +0.000 C 
ATOM     13  N   UNL     1       3.317   4.991  19.063  0.00  0.00    +0.000 NA
ATOM     14  C   UNL     1       3.426   5.764  17.829  0.00  0.00    +0.000 C 
ENDBRANCH   3   6
BRANCH   1  15
ATOM     15  C   UNL     1       8.269   8.033  18.276  0.00  0.00    +0.000 C 
BRANCH  15  16
ATOM     16  C   UNL     1       8.127   9.445  17.714  0.00  0.00    +0.000 C 
BRANCH  16  19
ATOM     17  C   UNL     1      10.030  12.354  18.654  0.00  0.00    +0.000 A 
ATOM     18  N   UNL     1       9.305  11.618  17.840  0.00  0.00    +0.000 NA
ATOM     19  C   UNL     1       8.955  10.432  18.468  0.00  0.00    +0.000 A 
ATOM     20  C   UNL     1       9.430  10.298  19.759  0.00  0.00    +0.000 A 
ATOM     21  S   UNL     1      10.334  11.686  20.204  0.00  0.00    +0.000 S 
ENDBRANCH  16  19
ENDBRANCH  15  16
ENDBRANCH   1  15
TORSDOF 4
ENDMDL
MODEL 2
REMARK VINA RESULT:      -7.5      0.993      1.190
REMARK  Name = 
REMARK  4 active torsions:
REMARK  status: ('A' for Active; 'I' for Inactive)
REMARK    1  A    between atoms: C_3  and  C_4
REMARK    2  A    between atoms: C_4  and  C_5
REMARK    3  A    between atoms: C_5  and  C_6
REMARK    4  A    between atoms: C_8  and  C_9
REMARK                            x       y       z     vdW  Elec       q    Type
REMARK                         _______ _______ _______ _____ _____    ______ ____
ROOT
ATOM      1  C   UNL     1       7.370   7.249  17.469  0.00  0.00    +0.000 A 
ATOM      2  N   UNL     1       6.124   6.936  17.731  0.00  0.00    +0.000 NA
ATOM      3  C   UNL     1       5.806   6.112  16.683  0.00  0.00    +0.000 A 
ATOM      4  N   UNL     1       6.800   5.908  15.806  0.00  0.00    +0.000 NA
ATOM      5  O   UNL     1       7.849   6.670  16.332  0.00  0.00    +0.000 OA
ENDROOT
BRANCH   3   6
ATOM      6  C   UNL     1       4.460   5.498  16.535  0.00  0.00    +0.000 C 
ATOM      7  C   UNL     1       4.515   3.959  16.569  0.00  0.00    +0.000 C 
ATOM      8  C   UNL     1       3.381   3.571  17.502  0.00  0.00    +0.000 C 
ATOM      9  C   UNL     1       3.554   2.242  18.227  0.00  0.00    +0.000 C 
ATOM     10  C   UNL     1       2.418   2.074  19.240  0.00  0.00    +0.000 C 
ATOM     11  C   UNL     1       2.333   3.287  20.174  0.00  0.00    +0.000 C 
ATOM     12  C   UNL     1       2.275   4.609  19.397  0.00  0.00    +0.000 C 
ATOM     13  N   UNL     1       3.396   4.664  18.472  0.00  0.00    +0.000 NA
ATOM     14  C   UNL     1       3.514   5.889  17.686  0.00  0.00    +0.000 C 
ENDBRANCH   3   6
BRANCH   1  15
ATOM     15  C   UNL     1       8.280   8.135  18.227  0.00  0.00    +0.000 C 
BRANCH  15  16
ATOM     16  C   UNL     1       8.155   9.579  17.749  0.00  0.00    +0.000 C 
BRANCH  16  19
ATOM     17  C   UNL     1      10.144  11.255  20.241  0.00  0.00    +0.000 A 
ATOM     18  N   UNL     1       9.250  10.388  19.817  0.00  0.00    +0.000 NA
ATOM     19  C   UNL     1       9.125  10.481  18.439  0.00  0.00    +0.000 A 
ATOM     20  C   UNL     1       9.939  11.429  17.846  0.00  0.00    +0.000 A 
ATOM     21  S   UNL     1      10.886  12.223  19.036  0.00  0.00    +0.000 S 
ENDBRANCH  16  19
ENDBRANCH  15  16
ENDBRANCH   1  15
TORSDOF 4
ENDMDL
MODEL 3
REMARK VINA RESULT:      -7.5      1.199      1.656
REMARK  Name = 
REMARK  4 active torsions:
REMARK  status: ('A' for Active; 'I' for Inactive)
REMARK    1  A    between atoms: C_3  and  C_4
REMARK    2  A    between atoms: C_4  and  C_5
REMARK    3  A    between atoms: C_5  and  C_6
REMARK    4  A    between atoms: C_8  and  C_9
REMARK                            x       y       z     vdW  Elec       q    Type
REMARK                         _______ _______ _______ _____ _____    ______ ____
ROOT
ATOM      1  C   UNL     1       7.596   7.660  17.486  0.00  0.00    +0.000 A 
ATOM      2  N   UNL     1       6.975   6.855  18.313  0.00  0.00    +0.000 NA
ATOM      3  C   UNL     1       6.826   5.721  17.558  0.00  0.00    +0.000 A 
ATOM      4  N   UNL     1       7.332   5.800  16.318  0.00  0.00    +0.000 NA
ATOM      5  O   UNL     1       7.849   7.099  16.269  0.00  0.00    +0.000 OA
ENDROOT
BRANCH   3   6
ATOM      6  C   UNL     1       6.151   4.503  18.077  0.00  0.00    +0.000 C 
ATOM      7  C   UNL     1       5.367   4.780  19.374  0.00  0.00    +0.000 C 
ATOM      8  C   UNL     1       4.032   4.089  19.152  0.00  0.00    +0.000 C 
ATOM      9  C   UNL     1       2.854   4.679  19.918  0.00  0.00    +0.000 C 
ATOM     10  C   UNL     1       1.566   3.983  19.467  0.00  0.00    +0.000 C 
ATOM     11  C   UNL     1       1.415   4.048  17.943  0.00  0.00    +0.000 C 
ATOM     12  C   UNL     1       2.671   3.549  17.217  0.00  0.00    +0.000 C 
ATOM     13  N   UNL     1       3.827   4.276  17.718  0.00  0.00    +0.000 NA
ATOM     14  C   UNL     1       5.104   3.952  17.089  0.00  0.00    +0.000 C 
ENDBRANCH   3   6
BRANCH   1  15
ATOM     15  C   UNL     1       8.028   9.057  17.705  0.00  0.00    +0.000 C 
BRANCH  15  16
ATOM     16  C   UNL     1       8.871   9.172  18.973  0.00  0.00    +0.000 C 
BRANCH  16  19
ATOM     17  C   UNL     1       9.790  12.629  18.559  0.00  0.00    +0.000 A 
ATOM     18  N   UNL     1       9.379  11.449  18.148  0.00  0.00    +0.000 NA
ATOM     19  C   UNL     1       9.316  10.576  19.222  0.00  0.00    +0.000 A 
ATOM     20  C   UNL     1       9.686  11.123  20.437  0.00  0.00    +0.000 A 
ATOM     21  S   UNL     1      10.121  12.770  20.236  0.00  0.00    +0.000 S 
ENDBRANCH  16  19
ENDBRANCH  15  16
ENDBRANCH   1  15
TORSDOF 4
ENDMDL
MODEL 4
REMARK VINA RESULT:      -7.3      1.394      1.757
REMARK  Name = 
REMARK  4 active torsions:
REMARK  status: ('A' for Active; 'I' for Inactive)
REMARK    1  A    between atoms: C_3  and  C_4
REMARK    2  A    between atoms: C_4  and  C_5
REMARK    3  A    between atoms: C_5  and  C_6
REMARK    4  A    between atoms: C_8  and  C_9
REMARK                            x       y       z     vdW  Elec       q    Type
REMARK                         _______ _______ _______ _____ _____    ______ ____
ROOT
ATOM      1  C   UNL     1       7.846   7.467  18.041  0.00  0.00    +0.000 A 
ATOM      2  N   UNL     1       7.475   6.353  18.625  0.00  0.00    +0.000 NA
ATOM      3  C   UNL     1       6.771   5.725  17.630  0.00  0.00    +0.000 A 
ATOM      4  N   UNL     1       6.706   6.402  16.474  0.00  0.00    +0.000 NA
ATOM      5  O   UNL     1       7.426   7.570  16.748  0.00  0.00    +0.000 OA
ENDROOT
BRANCH   3   6
ATOM      6  C   UNL     1       6.131   4.399  17.826  0.00  0.00    +0.000 C 
ATOM      7  C   UNL     1       5.494   4.259  19.222  0.00  0.00    +0.000 C 
ATOM      8  C   UNL     1       4.130   3.652  18.946  0.00  0.00    +0.000 C 
ATOM      9  C   UNL     1       3.052   3.967  19.976  0.00  0.00    +0.000 C 
ATOM     10  C   UNL     1       1.710   3.424  19.476  0.00  0.00    +0.000 C 
ATOM     11  C   UNL     1       1.399   3.945  18.068  0.00  0.00    +0.000 C 
ATOM     12  C   UNL     1       2.561   3.706  17.095  0.00  0.00    +0.000 C 
ATOM     13  N   UNL     1       3.778   4.262  17.666  0.00  0.00    +0.000 NA
ATOM     14  C   UNL     1       4.975   4.160  16.836  0.00  0.00    +0.000 C 
ENDBRANCH   3   6
BRANCH   1  15
ATOM     15  C   UNL     1       8.628   8.589  18.604  0.00  0.00    +0.000 C 
BRANCH  15  16
ATOM     16  C   UNL     1       8.321   9.890  17.866  0.00  0.00    +0.000 C 
BRANCH  16  19
ATOM     17  C   UNL     1      10.691  11.895  19.691  0.00  0.00    +0.000 A 
ATOM     18  N   UNL     1      10.032  10.792  19.410  0.00  0.00    +0.000 NA
ATOM     19  C   UNL     1       9.170  11.019  18.348  0.00  0.00    +0.000 A 
ATOM     20  C   UNL     1       9.197  12.307  17.846  0.00  0.00    +0.000 A 
ATOM     21  S   UNL     1      10.328  13.259  18.716  0.00  0.00    +0.000 S 
ENDBRANCH  16  19
ENDBRANCH  15  16
ENDBRANCH   1  15
TORSDOF 4
ENDMDL
MODEL 5
REMARK VINA RESULT:      -7.3      1.366      1.661
REMARK  Name = 
REMARK  4 active torsions:
REMARK  status: ('A' for Active; 'I' for Inactive)
REMARK    1  A    between atoms: C_3  and  C_4
REMARK    2  A    between atoms: C_4  and  C_5
REMARK    3  A    between atoms: C_5  and  C_6
REMARK    4  A    between atoms: C_8  and  C_9
REMARK                            x       y       z     vdW  Elec       q    Type
REMARK                         _______ _______ _______ _____ _____    ______ ____
ROOT
ATOM      1  C   UNL     1       7.650   7.983  17.772  0.00  0.00    +0.000 A 
ATOM      2  N   UNL     1       6.674   7.396  17.123  0.00  0.00    +0.000 NA
ATOM      3  C   UNL     1       6.693   6.131  17.652  0.00  0.00    +0.000 A 
ATOM      4  N   UNL     1       7.628   5.929  18.592  0.00  0.00    +0.000 NA
ATOM      5  O   UNL     1       8.270   7.170  18.674  0.00  0.00    +0.000 OA
ENDROOT
BRANCH   3   6
ATOM      6  C   UNL     1       5.751   5.071  17.210  0.00  0.00    +0.000 C 
ATOM      7  C   UNL     1       5.670   3.907  18.216  0.00  0.00    +0.000 C 
ATOM      8  C   UNL     1       4.181   3.640  18.352  0.00  0.00    +0.000 C 
ATOM      9  C   UNL     1       3.744   3.029  19.678  0.00  0.00    +0.000 C 
ATOM     10  C   UNL     1       2.214   2.973  19.722  0.00  0.00    +0.000 C 
ATOM     11  C   UNL     1       1.608   4.353  19.441  0.00  0.00    +0.000 C 
ATOM     12  C   UNL     1       2.165   4.977  18.155  0.00  0.00    +0.000 C 
ATOM     13  N   UNL     1       3.618   4.982  18.222  0.00  0.00    +0.000 NA
ATOM     14  C   UNL     1       4.306   5.592  17.088  0.00  0.00    +0.000 C 
ENDBRANCH   3   6
BRANCH   1  15
ATOM     15  C   UNL     1       8.147   9.369  17.637  0.00  0.00    +0.000 C 
BRANCH  15  16
ATOM     16  C   UNL     1       8.987   9.765  18.849  0.00  0.00    +0.000 C 
BRANCH  16  19
ATOM     17  C   UNL     1      11.320  12.505  19.002  0.00  0.00    +0.000 A 
ATOM     18  N   UNL     1      10.876  11.301  19.294  0.00  0.00    +0.000 NA
ATOM     19  C   UNL     1       9.669  11.079  18.651  0.00  0.00    +0.000 A 
ATOM     20  C   UNL     1       9.222  12.135  17.877  0.00  0.00    +0.000 A 
ATOM     21  S   UNL     1      10.336  13.436  17.951  0.00  0.00    +0.000 S 
ENDBRANCH  16  19
ENDBRANCH  15  16
ENDBRANCH   1  15
TORSDOF 4
ENDMDL
MODEL 6
REMARK VINA RESULT:      -7.3      1.214      1.397
REMARK  Name = 
REMARK  4 active torsions:
REMARK  status: ('A' for Active; 'I' for Inactive)
REMARK    1  A    between atoms: C_3  and  C_4
REMARK    2  A    between atoms: C_4  and  C_5
REMARK    3  A    between atoms: C_5  and  C_6
REMARK    4  A    between atoms: C_8  and  C_9
REMARK                            x       y       z     vdW  Elec       q    Type
REMARK                         _______ _______ _______ _____ _____    ______ ____
ROOT
ATOM      1  C   UNL     1       7.036   6.606  17.791  0.00  0.00    +0.000 A 
ATOM      2  N   UNL     1       6.546   5.530  18.359  0.00  0.00    +0.000 NA
ATOM      3  C   UNL     1       5.661   5.081  17.414  0.00  0.00    +0.000 A 
ATOM      4  N   UNL     1       5.597   5.828  16.303  0.00  0.00    +0.000 NA
ATOM      5  O   UNL     1       6.519   6.851  16.554  0.00  0.00    +0.000 OA
ENDROOT
BRANCH   3   6
ATOM      6  C   UNL     1       4.836   3.861  17.614  0.00  0.00    +0.000 C 
ATOM      7  C   UNL     1       4.913   3.337  19.061  0.00  0.00    +0.000 C 
ATOM      8  C   UNL     1       3.468   3.040  19.423  0.00  0.00    +0.000 C 
ATOM      9  C   UNL     1       3.134   3.121  20.907  0.00  0.00    +0.000 C 
ATOM     10  C   UNL     1       1.622   2.958  21.089  0.00  0.00    +0.000 C 
ATOM     11  C   UNL     1       0.855   3.964  20.222  0.00  0.00    +0.000 C 
ATOM     12  C   UNL     1       1.307   3.924  18.756  0.00  0.00    +0.000 C 
ATOM     13  N   UNL     1       2.751   4.090  18.702  0.00  0.00    +0.000 NA
ATOM     14  C   UNL     1       3.339   4.125  17.366  0.00  0.00    +0.000 C 
ENDBRANCH   3   6
BRANCH   1  15
ATOM     15  C   UNL     1       8.038   7.555  18.321  0.00  0.00    +0.000 C 
BRANCH  15  16
ATOM     16  C   UNL     1       7.974   8.885  17.573  0.00  0.00    +0.000 C 
BRANCH  16  19
ATOM     17  C   UNL     1       9.707  10.786  20.094  0.00  0.00    +0.000 A 
ATOM     18  N   UNL     1       9.155   9.705  19.588  0.00  0.00    +0.000 NA
ATOM     19  C   UNL     1       8.649   9.983  18.328  0.00  0.00    +0.000 A 
ATOM     20  C   UNL     1       8.833  11.287  17.905  0.00  0.00    +0.000 A 
ATOM     21  S   UNL     1       9.660  12.188  19.107  0.00  0.00    +0.000 S 
ENDBRANCH  16  19
ENDBRANCH  15  16
ENDBRANCH   1  15
TORSDOF 4
ENDMDL
MODEL 7
REMARK VINA RESULT:      -7.3      1.190      1.312
REMARK  Name = 
REMARK  4 active torsions:
REMARK  status: ('A' for Active; 'I' for Inactive)
REMARK    1  A    between atoms: C_3  and  C_4
REMARK    2  A    between atoms: C_4  and  C_5
REMARK    3  A    between atoms: C_5  and  C_6
REMARK    4  A    between atoms: C_8  and  C_9
REMARK                            x       y       z     vdW  Elec       q    Type
REMARK                         _______ _______ _______ _____ _____    ______ ____
ROOT
ATOM      1  C   UNL     1       7.361   6.906  18.050  0.00  0.00    +0.000 A 
ATOM      2  N   UNL     1       6.200   7.036  17.455  0.00  0.00    +0.000 NA
ATOM      3  C   UNL     1       5.644   5.795  17.629  0.00  0.00    +0.000 A 
ATOM      4  N   UNL     1       6.410   4.926  18.305  0.00  0.00    +0.000 NA
ATOM      5  O   UNL     1       7.560   5.670  18.588  0.00  0.00    +0.000 OA
ENDROOT
BRANCH   3   6
ATOM      6  C   UNL     1       4.299   5.446  17.103  0.00  0.00    +0.000 C 
ATOM      7  C   UNL     1       4.131   3.929  16.893  0.00  0.00    +0.000 C 
ATOM      8  C   UNL     1       2.768   3.623  17.490  0.00  0.00    +0.000 C 
ATOM      9  C   UNL     1       2.583   2.201  18.006  0.00  0.00    +0.000 C 
ATOM     10  C   UNL     1       1.229   2.100  18.716  0.00  0.00    +0.000 C 
ATOM     11  C   UNL     1       1.098   3.178  19.798  0.00  0.00    +0.000 C 
ATOM     12  C   UNL     1       1.405   4.580  19.256  0.00  0.00    +0.000 C 
ATOM     13  N   UNL     1       2.708   4.561  18.609  0.00  0.00    +0.000 NA
ATOM     14  C   UNL     1       3.173   5.840  18.079  0.00  0.00    +0.000 C 
ENDBRANCH   3   6
BRANCH   1  15
ATOM     15  C   UNL     1       8.443   7.903  18.191  0.00  0.00    +0.000 C 
BRANCH  15  16
ATOM     16  C   UNL     1       7.956   9.294  17.792  0.00  0.00    +0.000 C 
BRANCH  16  19
ATOM     17  C   UNL     1       9.567  12.427  18.541  0.00  0.00    +0.000 A 
ATOM     18  N   UNL     1       8.823  11.612  17.824  0.00  0.00    +0.000 NA
ATOM     19  C   UNL     1       8.756  10.374  18.444  0.00  0.00    +0.000 A 
ATOM     20  C   UNL     1       9.460  10.280  19.630  0.00  0.00    +0.000 A 
ATOM     21  S   UNL     1      10.224  11.775  19.984  0.00  0.00    +0.000 S 
ENDBRANCH  16  19
ENDBRANCH  15  16
ENDBRANCH   1  15
TORSDOF 4
ENDMDL
MODEL 8
REMARK VINA RESULT:      -7.2      5.616      7.620
REMARK  Name = 
REMARK  4 active torsions:
REMARK  status: ('A' for Active; 'I' for Inactive)
REMARK    1  A    between atoms: C_3  and  C_4
REMARK    2  A    between atoms: C_4  and  C_5
REMARK    3  A    between atoms: C_5  and  C_6
REMARK    4  A    between atoms: C_8  and  C_9
REMARK                            x       y       z     vdW  Elec       q    Type
REMARK                         _______ _______ _______ _____ _____    ______ ____
ROOT
ATOM      1  C   UNL     1       1.188   9.547  18.570  0.00  0.00    +0.000 A 
ATOM      2  N   UNL     1       1.423   8.654  19.500  0.00  0.00    +0.000 NA
ATOM      3  C   UNL     1       2.332   7.830  18.888  0.00  0.00    +0.000 A 
ATOM      4  N   UNL     1       2.660   8.186  17.637  0.00  0.00    +0.000 NA
ATOM      5  O   UNL     1       1.894   9.337  17.423  0.00  0.00    +0.000 OA
ENDROOT
BRANCH   3   6
ATOM      6  C   UNL     1       2.901   6.635  19.562  0.00  0.00    +0.000 C 
ATOM      7  C   UNL     1       1.813   5.756  20.209  0.00  0.00    +0.000 C 
ATOM      8  C   UNL     1       2.188   4.343  19.798  0.00  0.00    +0.000 C 
ATOM      9  C   UNL     1       1.032   3.353  19.724  0.00  0.00    +0.000 C 
ATOM     10  C   UNL     1       1.543   2.030  19.146  0.00  0.00    +0.000 C 
ATOM     11  C   UNL     1       2.255   2.258  17.807  0.00  0.00    +0.000 C 
ATOM     12  C   UNL     1       3.334   3.344  17.905  0.00  0.00    +0.000 C 
ATOM     13  N   UNL     1       2.741   4.551  18.461  0.00  0.00    +0.000 NA
ATOM     14  C   UNL     1       3.630   5.703  18.575  0.00  0.00    +0.000 C 
ENDBRANCH   3   6
BRANCH   1  15
ATOM     15  C   UNL     1       0.271  10.706  18.613  0.00  0.00    +0.000 C 
BRANCH  15  16
ATOM     16  C   UNL     1      -1.143  10.267  18.988  0.00  0.00    +0.000 C 
BRANCH  16  19
ATOM     17  C   UNL     1      -3.942  11.385  17.016  0.00  0.00    +0.000 A 
ATOM     18  N   UNL     1      -3.207  11.308  18.105  0.00  0.00    +0.000 NA
ATOM     19  C   UNL     1      -2.111  10.492  17.874  0.00  0.00    +0.000 A 
ATOM     20  C   UNL     1      -2.042   9.962  16.598  0.00  0.00    +0.000 A 
ATOM     21  S   UNL     1      -3.376  10.498  15.662  0.00  0.00    +0.000 S 
ENDBRANCH  16  19
ENDBRANCH  15  16
ENDBRANCH   1  15
TORSDOF 4
ENDMDL
MODEL 9
REMARK VINA RESULT:      -7.2      1.705      2.000
REMARK  Name = 
REMARK  4 active torsions:
REMARK  status: ('A' for Active; 'I' for Inactive)
REMARK    1  A    between atoms: C_3  and  C_4
REMARK    2  A    between atoms: C_4  and  C_5
REMARK    3  A    between atoms: C_5  and  C_6
REMARK    4  A    between atoms: C_8  and  C_9
REMARK                            x       y       z     vdW  Elec       q    Type
REMARK                         _______ _______ _______ _____ _____    ______ ____
ROOT
ATOM      1  C   UNL     1       8.095   8.120  18.189  0.00  0.00    +0.000 A 
ATOM      2  N   UNL     1       7.113   8.048  17.323  0.00  0.00    +0.000 NA
ATOM      3  C   UNL     1       6.740   6.732  17.417  0.00  0.00    +0.000 A 
ATOM      4  N   UNL     1       7.444   6.009  18.300  0.00  0.00    +0.000 NA
ATOM      5  O   UNL     1       8.352   6.939  18.819  0.00  0.00    +0.000 OA
ENDROOT
BRANCH   3   6
ATOM      6  C   UNL     1       5.642   6.158  16.597  0.00  0.00    +0.000 C 
ATOM      7  C   UNL     1       5.621   4.618  16.647  0.00  0.00    +0.000 C 
ATOM      8  C   UNL     1       4.157   4.276  16.864  0.00  0.00    +0.000 C 
ATOM      9  C   UNL     1       3.891   2.952  17.570  0.00  0.00    +0.000 C 
ATOM     10  C   UNL     1       2.391   2.831  17.855  0.00  0.00    +0.000 C 
ATOM     11  C   UNL     1       1.879   4.058  18.619  0.00  0.00    +0.000 C 
ATOM     12  C   UNL     1       2.270   5.371  17.928  0.00  0.00    +0.000 C 
ATOM     13  N   UNL     1       3.708   5.381  17.710  0.00  0.00    +0.000 NA
ATOM     14  C   UNL     1       4.252   6.591  17.101  0.00  0.00    +0.000 C 
ENDBRANCH   3   6
BRANCH   1  15
ATOM     15  C   UNL     1       8.933   9.286  18.541  0.00  0.00    +0.000 C 
BRANCH  15  16
ATOM     16  C   UNL     1       8.414  10.552  17.864  0.00  0.00    +0.000 C 
BRANCH  16  19
ATOM     17  C   UNL     1       9.849  13.796  18.488  0.00  0.00    +0.000 A 
ATOM     18  N   UNL     1       8.869  12.921  18.420  0.00  0.00    +0.000 NA
ATOM     19  C   UNL     1       9.366  11.694  18.009  0.00  0.00    +0.000 A 
ATOM     20  C   UNL     1      10.728  11.670  17.772  0.00  0.00    +0.000 A 
ATOM     21  S   UNL     1      11.408  13.216  18.072  0.00  0.00    +0.000 S 
ENDBRANCH  16  19
ENDBRANCH  15  16
ENDBRANCH   1  15
TORSDOF 4
ENDMDL
