MODEL 1
REMARK VINA RESULT:      -8.6      0.000      0.000
REMARK  Name = 
REMARK  5 active torsions:
REMARK  status: ('A' for Active; 'I' for Inactive)
REMARK    1  A    between atoms: C_1  and  C_2
REMARK    2  A    between atoms: C_4  and  C_5
REMARK    3  A    between atoms: C_5  and  C_6
REMARK    4  A    between atoms: C_10  and  C_11
REMARK    5  A    between atoms: N_21  and  C_22
REMARK                            x       y       z     vdW  Elec       q    Type
REMARK                         _______ _______ _______ _____ _____    ______ ____
ROOT
ATOM      1  C   UNL     1       3.211   5.067  19.083  0.00  0.00    +0.000 C 
ATOM      2  N   UNL     1       3.124   4.676  20.531  0.00  0.00    +0.000 NA
ATOM      3  C   UNL     1       2.495   3.542  20.553  0.00  0.00    +0.000 C 
ATOM      4  N   UNL     1       2.283   2.884  21.716  0.00  0.00    +0.000 N 
ATOM      5  N   UNL     1       2.051   3.072  19.375  0.00  0.00    +0.000 N 
ATOM      6  C   UNL     1       1.472   1.787  19.066  0.00  0.00    +0.000 C 
ATOM      7  C   UNL     1       2.342   3.991  18.406  0.00  0.00    +0.000 C 
ATOM      8  O   UNL     1       1.997   3.915  17.233  0.00  0.00    +0.000 OA
ATOM      9  H   UNL     1       2.436   3.472  22.530  0.00  0.00    +0.000 HD
ATOM     10  H   UNL     1       1.428   2.347  21.784  0.00  0.00    +0.000 HD
ENDROOT
BRANCH   1  14
ATOM     11  C   UNL     1       0.934   9.580  20.251  0.00  0.00    +0.000 C 
ATOM     12  C   UNL     1       1.670   8.522  19.502  0.00  0.00    +0.000 A 
ATOM     13  C   UNL     1       2.007   7.247  19.908  0.00  0.00    +0.000 A 
ATOM     14  C   UNL     1       2.728   6.493  18.906  0.00  0.00    +0.000 A 
ATOM     15  C   UNL     1       2.900   7.276  17.776  0.00  0.00    +0.000 A 
ATOM     16  S   UNL     1       2.211   8.831  17.913  0.00  0.00    +0.000 S 
ENDBRANCH   1  14
BRANCH   1  17
ATOM     17  C   UNL     1       4.656   5.026  18.562  0.00  0.00    +0.000 A 
ATOM     18  C   UNL     1       5.742   5.395  19.371  0.00  0.00    +0.000 A 
ATOM     19  C   UNL     1       7.019   5.528  18.831  0.00  0.00    +0.000 A 
ATOM     20  C   UNL     1       7.237   5.290  17.474  0.00  0.00    +0.000 A 
ATOM     21  C   UNL     1       6.194   4.871  16.631  0.00  0.00    +0.000 A 
ATOM     22  C   UNL     1       4.920   4.711  17.213  0.00  0.00    +0.000 A 
BRANCH  21  23
ATOM     23  C   UNL     1       6.400   4.670  15.184  0.00  0.00    +0.000 A 
ATOM     24  C   UNL     1       5.663   3.787  14.409  0.00  0.00    +0.000 A 
ATOM     25  N   UNL     1       5.860   3.560  13.090  0.00  0.00    +0.000 NA
ATOM     26  C   UNL     1       6.846   4.266  12.520  0.00  0.00    +0.000 A 
ATOM     27  N   UNL     1       7.631   5.153  13.141  0.00  0.00    +0.000 NA
ATOM     28  C   UNL     1       7.385   5.327  14.460  0.00  0.00    +0.000 A 
ENDBRANCH  21  23
ENDBRANCH   1  17
TORSDOF 3
ENDMDL
MODEL 2
REMARK VINA RESULT:      -8.4      2.772      6.997
REMARK  Name = 
REMARK  5 active torsions:
REMARK  status: ('A' for Active; 'I' for Inactive)
REMARK    1  A    between atoms: C_1  and  C_2
REMARK    2  A    between atoms: C_4  and  C_5
REMARK    3  A    between atoms: C_5  and  C_6
REMARK    4  A    between atoms: C_10  and  C_11
REMARK    5  A    between atoms: N_21  and  C_22
REMARK                            x       y       z     vdW  Elec       q    Type
REMARK                         _______ _______ _______ _____ _____    ______ ____
ROOT
ATOM      1  C   UNL     1       3.832   5.345  18.757  0.00  0.00    +0.000 C 
ATOM      2  N   UNL     1       4.953   5.462  19.750  0.00  0.00    +0.000 NA
ATOM      3  C   UNL     1       6.047   5.348  19.063  0.00  0.00    +0.000 C 
ATOM      4  N   UNL     1       7.259   5.452  19.656  0.00  0.00    +0.000 N 
ATOM      5  N   UNL     1       5.914   5.102  17.748  0.00  0.00    +0.000 N 
ATOM      6  C   UNL     1       6.923   5.086  16.716  0.00  0.00    +0.000 C 
ATOM      7  C   UNL     1       4.583   4.969  17.466  0.00  0.00    +0.000 C 
ATOM      8  O   UNL     1       4.118   4.654  16.377  0.00  0.00    +0.000 OA
ATOM      9  H   UNL     1       7.205   5.375  20.667  0.00  0.00    +0.000 HD
ATOM     10  H   UNL     1       8.004   4.891  19.265  0.00  0.00    +0.000 HD
ENDROOT
BRANCH   1  14
ATOM     11  C   UNL     1       1.264   2.269  22.054  0.00  0.00    +0.000 C 
ATOM     12  C   UNL     1       1.698   2.941  20.795  0.00  0.00    +0.000 A 
ATOM     13  C   UNL     1       2.681   3.891  20.614  0.00  0.00    +0.000 A 
ATOM     14  C   UNL     1       2.824   4.320  19.240  0.00  0.00    +0.000 A 
ATOM     15  C   UNL     1       1.905   3.648  18.450  0.00  0.00    +0.000 A 
ATOM     16  S   UNL     1       0.934   2.547  19.320  0.00  0.00    +0.000 S 
ENDBRANCH   1  14
BRANCH   1  17
ATOM     17  C   UNL     1       3.067   6.667  18.593  0.00  0.00    +0.000 A 
ATOM     18  C   UNL     1       3.255   7.494  17.474  0.00  0.00    +0.000 A 
ATOM     19  C   UNL     1       2.697   8.768  17.429  0.00  0.00    +0.000 A 
ATOM     20  C   UNL     1       1.935   9.240  18.498  0.00  0.00    +0.000 A 
ATOM     21  C   UNL     1       1.677   8.435  19.620  0.00  0.00    +0.000 A 
ATOM     22  C   UNL     1       2.226   7.138  19.622  0.00  0.00    +0.000 A 
BRANCH  21  23
ATOM     23  C   UNL     1       0.920   8.944  20.780  0.00  0.00    +0.000 A 
ATOM     24  C   UNL     1       0.036   8.179  21.528  0.00  0.00    +0.000 A 
ATOM     25  N   UNL     1      -0.695   8.634  22.571  0.00  0.00    +0.000 NA
ATOM     26  C   UNL     1      -0.520   9.926  22.883  0.00  0.00    +0.000 A 
ATOM     27  N   UNL     1       0.300  10.777  22.256  0.00  0.00    +0.000 NA
ATOM     28  C   UNL     1       0.996  10.259  21.219  0.00  0.00    +0.000 A 
ENDBRANCH  21  23
ENDBRANCH   1  17
TORSDOF 3
ENDMDL
MODEL 3
REMARK VINA RESULT:      -8.1      2.657      6.913
REMARK  Name = 
REMARK  5 active torsions:
REMARK  status: ('A' for Active; 'I' for Inactive)
REMARK    1  A    between atoms: C_1  and  C_2
REMARK    2  A    between atoms: C_4  and  C_5
REMARK    3  A    between atoms: C_5  and  C_6
REMARK    4  A    between atoms: C_10  and  C_11
REMARK    5  A    between atoms: N_21  and  C_22
REMARK                            x       y       z     vdW  Elec       q    Type
REMARK                         _______ _______ _______ _____ _____    ______ ____
ROOT
ATOM      1  C   UNL     1       3.032   4.604  18.619  0.00  0.00    +0.000 C 
ATOM      2  N   UNL     1       2.052   3.698  17.930  0.00  0.00    +0.000 NA
ATOM      3  C   UNL     1       1.562   2.936  18.857  0.00  0.00    +0.000 C 
ATOM      4  N   UNL     1       0.605   2.021  18.577  0.00  0.00    +0.000 N 
ATOM      5  N   UNL     1       2.065   3.087  20.094  0.00  0.00    +0.000 N 
ATOM      6  C   UNL     1       1.617   2.508  21.338  0.00  0.00    +0.000 C 
ATOM      7  C   UNL     1       3.065   4.019  20.043  0.00  0.00    +0.000 C 
ATOM      8  O   UNL     1       3.791   4.329  20.980  0.00  0.00    +0.000 OA
ATOM      9  H   UNL     1       0.517   1.842  17.581  0.00  0.00    +0.000 HD
ATOM     10  H   UNL     1       0.619   1.169  19.121  0.00  0.00    +0.000 HD
ENDROOT
BRANCH   1  14
ATOM     11  C   UNL     1       6.372   4.005  14.694  0.00  0.00    +0.000 C 
ATOM     12  C   UNL     1       5.824   4.288  16.052  0.00  0.00    +0.000 A 
ATOM     13  C   UNL     1       4.515   4.242  16.485  0.00  0.00    +0.000 A 
ATOM     14  C   UNL     1       4.357   4.583  17.882  0.00  0.00    +0.000 A 
ATOM     15  C   UNL     1       5.595   4.881  18.427  0.00  0.00    +0.000 A 
ATOM     16  S   UNL     1       6.882   4.738  17.314  0.00  0.00    +0.000 S 
ENDBRANCH   1  14
BRANCH   1  17
ATOM     17  C   UNL     1       2.558   6.065  18.627  0.00  0.00    +0.000 A 
ATOM     18  C   UNL     1       2.869   6.947  17.581  0.00  0.00    +0.000 A 
ATOM     19  C   UNL     1       2.592   8.307  17.689  0.00  0.00    +0.000 A 
ATOM     20  C   UNL     1       1.992   8.813  18.843  0.00  0.00    +0.000 A 
ATOM     21  C   UNL     1       1.615   7.966  19.899  0.00  0.00    +0.000 A 
ATOM     22  C   UNL     1       1.878   6.589  19.745  0.00  0.00    +0.000 A 
BRANCH  21  23
ATOM     23  C   UNL     1       1.031   8.495  21.145  0.00  0.00    +0.000 A 
ATOM     24  C   UNL     1      -0.331   8.566  21.397  0.00  0.00    +0.000 A 
ATOM     25  N   UNL     1      -0.889   9.082  22.517  0.00  0.00    +0.000 NA
ATOM     26  C   UNL     1      -0.028   9.542  23.435  0.00  0.00    +0.000 A 
ATOM     27  N   UNL     1       1.305   9.532  23.331  0.00  0.00    +0.000 NA
ATOM     28  C   UNL     1       1.796   9.009  22.184  0.00  0.00    +0.000 A 
ENDBRANCH  21  23
ENDBRANCH   1  17
TORSDOF 3
ENDMDL
MODEL 4
REMARK VINA RESULT:      -8.1      0.817      1.420
REMARK  Name = 
REMARK  5 active torsions:
REMARK  status: ('A' for Active; 'I' for Inactive)
REMARK    1  A    between atoms: C_1  and  C_2
REMARK    2  A    between atoms: C_4  and  C_5
REMARK    3  A    between atoms: C_5  and  C_6
REMARK    4  A    between atoms: C_10  and  C_11
REMARK    5  A    between atoms: N_21  and  C_22
REMARK                            x       y       z     vdW  Elec       q    Type
REMARK                         _______ _______ _______ _____ _____    ______ ____
ROOT
ATOM      1  C   UNL     1       2.843   4.939  19.268  0.00  0.00    +0.000 C 
ATOM      2  N   UNL     1       2.694   4.303  20.621  0.00  0.00    +0.000 NA
ATOM      3  C   UNL     1       2.030   3.207  20.424  0.00  0.00    +0.000 C 
ATOM      4  N   UNL     1       1.757   2.362  21.446  0.00  0.00    +0.000 N 
ATOM      5  N   UNL     1       1.611   2.969  19.169  0.00  0.00    +0.000 N 
ATOM      6  C   UNL     1       1.002   1.780  18.621  0.00  0.00    +0.000 C 
ATOM      7  C   UNL     1       1.963   4.033  18.387  0.00  0.00    +0.000 C 
ATOM      8  O   UNL     1       1.656   4.178  17.210  0.00  0.00    +0.000 OA
ATOM      9  H   UNL     1       1.901   2.791  22.355  0.00  0.00    +0.000 HD
ATOM     10  H   UNL     1       0.884   1.854  21.393  0.00  0.00    +0.000 HD
ENDROOT
BRANCH   1  14
ATOM     11  C   UNL     1       2.003   9.810  17.690  0.00  0.00    +0.000 C 
ATOM     12  C   UNL     1       2.059   8.594  18.552  0.00  0.00    +0.000 A 
ATOM     13  C   UNL     1       2.510   7.329  18.237  0.00  0.00    +0.000 A 
ATOM     14  C   UNL     1       2.411   6.391  19.334  0.00  0.00    +0.000 A 
ATOM     15  C   UNL     1       1.868   7.029  20.438  0.00  0.00    +0.000 A 
ATOM     16  S   UNL     1       1.513   8.677  20.167  0.00  0.00    +0.000 S 
ENDBRANCH   1  14
BRANCH   1  17
ATOM     17  C   UNL     1       4.302   4.938  18.789  0.00  0.00    +0.000 A 
ATOM     18  C   UNL     1       5.354   5.341  19.626  0.00  0.00    +0.000 A 
ATOM     19  C   UNL     1       6.641   5.509  19.123  0.00  0.00    +0.000 A 
ATOM     20  C   UNL     1       6.904   5.271  17.774  0.00  0.00    +0.000 A 
ATOM     21  C   UNL     1       5.898   4.820  16.903  0.00  0.00    +0.000 A 
ATOM     22  C   UNL     1       4.613   4.626  17.450  0.00  0.00    +0.000 A 
BRANCH  21  23
ATOM     23  C   UNL     1       6.152   4.619  15.464  0.00  0.00    +0.000 A 
ATOM     24  C   UNL     1       7.210   5.191  14.774  0.00  0.00    +0.000 A 
ATOM     25  N   UNL     1       7.440   5.050  13.448  0.00  0.00    +0.000 NA
ATOM     26  C   UNL     1       6.562   4.286  12.785  0.00  0.00    +0.000 A 
ATOM     27  N   UNL     1       5.502   3.669  13.319  0.00  0.00    +0.000 NA
ATOM     28  C   UNL     1       5.327   3.857  14.647  0.00  0.00    +0.000 A 
ENDBRANCH  21  23
ENDBRANCH   1  17
TORSDOF 3
ENDMDL
MODEL 5
REMARK VINA RESULT:      -8.0      2.894      6.981
REMARK  Name = 
REMARK  5 active torsions:
REMARK  status: ('A' for Active; 'I' for Inactive)
REMARK    1  A    between atoms: C_1  and  C_2
REMARK    2  A    between atoms: C_4  and  C_5
REMARK    3  A    between atoms: C_5  and  C_6
REMARK    4  A    between atoms: C_10  and  C_11
REMARK    5  A    between atoms: N_21  and  C_22
REMARK                            x       y       z     vdW  Elec       q    Type
REMARK                         _______ _______ _______ _____ _____    ______ ____
ROOT
ATOM      1  C   UNL     1       6.325   5.825  17.323  0.00  0.00    +0.000 C 
ATOM      2  N   UNL     1       7.026   4.924  18.299  0.00  0.00    +0.000 NA
ATOM      3  C   UNL     1       7.880   5.674  18.922  0.00  0.00    +0.000 C 
ATOM      4  N   UNL     1       8.656   5.176  19.912  0.00  0.00    +0.000 N 
ATOM      5  N   UNL     1       7.969   6.954  18.521  0.00  0.00    +0.000 N 
ATOM      6  C   UNL     1       8.696   8.049  19.117  0.00  0.00    +0.000 C 
ATOM      7  C   UNL     1       7.128   7.132  17.458  0.00  0.00    +0.000 C 
ATOM      8  O   UNL     1       7.031   8.160  16.797  0.00  0.00    +0.000 OA
ATOM      9  H   UNL     1       8.668   4.161  19.924  0.00  0.00    +0.000 HD
ATOM     10  H   UNL     1       9.582   5.573  20.007  0.00  0.00    +0.000 HD
ENDROOT
BRANCH   1  14
ATOM     11  C   UNL     1       7.787   4.963  12.420  0.00  0.00    +0.000 C 
ATOM     12  C   UNL     1       7.054   4.859  13.714  0.00  0.00    +0.000 A 
ATOM     13  C   UNL     1       7.247   5.573  14.879  0.00  0.00    +0.000 A 
ATOM     14  C   UNL     1       6.341   5.198  15.943  0.00  0.00    +0.000 A 
ATOM     15  C   UNL     1       5.501   4.189  15.498  0.00  0.00    +0.000 A 
ATOM     16  S   UNL     1       5.783   3.732  13.878  0.00  0.00    +0.000 S 
ENDBRANCH   1  14
BRANCH   1  17
ATOM     17  C   UNL     1       4.848   6.036  17.691  0.00  0.00    +0.000 A 
ATOM     18  C   UNL     1       4.163   7.212  17.346  0.00  0.00    +0.000 A 
ATOM     19  C   UNL     1       2.888   7.465  17.844  0.00  0.00    +0.000 A 
ATOM     20  C   UNL     1       2.269   6.545  18.691  0.00  0.00    +0.000 A 
ATOM     21  C   UNL     1       2.891   5.331  19.027  0.00  0.00    +0.000 A 
ATOM     22  C   UNL     1       4.167   5.088  18.481  0.00  0.00    +0.000 A 
BRANCH  21  23
ATOM     23  C   UNL     1       2.270   4.377  19.965  0.00  0.00    +0.000 A 
ATOM     24  C   UNL     1       2.662   4.219  21.287  0.00  0.00    +0.000 A 
ATOM     25  N   UNL     1       2.132   3.324  22.153  0.00  0.00    +0.000 NA
ATOM     26  C   UNL     1       1.149   2.556  21.664  0.00  0.00    +0.000 A 
ATOM     27  N   UNL     1       0.666   2.603  20.418  0.00  0.00    +0.000 NA
ATOM     28  C   UNL     1       1.245   3.513  19.603  0.00  0.00    +0.000 A 
ENDBRANCH  21  23
ENDBRANCH   1  17
TORSDOF 3
ENDMDL
MODEL 6
REMARK VINA RESULT:      -7.9      2.947      6.912
REMARK  Name = 
REMARK  5 active torsions:
REMARK  status: ('A' for Active; 'I' for Inactive)
REMARK    1  A    between atoms: C_1  and  C_2
REMARK    2  A    between atoms: C_4  and  C_5
REMARK    3  A    between atoms: C_5  and  C_6
REMARK    4  A    between atoms: C_10  and  C_11
REMARK    5  A    between atoms: N_21  and  C_22
REMARK                            x       y       z     vdW  Elec       q    Type
REMARK                         _______ _______ _______ _____ _____    ______ ____
ROOT
ATOM      1  C   UNL     1       3.022   4.900  18.934  0.00  0.00    +0.000 C 
ATOM      2  N   UNL     1       2.271   3.915  18.085  0.00  0.00    +0.000 NA
ATOM      3  C   UNL     1       1.611   3.166  18.913  0.00  0.00    +0.000 C 
ATOM      4  N   UNL     1       0.787   2.190  18.468  0.00  0.00    +0.000 N 
ATOM      5  N   UNL     1       1.805   3.395  20.224  0.00  0.00    +0.000 N 
ATOM      6  C   UNL     1       1.105   2.844  21.359  0.00  0.00    +0.000 C 
ATOM      7  C   UNL     1       2.748   4.377  20.356  0.00  0.00    +0.000 C 
ATOM      8  O   UNL     1       3.221   4.764  21.417  0.00  0.00    +0.000 OA
ATOM      9  H   UNL     1       0.942   1.966  17.490  0.00  0.00    +0.000 HD
ATOM     10  H   UNL     1       0.711   1.362  19.045  0.00  0.00    +0.000 HD
ENDROOT
BRANCH   1  14
ATOM     11  C   UNL     1       8.105   5.907  19.205  0.00  0.00    +0.000 C 
ATOM     12  C   UNL     1       6.787   5.417  18.710  0.00  0.00    +0.000 A 
ATOM     13  C   UNL     1       5.545   5.520  19.303  0.00  0.00    +0.000 A 
ATOM     14  C   UNL     1       4.482   4.922  18.525  0.00  0.00    +0.000 A 
ATOM     15  C   UNL     1       5.009   4.383  17.362  0.00  0.00    +0.000 A 
ATOM     16  S   UNL     1       6.695   4.603  17.212  0.00  0.00    +0.000 S 
ENDBRANCH   1  14
BRANCH   1  17
ATOM     17  C   UNL     1       2.497   6.333  18.756  0.00  0.00    +0.000 A 
ATOM     18  C   UNL     1       2.782   7.085  17.606  0.00  0.00    +0.000 A 
ATOM     19  C   UNL     1       2.456   8.437  17.539  0.00  0.00    +0.000 A 
ATOM     20  C   UNL     1       1.832   9.063  18.619  0.00  0.00    +0.000 A 
ATOM     21  C   UNL     1       1.480   8.344  19.774  0.00  0.00    +0.000 A 
ATOM     22  C   UNL     1       1.792   6.970  19.797  0.00  0.00    +0.000 A 
BRANCH  21  23
ATOM     23  C   UNL     1       0.871   9.007  20.942  0.00  0.00    +0.000 A 
ATOM     24  C   UNL     1       1.358   8.904  22.237  0.00  0.00    +0.000 A 
ATOM     25  N   UNL     1       0.794   9.472  23.328  0.00  0.00    +0.000 NA
ATOM     26  C   UNL     1      -0.314  10.190  23.100  0.00  0.00    +0.000 A 
ATOM     27  N   UNL     1      -0.891  10.380  21.909  0.00  0.00    +0.000 NA
ATOM     28  C   UNL     1      -0.280   9.779  20.862  0.00  0.00    +0.000 A 
ENDBRANCH  21  23
ENDBRANCH   1  17
TORSDOF 3
ENDMDL
MODEL 7
REMARK VINA RESULT:      -7.9      2.824      7.075
REMARK  Name = 
REMARK  5 active torsions:
REMARK  status: ('A' for Active; 'I' for Inactive)
REMARK    1  A    between atoms: C_1  and  C_2
REMARK    2  A    between atoms: C_4  and  C_5
REMARK    3  A    between atoms: C_5  and  C_6
REMARK    4  A    between atoms: C_10  and  C_11
REMARK    5  A    between atoms: N_21  and  C_22
REMARK                            x       y       z     vdW  Elec       q    Type
REMARK                         _______ _______ _______ _____ _____    ______ ____
ROOT
ATOM      1  C   UNL     1       4.169   5.242  18.753  0.00  0.00    +0.000 C 
ATOM      2  N   UNL     1       5.324   5.427  19.696  0.00  0.00    +0.000 NA
ATOM      3  C   UNL     1       6.387   5.431  18.954  0.00  0.00    +0.000 C 
ATOM      4  N   UNL     1       7.614   5.623  19.493  0.00  0.00    +0.000 N 
ATOM      5  N   UNL     1       6.211   5.214  17.639  0.00  0.00    +0.000 N 
ATOM      6  C   UNL     1       7.165   5.319  16.562  0.00  0.00    +0.000 C 
ATOM      7  C   UNL     1       4.884   4.973  17.416  0.00  0.00    +0.000 C 
ATOM      8  O   UNL     1       4.395   4.651  16.340  0.00  0.00    +0.000 OA
ATOM      9  H   UNL     1       7.618   5.511  20.502  0.00  0.00    +0.000 HD
ATOM     10  H   UNL     1       8.385   5.142  19.049  0.00  0.00    +0.000 HD
ENDROOT
BRANCH   1  14
ATOM     11  C   UNL     1       0.273   1.815  18.777  0.00  0.00    +0.000 C 
ATOM     12  C   UNL     1       1.480   2.585  19.195  0.00  0.00    +0.000 A 
ATOM     13  C   UNL     1       2.132   3.603  18.531  0.00  0.00    +0.000 A 
ATOM     14  C   UNL     1       3.279   4.118  19.247  0.00  0.00    +0.000 A 
ATOM     15  C   UNL     1       3.425   3.428  20.439  0.00  0.00    +0.000 A 
ATOM     16  S   UNL     1       2.231   2.234  20.687  0.00  0.00    +0.000 S 
ENDBRANCH   1  14
BRANCH   1  17
ATOM     17  C   UNL     1       3.285   6.496  18.671  0.00  0.00    +0.000 A 
ATOM     18  C   UNL     1       3.329   7.358  17.564  0.00  0.00    +0.000 A 
ATOM     19  C   UNL     1       2.663   8.580  17.586  0.00  0.00    +0.000 A 
ATOM     20  C   UNL     1       1.934   8.963  18.713  0.00  0.00    +0.000 A 
ATOM     21  C   UNL     1       1.818   8.116  19.828  0.00  0.00    +0.000 A 
ATOM     22  C   UNL     1       2.475   6.871  19.762  0.00  0.00    +0.000 A 
BRANCH  21  23
ATOM     23  C   UNL     1       1.096   8.533  21.045  0.00  0.00    +0.000 A 
ATOM     24  C   UNL     1      -0.245   8.271  21.283  0.00  0.00    +0.000 A 
ATOM     25  N   UNL     1      -0.935   8.676  22.374  0.00  0.00    +0.000 NA
ATOM     26  C   UNL     1      -0.233   9.373  23.278  0.00  0.00    +0.000 A 
ATOM     27  N   UNL     1       1.062   9.693  23.185  0.00  0.00    +0.000 NA
ATOM     28  C   UNL     1       1.689   9.263  22.066  0.00  0.00    +0.000 A 
ENDBRANCH  21  23
ENDBRANCH   1  17
TORSDOF 3
ENDMDL
MODEL 8
REMARK VINA RESULT:      -7.8      1.490      1.686
REMARK  Name = 
REMARK  5 active torsions:
REMARK  status: ('A' for Active; 'I' for Inactive)
REMARK    1  A    between atoms: C_1  and  C_2
REMARK    2  A    between atoms: C_4  and  C_5
REMARK    3  A    between atoms: C_5  and  C_6
REMARK    4  A    between atoms: C_10  and  C_11
REMARK    5  A    between atoms: N_21  and  C_22
REMARK                            x       y       z     vdW  Elec       q    Type
REMARK                         _______ _______ _______ _____ _____    ______ ____
ROOT
ATOM      1  C   UNL     1       4.236   4.651  18.670  0.00  0.00    +0.000 C 
ATOM      2  N   UNL     1       4.684   4.040  19.967  0.00  0.00    +0.000 NA
ATOM      3  C   UNL     1       4.407   2.777  19.876  0.00  0.00    +0.000 C 
ATOM      4  N   UNL     1       4.726   1.918  20.872  0.00  0.00    +0.000 N 
ATOM      5  N   UNL     1       3.772   2.374  18.761  0.00  0.00    +0.000 N 
ATOM      6  C   UNL     1       3.482   1.034  18.311  0.00  0.00    +0.000 C 
ATOM      7  C   UNL     1       3.515   3.473  17.990  0.00  0.00    +0.000 C 
ATOM      8  O   UNL     1       2.872   3.470  16.948  0.00  0.00    +0.000 OA
ATOM      9  H   UNL     1       4.954   2.395  21.739  0.00  0.00    +0.000 HD
ATOM     10  H   UNL     1       4.099   1.137  21.015  0.00  0.00    +0.000 HD
ENDROOT
BRANCH   1  14
ATOM     11  C   UNL     1       1.827   9.169  17.823  0.00  0.00    +0.000 C 
ATOM     12  C   UNL     1       2.303   7.926  18.497  0.00  0.00    +0.000 A 
ATOM     13  C   UNL     1       3.118   6.929  18.001  0.00  0.00    +0.000 A 
ATOM     14  C   UNL     1       3.369   5.865  18.948  0.00  0.00    +0.000 A 
ATOM     15  C   UNL     1       2.701   6.133  20.131  0.00  0.00    +0.000 A 
ATOM     16  S   UNL     1       1.830   7.601  20.105  0.00  0.00    +0.000 S 
ENDBRANCH   1  14
BRANCH   1  17
ATOM     17  C   UNL     1       5.421   5.144  17.826  0.00  0.00    +0.000 A 
ATOM     18  C   UNL     1       6.261   6.179  18.266  0.00  0.00    +0.000 A 
ATOM     19  C   UNL     1       7.212   6.735  17.415  0.00  0.00    +0.000 A 
ATOM     20  C   UNL     1       7.346   6.265  16.109  0.00  0.00    +0.000 A 
ATOM     21  C   UNL     1       6.564   5.199  15.634  0.00  0.00    +0.000 A 
ATOM     22  C   UNL     1       5.635   4.633  16.529  0.00  0.00    +0.000 A 
BRANCH  21  23
ATOM     23  C   UNL     1       6.659   4.730  14.238  0.00  0.00    +0.000 A 
ATOM     24  C   UNL     1       5.844   3.751  13.689  0.00  0.00    +0.000 A 
ATOM     25  N   UNL     1       5.939   3.280  12.424  0.00  0.00    +0.000 NA
ATOM     26  C   UNL     1       6.899   3.832  11.670  0.00  0.00    +0.000 A 
ATOM     27  N   UNL     1       7.750   4.786  12.063  0.00  0.00    +0.000 NA
ATOM     28  C   UNL     1       7.606   5.206  13.341  0.00  0.00    +0.000 A 
ENDBRANCH  21  23
ENDBRANCH   1  17
TORSDOF 3
ENDMDL
MODEL 9
REMARK VINA RESULT:      -7.8      2.978      6.880
REMARK  Name = 
REMARK  5 active torsions:
REMARK  status: ('A' for Active; 'I' for Inactive)
REMARK    1  A    between atoms: C_1  and  C_2
REMARK    2  A    between atoms: C_4  and  C_5
REMARK    3  A    between atoms: C_5  and  C_6
REMARK    4  A    between atoms: C_10  and  C_11
REMARK    5  A    between atoms: N_21  and  C_22
REMARK                            x       y       z     vdW  Elec       q    Type
REMARK                         _______ _______ _______ _____ _____    ______ ____
ROOT
ATOM      1  C   UNL     1       6.425   5.853  17.255  0.00  0.00    +0.000 C 
ATOM      2  N   UNL     1       7.103   4.934  18.230  0.00  0.00    +0.000 NA
ATOM      3  C   UNL     1       7.926   5.676  18.903  0.00  0.00    +0.000 C 
ATOM      4  N   UNL     1       8.674   5.160  19.905  0.00  0.00    +0.000 N 
ATOM      5  N   UNL     1       8.012   6.968  18.539  0.00  0.00    +0.000 N 
ATOM      6  C   UNL     1       8.705   8.054  19.190  0.00  0.00    +0.000 C 
ATOM      7  C   UNL     1       7.206   7.165  17.453  0.00  0.00    +0.000 C 
ATOM      8  O   UNL     1       7.119   8.209  16.818  0.00  0.00    +0.000 OA
ATOM      9  H   UNL     1       8.698   4.145  19.890  0.00  0.00    +0.000 HD
ATOM     10  H   UNL     1       9.591   5.565  20.042  0.00  0.00    +0.000 HD
ENDROOT
BRANCH   1  14
ATOM     11  C   UNL     1       4.847   3.447  12.938  0.00  0.00    +0.000 C 
ATOM     12  C   UNL     1       5.713   4.156  13.924  0.00  0.00    +0.000 A 
ATOM     13  C   UNL     1       5.392   4.617  15.184  0.00  0.00    +0.000 A 
ATOM     14  C   UNL     1       6.496   5.264  15.860  0.00  0.00    +0.000 A 
ATOM     15  C   UNL     1       7.610   5.253  15.037  0.00  0.00    +0.000 A 
ATOM     16  S   UNL     1       7.341   4.488  13.535  0.00  0.00    +0.000 S 
ENDBRANCH   1  14
BRANCH   1  17
ATOM     17  C   UNL     1       4.934   6.037  17.578  0.00  0.00    +0.000 A 
ATOM     18  C   UNL     1       4.232   7.189  17.189  0.00  0.00    +0.000 A 
ATOM     19  C   UNL     1       2.938   7.422  17.646  0.00  0.00    +0.000 A 
ATOM     20  C   UNL     1       2.316   6.506  18.495  0.00  0.00    +0.000 A 
ATOM     21  C   UNL     1       2.957   5.314  18.875  0.00  0.00    +0.000 A 
ATOM     22  C   UNL     1       4.253   5.090  18.369  0.00  0.00    +0.000 A 
BRANCH  21  23
ATOM     23  C   UNL     1       2.332   4.365  19.816  0.00  0.00    +0.000 A 
ATOM     24  C   UNL     1       2.654   4.280  21.162  0.00  0.00    +0.000 A 
ATOM     25  N   UNL     1       2.121   3.393  22.034  0.00  0.00    +0.000 NA
ATOM     26  C   UNL     1       1.209   2.555  21.524  0.00  0.00    +0.000 A 
ATOM     27  N   UNL     1       0.797   2.527  20.252  0.00  0.00    +0.000 NA
ATOM     28  C   UNL     1       1.375   3.435  19.433  0.00  0.00    +0.000 A 
ENDBRANCH  21  23
ENDBRANCH   1  17
TORSDOF 3
ENDMDL
