MODEL 1
REMARK VINA RESULT:      -7.7      0.000      0.000
REMARK  Name = 
REMARK  8 active torsions:
REMARK  status: ('A' for Active; 'I' for Inactive)
REMARK    1  A    between atoms: C_1  and  O_2
REMARK    2  A    between atoms: O_2  and  C_3
REMARK    3  A    between atoms: C_6  and  C_7
REMARK    4  A    between atoms: C_7  and  C_8
REMARK    5  A    between atoms: C_13  and  C_14
REMARK    6  A    between atoms: C_14  and  C_15
REMARK    7  A    between atoms: C_23  and  O_24
REMARK    8  A    between atoms: O_24  and  C_25
REMARK                            x       y       z     vdW  Elec       q    Type
REMARK                         _______ _______ _______ _____ _____    ______ ____
ROOT
ATOM      1  C   UNL     1       4.766   5.610  16.427  0.00  0.00    +0.000 C 
ATOM      2  C   UNL     1       5.403   5.459  15.055  0.00  0.00    +0.000 C 
ATOM      3  O   UNL     1       6.752   5.050  15.262  0.00  0.00    +0.000 OA
ATOM      4  C   UNL     1       6.934   4.639  16.542  0.00  0.00    +0.000 C 
ATOM      5  O   UNL     1       7.982   4.172  16.963  0.00  0.00    +0.000 OA
ATOM      6  C   UNL     1       5.676   4.798  17.350  0.00  0.00    +0.000 C 
ENDROOT
BRANCH   1   7
ATOM      7  C   UNL     1       4.706   7.086  16.884  0.00  0.00    +0.000 C 
BRANCH   7  11
ATOM      8  C   UNL     1       1.605   8.002  19.787  0.00  0.00    +0.000 A 
ATOM      9  C   UNL     1       2.453   6.895  19.960  0.00  0.00    +0.000 A 
ATOM     10  C   UNL     1       3.456   6.597  19.029  0.00  0.00    +0.000 A 
ATOM     11  C   UNL     1       3.624   7.390  17.896  0.00  0.00    +0.000 A 
ATOM     12  C   UNL     1       2.729   8.447  17.690  0.00  0.00    +0.000 A 
ATOM     13  C   UNL     1       1.717   8.756  18.613  0.00  0.00    +0.000 A 
BRANCH   8  15
ATOM     14  C   UNL     1       1.174   8.854  21.952  0.00  0.00    +0.000 C 
ATOM     15  O   UNL     1       0.665   8.341  20.723  0.00  0.00    +0.000 OA
ENDBRANCH   8  15
BRANCH  13  16
ATOM     16  O   UNL     1       0.972   9.828  18.189  0.00  0.00    +0.000 OA
ATOM     17  C   UNL     1       1.237  11.117  18.712  0.00  0.00    +0.000 C 
ENDBRANCH  13  16
ENDBRANCH   7  11
ENDBRANCH   1   7
BRANCH   6  18
ATOM     18  C   UNL     1       5.159   3.400  17.708  0.00  0.00    +0.000 C 
BRANCH  18  19
ATOM     19  C   UNL     1       3.748   3.351  18.253  0.00  0.00    +0.000 A 
ATOM     20  C   UNL     1       2.641   3.607  17.434  0.00  0.00    +0.000 A 
ATOM     21  C   UNL     1       1.349   3.642  17.968  0.00  0.00    +0.000 A 
ATOM     22  C   UNL     1       1.151   3.433  19.334  0.00  0.00    +0.000 A 
ATOM     23  C   UNL     1       2.245   3.178  20.154  0.00  0.00    +0.000 A 
ATOM     24 CL   UNL     1       2.012   2.938  21.842  0.00  0.00    +0.000 Cl
ATOM     25  C   UNL     1       3.534   3.141  19.625  0.00  0.00    +0.000 A 
ENDBRANCH  18  19
ENDBRANCH   6  18
TORSDOF 6
ENDMDL
MODEL 2
REMARK VINA RESULT:      -7.5      2.699      6.046
REMARK  Name = 
REMARK  8 active torsions:
REMARK  status: ('A' for Active; 'I' for Inactive)
REMARK    1  A    between atoms: C_1  and  O_2
REMARK    2  A    between atoms: O_2  and  C_3
REMARK    3  A    between atoms: C_6  and  C_7
REMARK    4  A    between atoms: C_7  and  C_8
REMARK    5  A    between atoms: C_13  and  C_14
REMARK    6  A    between atoms: C_14  and  C_15
REMARK    7  A    between atoms: C_23  and  O_24
REMARK    8  A    between atoms: O_24  and  C_25
REMARK                            x       y       z     vdW  Elec       q    Type
REMARK                         _______ _______ _______ _____ _____    ______ ____
ROOT
ATOM      1  C   UNL     1       2.248   4.167  18.804  0.00  0.00    +0.000 C 
ATOM      2  C   UNL     1       0.969   3.349  18.875  0.00  0.00    +0.000 C 
ATOM      3  O   UNL     1       0.998   2.630  20.105  0.00  0.00    +0.000 OA
ATOM      4  C   UNL     1       1.961   3.126  20.923  0.00  0.00    +0.000 C 
ATOM      5  O   UNL     1       2.150   2.734  22.064  0.00  0.00    +0.000 OA
ATOM      6  C   UNL     1       2.727   4.234  20.254  0.00  0.00    +0.000 C 
ENDROOT
BRANCH   1   7
ATOM      7  C   UNL     1       3.318   3.501  17.907  0.00  0.00    +0.000 C 
BRANCH   7  11
ATOM      8  C   UNL     1       6.688   6.064  16.930  0.00  0.00    +0.000 A 
ATOM      9  C   UNL     1       5.501   6.112  16.180  0.00  0.00    +0.000 A 
ATOM     10  C   UNL     1       4.411   5.291  16.491  0.00  0.00    +0.000 A 
ATOM     11  C   UNL     1       4.488   4.391  17.552  0.00  0.00    +0.000 A 
ATOM     12  C   UNL     1       5.698   4.293  18.250  0.00  0.00    +0.000 A 
ATOM     13  C   UNL     1       6.800   5.108  17.947  0.00  0.00    +0.000 A 
BRANCH   8  15
ATOM     14  C   UNL     1       7.757   8.113  17.436  0.00  0.00    +0.000 C 
ATOM     15  O   UNL     1       7.735   6.908  16.675  0.00  0.00    +0.000 OA
ENDBRANCH   8  15
BRANCH  13  16
ATOM     16  O   UNL     1       7.865   4.824  18.765  0.00  0.00    +0.000 OA
ATOM     17  C   UNL     1       8.023   5.532  19.981  0.00  0.00    +0.000 C 
ENDBRANCH  13  16
ENDBRANCH   7  11
ENDBRANCH   1   7
BRANCH   6  18
ATOM     18  C   UNL     1       2.408   5.543  20.985  0.00  0.00    +0.000 C 
BRANCH  18  19
ATOM     19  C   UNL     1       2.123   6.730  20.092  0.00  0.00    +0.000 A 
ATOM     20  C   UNL     1       2.737   6.865  18.840  0.00  0.00    +0.000 A 
ATOM     21  C   UNL     1       2.529   8.009  18.062  0.00  0.00    +0.000 A 
ATOM     22  C   UNL     1       1.713   9.038  18.535  0.00  0.00    +0.000 A 
ATOM     23  C   UNL     1       1.101   8.912  19.777  0.00  0.00    +0.000 A 
ATOM     24 CL   UNL     1       0.109  10.185  20.376  0.00  0.00    +0.000 Cl
ATOM     25  C   UNL     1       1.303   7.773  20.555  0.00  0.00    +0.000 A 
ENDBRANCH  18  19
ENDBRANCH   6  18
TORSDOF 6
ENDMDL
MODEL 3
REMARK VINA RESULT:      -7.4      2.733      6.011
REMARK  Name = 
REMARK  8 active torsions:
REMARK  status: ('A' for Active; 'I' for Inactive)
REMARK    1  A    between atoms: C_1  and  O_2
REMARK    2  A    between atoms: O_2  and  C_3
REMARK    3  A    between atoms: C_6  and  C_7
REMARK    4  A    between atoms: C_7  and  C_8
REMARK    5  A    between atoms: C_13  and  C_14
REMARK    6  A    between atoms: C_14  and  C_15
REMARK    7  A    between atoms: C_23  and  O_24
REMARK    8  A    between atoms: O_24  and  C_25
REMARK                            x       y       z     vdW  Elec       q    Type
REMARK                         _______ _______ _______ _____ _____    ______ ____
ROOT
ATOM      1  C   UNL     1       2.160   3.903  18.813  0.00  0.00    +0.000 C 
ATOM      2  C   UNL     1       1.018   2.918  19.007  0.00  0.00    +0.000 C 
ATOM      3  O   UNL     1       1.102   2.437  20.346  0.00  0.00    +0.000 OA
ATOM      4  C   UNL     1       1.940   3.213  21.079  0.00  0.00    +0.000 C 
ATOM      5  O   UNL     1       2.135   3.061  22.274  0.00  0.00    +0.000 OA
ATOM      6  C   UNL     1       2.557   4.295  20.236  0.00  0.00    +0.000 C 
ENDROOT
BRANCH   1   7
ATOM      7  C   UNL     1       3.358   3.269  18.069  0.00  0.00    +0.000 C 
BRANCH   7  11
ATOM      8  C   UNL     1       6.834   5.840  17.633  0.00  0.00    +0.000 A 
ATOM      9  C   UNL     1       6.397   5.423  18.902  0.00  0.00    +0.000 A 
ATOM     10  C   UNL     1       5.279   4.592  19.048  0.00  0.00    +0.000 A 
ATOM     11  C   UNL     1       4.564   4.172  17.930  0.00  0.00    +0.000 A 
ATOM     12  C   UNL     1       4.958   4.650  16.674  0.00  0.00    +0.000 A 
ATOM     13  C   UNL     1       6.074   5.485  16.512  0.00  0.00    +0.000 A 
BRANCH   8  15
ATOM     14  C   UNL     1       7.779   8.008  17.578  0.00  0.00    +0.000 C 
ATOM     15  O   UNL     1       7.963   6.598  17.474  0.00  0.00    +0.000 OA
ENDBRANCH   8  15
BRANCH  13  16
ATOM     16  O   UNL     1       6.255   5.819  15.193  0.00  0.00    +0.000 OA
ATOM     17  C   UNL     1       6.744   4.849  14.285  0.00  0.00    +0.000 C 
ENDBRANCH  13  16
ENDBRANCH   7  11
ENDBRANCH   1   7
BRANCH   6  18
ATOM     18  C   UNL     1       2.009   5.644  20.716  0.00  0.00    +0.000 C 
BRANCH  18  19
ATOM     19  C   UNL     1       2.072   6.766  19.704  0.00  0.00    +0.000 A 
ATOM     20  C   UNL     1       2.840   6.654  18.537  0.00  0.00    +0.000 A 
ATOM     21  C   UNL     1       2.957   7.730  17.652  0.00  0.00    +0.000 A 
ATOM     22  C   UNL     1       2.316   8.938  17.930  0.00  0.00    +0.000 A 
ATOM     23  C   UNL     1       1.552   9.058  19.086  0.00  0.00    +0.000 A 
ATOM     24 CL   UNL     1       0.774  10.551  19.447  0.00  0.00    +0.000 Cl
ATOM     25  C   UNL     1       1.431   7.988  19.971  0.00  0.00    +0.000 A 
ENDBRANCH  18  19
ENDBRANCH   6  18
TORSDOF 6
ENDMDL
MODEL 4
REMARK VINA RESULT:      -7.2      2.476      6.326
REMARK  Name = 
REMARK  8 active torsions:
REMARK  status: ('A' for Active; 'I' for Inactive)
REMARK    1  A    between atoms: C_1  and  O_2
REMARK    2  A    between atoms: O_2  and  C_3
REMARK    3  A    between atoms: C_6  and  C_7
REMARK    4  A    between atoms: C_7  and  C_8
REMARK    5  A    between atoms: C_13  and  C_14
REMARK    6  A    between atoms: C_14  and  C_15
REMARK    7  A    between atoms: C_23  and  O_24
REMARK    8  A    between atoms: O_24  and  C_25
REMARK                            x       y       z     vdW  Elec       q    Type
REMARK                         _______ _______ _______ _____ _____    ______ ____
ROOT
ATOM      1  C   UNL     1       2.980   4.570  17.716  0.00  0.00    +0.000 C 
ATOM      2  C   UNL     1       1.474   4.363  17.685  0.00  0.00    +0.000 C 
ATOM      3  O   UNL     1       1.116   3.707  18.898  0.00  0.00    +0.000 OA
ATOM      4  C   UNL     1       2.140   3.761  19.788  0.00  0.00    +0.000 C 
ATOM      5  O   UNL     1       2.069   3.334  20.931  0.00  0.00    +0.000 OA
ATOM      6  C   UNL     1       3.342   4.441  19.196  0.00  0.00    +0.000 C 
ENDROOT
BRANCH   1   7
ATOM      7  C   UNL     1       3.732   3.512  16.877  0.00  0.00    +0.000 C 
BRANCH   7  11
ATOM      8  C   UNL     1       7.122   5.085  14.660  0.00  0.00    +0.000 A 
ATOM      9  C   UNL     1       6.321   4.060  14.127  0.00  0.00    +0.000 A 
ATOM     10  C   UNL     1       5.226   3.551  14.835  0.00  0.00    +0.000 A 
ATOM     11  C   UNL     1       4.915   4.045  16.100  0.00  0.00    +0.000 A 
ATOM     12  C   UNL     1       5.759   5.013  16.659  0.00  0.00    +0.000 A 
ATOM     13  C   UNL     1       6.863   5.530  15.961  0.00  0.00    +0.000 A 
BRANCH   8  15
ATOM     14  C   UNL     1       8.062   5.511  12.531  0.00  0.00    +0.000 C 
ATOM     15  O   UNL     1       8.155   5.634  13.949  0.00  0.00    +0.000 OA
ENDBRANCH   8  15
BRANCH  13  16
ATOM     16  O   UNL     1       7.532   6.460  16.716  0.00  0.00    +0.000 OA
ATOM     17  C   UNL     1       7.382   6.461  18.124  0.00  0.00    +0.000 C 
ENDBRANCH  13  16
ENDBRANCH   7  11
ENDBRANCH   1   7
BRANCH   6  18
ATOM     18  C   UNL     1       3.550   5.770  19.933  0.00  0.00    +0.000 C 
BRANCH  18  19
ATOM     19  C   UNL     1       2.780   6.947  19.377  0.00  0.00    +0.000 A 
ATOM     20  C   UNL     1       3.074   7.479  18.115  0.00  0.00    +0.000 A 
ATOM     21  C   UNL     1       2.411   8.620  17.648  0.00  0.00    +0.000 A 
ATOM     22  C   UNL     1       1.455   9.249  18.446  0.00  0.00    +0.000 A 
ATOM     23  C   UNL     1       1.158   8.726  19.701  0.00  0.00    +0.000 A 
ATOM     24 CL   UNL     1      -0.007   9.507  20.699  0.00  0.00    +0.000 Cl
ATOM     25  C   UNL     1       1.814   7.589  20.169  0.00  0.00    +0.000 A 
ENDBRANCH  18  19
ENDBRANCH   6  18
TORSDOF 6
ENDMDL
MODEL 5
REMARK VINA RESULT:      -7.1      2.747      6.308
REMARK  Name = 
REMARK  8 active torsions:
REMARK  status: ('A' for Active; 'I' for Inactive)
REMARK    1  A    between atoms: C_1  and  O_2
REMARK    2  A    between atoms: O_2  and  C_3
REMARK    3  A    between atoms: C_6  and  C_7
REMARK    4  A    between atoms: C_7  and  C_8
REMARK    5  A    between atoms: C_13  and  C_14
REMARK    6  A    between atoms: C_14  and  C_15
REMARK    7  A    between atoms: C_23  and  O_24
REMARK    8  A    between atoms: O_24  and  C_25
REMARK                            x       y       z     vdW  Elec       q    Type
REMARK                         _______ _______ _______ _____ _____    ______ ____
ROOT
ATOM      1  C   UNL     1       3.018   3.811  19.282  0.00  0.00    +0.000 C 
ATOM      2  C   UNL     1       2.185   2.573  18.990  0.00  0.00    +0.000 C 
ATOM      3  O   UNL     1       1.754   2.052  20.244  0.00  0.00    +0.000 OA
ATOM      4  C   UNL     1       1.951   2.963  21.231  0.00  0.00    +0.000 C 
ATOM      5  O   UNL     1       1.604   2.794  22.389  0.00  0.00    +0.000 OA
ATOM      6  C   UNL     1       2.610   4.206  20.701  0.00  0.00    +0.000 C 
ENDROOT
BRANCH   1   7
ATOM      7  C   UNL     1       4.535   3.523  19.211  0.00  0.00    +0.000 C 
BRANCH   7  11
ATOM      8  C   UNL     1       6.509   5.083  15.668  0.00  0.00    +0.000 A 
ATOM      9  C   UNL     1       5.506   4.103  15.566  0.00  0.00    +0.000 A 
ATOM     10  C   UNL     1       4.865   3.599  16.704  0.00  0.00    +0.000 A 
ATOM     11  C   UNL     1       5.222   4.052  17.972  0.00  0.00    +0.000 A 
ATOM     12  C   UNL     1       6.272   4.972  18.074  0.00  0.00    +0.000 A 
ATOM     13  C   UNL     1       6.927   5.484  16.942  0.00  0.00    +0.000 A 
BRANCH   8  15
ATOM     14  C   UNL     1       7.160   4.782  13.414  0.00  0.00    +0.000 C 
ATOM     15  O   UNL     1       7.096   5.629  14.559  0.00  0.00    +0.000 OA
ENDBRANCH   8  15
BRANCH  13  16
ATOM     16  O   UNL     1       7.917   6.364  17.300  0.00  0.00    +0.000 OA
ATOM     17  C   UNL     1       7.588   7.712  17.587  0.00  0.00    +0.000 C 
ENDBRANCH  13  16
ENDBRANCH   7  11
ENDBRANCH   1   7
BRANCH   6  18
ATOM     18  C   UNL     1       1.602   5.357  20.792  0.00  0.00    +0.000 C 
BRANCH  18  19
ATOM     19  C   UNL     1       1.935   6.577  19.963  0.00  0.00    +0.000 A 
ATOM     20  C   UNL     1       1.384   7.831  20.256  0.00  0.00    +0.000 A 
ATOM     21  C   UNL     1       1.633   8.933  19.431  0.00  0.00    +0.000 A 
ATOM     22  C   UNL     1       2.428   8.788  18.293  0.00  0.00    +0.000 A 
ATOM     23  C   UNL     1       2.979   7.547  17.995  0.00  0.00    +0.000 A 
ATOM     24 CL   UNL     1       3.945   7.356  16.583  0.00  0.00    +0.000 Cl
ATOM     25  C   UNL     1       2.734   6.447  18.815  0.00  0.00    +0.000 A 
ENDBRANCH  18  19
ENDBRANCH   6  18
TORSDOF 6
ENDMDL
MODEL 6
REMARK VINA RESULT:      -7.1      3.251      4.994
REMARK  Name = 
REMARK  8 active torsions:
REMARK  status: ('A' for Active; 'I' for Inactive)
REMARK    1  A    between atoms: C_1  and  O_2
REMARK    2  A    between atoms: O_2  and  C_3
REMARK    3  A    between atoms: C_6  and  C_7
REMARK    4  A    between atoms: C_7  and  C_8
REMARK    5  A    between atoms: C_13  and  C_14
REMARK    6  A    between atoms: C_14  and  C_15
REMARK    7  A    between atoms: C_23  and  O_24
REMARK    8  A    between atoms: O_24  and  C_25
REMARK                            x       y       z     vdW  Elec       q    Type
REMARK                         _______ _______ _______ _____ _____    ______ ____
ROOT
ATOM      1  C   UNL     1       6.327   6.793  17.189  0.00  0.00    +0.000 C 
ATOM      2  C   UNL     1       7.504   7.722  17.443  0.00  0.00    +0.000 C 
ATOM      3  O   UNL     1       8.149   7.267  18.630  0.00  0.00    +0.000 OA
ATOM      4  C   UNL     1       7.716   6.024  18.960  0.00  0.00    +0.000 C 
ATOM      5  O   UNL     1       8.161   5.376  19.895  0.00  0.00    +0.000 OA
ATOM      6  C   UNL     1       6.657   5.544  18.006  0.00  0.00    +0.000 C 
ENDROOT
BRANCH   1   7
ATOM      7  C   UNL     1       4.987   7.409  17.654  0.00  0.00    +0.000 C 
BRANCH   7  11
ATOM      8  C   UNL     1       1.981   4.515  18.866  0.00  0.00    +0.000 A 
ATOM      9  C   UNL     1       2.679   4.369  17.655  0.00  0.00    +0.000 A 
ATOM     10  C   UNL     1       3.651   5.297  17.260  0.00  0.00    +0.000 A 
ATOM     11  C   UNL     1       3.936   6.400  18.061  0.00  0.00    +0.000 A 
ATOM     12  C   UNL     1       3.186   6.582  19.230  0.00  0.00    +0.000 A 
ATOM     13  C   UNL     1       2.207   5.662  19.636  0.00  0.00    +0.000 A 
BRANCH   8  15
ATOM     14  C   UNL     1       1.336   2.239  18.884  0.00  0.00    +0.000 C 
ATOM     15  O   UNL     1       1.076   3.580  19.292  0.00  0.00    +0.000 OA
ENDBRANCH   8  15
BRANCH  13  16
ATOM     16  O   UNL     1       1.612   6.059  20.807  0.00  0.00    +0.000 OA
ATOM     17  C   UNL     1       1.317   7.428  21.015  0.00  0.00    +0.000 C 
ENDBRANCH  13  16
ENDBRANCH   7  11
ENDBRANCH   1   7
BRANCH   6  18
ATOM     18  C   UNL     1       7.235   4.374  17.201  0.00  0.00    +0.000 C 
BRANCH  18  19
ATOM     19  C   UNL     1       6.875   4.358  15.732  0.00  0.00    +0.000 A 
ATOM     20  C   UNL     1       5.825   3.567  15.247  0.00  0.00    +0.000 A 
ATOM     21  C   UNL     1       5.558   3.497  13.876  0.00  0.00    +0.000 A 
ATOM     22  C   UNL     1       6.347   4.209  12.972  0.00  0.00    +0.000 A 
ATOM     23  C   UNL     1       7.391   4.996  13.445  0.00  0.00    +0.000 A 
ATOM     24 CL   UNL     1       8.381   5.863  12.335  0.00  0.00    +0.000 Cl
ATOM     25  C   UNL     1       7.660   5.071  14.811  0.00  0.00    +0.000 A 
ENDBRANCH  18  19
ENDBRANCH   6  18
TORSDOF 6
ENDMDL
MODEL 7
REMARK VINA RESULT:      -7.1      1.039      1.075
REMARK  Name = 
REMARK  8 active torsions:
REMARK  status: ('A' for Active; 'I' for Inactive)
REMARK    1  A    between atoms: C_1  and  O_2
REMARK    2  A    between atoms: O_2  and  C_3
REMARK    3  A    between atoms: C_6  and  C_7
REMARK    4  A    between atoms: C_7  and  C_8
REMARK    5  A    between atoms: C_13  and  C_14
REMARK    6  A    between atoms: C_14  and  C_15
REMARK    7  A    between atoms: C_23  and  O_24
REMARK    8  A    between atoms: O_24  and  C_25
REMARK                            x       y       z     vdW  Elec       q    Type
REMARK                         _______ _______ _______ _____ _____    ______ ____
ROOT
ATOM      1  C   UNL     1       4.321   5.762  17.161  0.00  0.00    +0.000 C 
ATOM      2  C   UNL     1       4.815   5.356  15.782  0.00  0.00    +0.000 C 
ATOM      3  O   UNL     1       6.239   5.385  15.821  0.00  0.00    +0.000 OA
ATOM      4  C   UNL     1       6.678   5.454  17.104  0.00  0.00    +0.000 C 
ATOM      5  O   UNL     1       7.858   5.422  17.420  0.00  0.00    +0.000 OA
ATOM      6  C   UNL     1       5.529   5.536  18.070  0.00  0.00    +0.000 C 
ENDROOT
BRANCH   1   7
ATOM      7  C   UNL     1       3.874   7.241  17.209  0.00  0.00    +0.000 C 
BRANCH   7  11
ATOM      8  C   UNL     1       1.103   8.235  20.405  0.00  0.00    +0.000 A 
ATOM      9  C   UNL     1       1.777   7.003  20.389  0.00  0.00    +0.000 A 
ATOM     10  C   UNL     1       2.673   6.678  19.364  0.00  0.00    +0.000 A 
ATOM     11  C   UNL     1       2.904   7.573  18.322  0.00  0.00    +0.000 A 
ATOM     12  C   UNL     1       2.175   8.768  18.302  0.00  0.00    +0.000 A 
ATOM     13  C   UNL     1       1.271   9.106  19.322  0.00  0.00    +0.000 A 
BRANCH   8  15
ATOM     14  C   UNL     1       0.887   9.323  22.495  0.00  0.00    +0.000 C 
ATOM     15  O   UNL     1       0.275   8.590  21.437  0.00  0.00    +0.000 OA
ENDBRANCH   8  15
BRANCH  13  16
ATOM     16  O   UNL     1       0.681  10.320  19.077  0.00  0.00    +0.000 OA
ATOM     17  C   UNL     1      -0.619  10.369  18.517  0.00  0.00    +0.000 C 
ENDBRANCH  13  16
ENDBRANCH   7  11
ENDBRANCH   1   7
BRANCH   6  18
ATOM     18  C   UNL     1       5.498   4.237  18.884  0.00  0.00    +0.000 C 
BRANCH  18  19
ATOM     19  C   UNL     1       4.182   3.491  18.862  0.00  0.00    +0.000 A 
ATOM     20  C   UNL     1       3.701   2.895  17.689  0.00  0.00    +0.000 A 
ATOM     21  C   UNL     1       2.444   2.282  17.663  0.00  0.00    +0.000 A 
ATOM     22  C   UNL     1       1.648   2.269  18.808  0.00  0.00    +0.000 A 
ATOM     23  C   UNL     1       2.117   2.859  19.977  0.00  0.00    +0.000 A 
ATOM     24 CL   UNL     1       1.133   2.865  21.389  0.00  0.00    +0.000 Cl
ATOM     25  C   UNL     1       3.370   3.469  20.008  0.00  0.00    +0.000 A 
ENDBRANCH  18  19
ENDBRANCH   6  18
TORSDOF 6
ENDMDL
MODEL 8
REMARK VINA RESULT:      -7.0      2.618      6.398
REMARK  Name = 
REMARK  8 active torsions:
REMARK  status: ('A' for Active; 'I' for Inactive)
REMARK    1  A    between atoms: C_1  and  O_2
REMARK    2  A    between atoms: O_2  and  C_3
REMARK    3  A    between atoms: C_6  and  C_7
REMARK    4  A    between atoms: C_7  and  C_8
REMARK    5  A    between atoms: C_13  and  C_14
REMARK    6  A    between atoms: C_14  and  C_15
REMARK    7  A    between atoms: C_23  and  O_24
REMARK    8  A    between atoms: O_24  and  C_25
REMARK                            x       y       z     vdW  Elec       q    Type
REMARK                         _______ _______ _______ _____ _____    ______ ____
ROOT
ATOM      1  C   UNL     1       2.400   3.818  18.786  0.00  0.00    +0.000 C 
ATOM      2  C   UNL     1       0.959   3.349  18.671  0.00  0.00    +0.000 C 
ATOM      3  O   UNL     1       0.606   2.766  19.922  0.00  0.00    +0.000 OA
ATOM      4  C   UNL     1       1.522   3.087  20.871  0.00  0.00    +0.000 C 
ATOM      5  O   UNL     1       1.420   2.772  22.047  0.00  0.00    +0.000 OA
ATOM      6  C   UNL     1       2.643   3.904  20.293  0.00  0.00    +0.000 C 
ENDROOT
BRANCH   1   7
ATOM      7  C   UNL     1       3.390   2.828  18.130  0.00  0.00    +0.000 C 
BRANCH   7  11
ATOM      8  C   UNL     1       6.644   4.728  15.965  0.00  0.00    +0.000 A 
ATOM      9  C   UNL     1       5.507   4.252  15.290  0.00  0.00    +0.000 A 
ATOM     10  C   UNL     1       4.454   3.642  15.983  0.00  0.00    +0.000 A 
ATOM     11  C   UNL     1       4.521   3.480  17.365  0.00  0.00    +0.000 A 
ATOM     12  C   UNL     1       5.688   3.887  18.023  0.00  0.00    +0.000 A 
ATOM     13  C   UNL     1       6.752   4.498  17.342  0.00  0.00    +0.000 A 
BRANCH   8  15
ATOM     14  C   UNL     1       7.623   5.283  13.884  0.00  0.00    +0.000 C 
ATOM     15  O   UNL     1       7.649   5.384  15.306  0.00  0.00    +0.000 OA
ENDBRANCH   8  15
BRANCH  13  16
ATOM     16  O   UNL     1       7.778   4.804  18.200  0.00  0.00    +0.000 OA
ATOM     17  C   UNL     1       7.828   6.083  18.806  0.00  0.00    +0.000 C 
ENDBRANCH  13  16
ENDBRANCH   7  11
ENDBRANCH   1   7
BRANCH   6  18
ATOM     18  C   UNL     1       2.560   5.316  20.886  0.00  0.00    +0.000 C 
BRANCH  18  19
ATOM     19  C   UNL     1       2.579   6.444  19.878  0.00  0.00    +0.000 A 
ATOM     20  C   UNL     1       1.681   7.515  19.966  0.00  0.00    +0.000 A 
ATOM     21  C   UNL     1       1.653   8.508  18.981  0.00  0.00    +0.000 A 
ATOM     22  C   UNL     1       2.517   8.433  17.888  0.00  0.00    +0.000 A 
ATOM     23  C   UNL     1       3.412   7.372  17.793  0.00  0.00    +0.000 A 
ATOM     24 CL   UNL     1       4.468   7.261  16.439  0.00  0.00    +0.000 Cl
ATOM     25  C   UNL     1       3.444   6.382  18.774  0.00  0.00    +0.000 A 
ENDBRANCH  18  19
ENDBRANCH   6  18
TORSDOF 6
ENDMDL
MODEL 9
REMARK VINA RESULT:      -6.9      2.795      6.372
REMARK  Name = 
REMARK  8 active torsions:
REMARK  status: ('A' for Active; 'I' for Inactive)
REMARK    1  A    between atoms: C_1  and  O_2
REMARK    2  A    between atoms: O_2  and  C_3
REMARK    3  A    between atoms: C_6  and  C_7
REMARK    4  A    between atoms: C_7  and  C_8
REMARK    5  A    between atoms: C_13  and  C_14
REMARK    6  A    between atoms: C_14  and  C_15
REMARK    7  A    between atoms: C_23  and  O_24
REMARK    8  A    between atoms: O_24  and  C_25
REMARK                            x       y       z     vdW  Elec       q    Type
REMARK                         _______ _______ _______ _____ _____    ______ ____
ROOT
ATOM      1  C   UNL     1       2.955   3.792  19.111  0.00  0.00    +0.000 C 
ATOM      2  C   UNL     1       1.949   2.707  18.762  0.00  0.00    +0.000 C 
ATOM      3  O   UNL     1       1.462   2.176  19.991  0.00  0.00    +0.000 OA
ATOM      4  C   UNL     1       1.799   2.986  21.026  0.00  0.00    +0.000 C 
ATOM      5  O   UNL     1       1.444   2.796  22.179  0.00  0.00    +0.000 OA
ATOM      6  C   UNL     1       2.625   4.152  20.560  0.00  0.00    +0.000 C 
ENDROOT
BRANCH   1   7
ATOM      7  C   UNL     1       4.415   3.295  18.993  0.00  0.00    +0.000 C 
BRANCH   7  11
ATOM      8  C   UNL     1       6.645   5.033  15.694  0.00  0.00    +0.000 A 
ATOM      9  C   UNL     1       5.704   4.014  15.473  0.00  0.00    +0.000 A 
ATOM     10  C   UNL     1       4.980   3.452  16.532  0.00  0.00    +0.000 A 
ATOM     11  C   UNL     1       5.192   3.886  17.838  0.00  0.00    +0.000 A 
ATOM     12  C   UNL     1       6.184   4.848  18.063  0.00  0.00    +0.000 A 
ATOM     13  C   UNL     1       6.920   5.418  17.012  0.00  0.00    +0.000 A 
BRANCH   8  15
ATOM     14  C   UNL     1       7.332   4.907  13.434  0.00  0.00    +0.000 C 
ATOM     15  O   UNL     1       7.311   5.634  14.660  0.00  0.00    +0.000 OA
ENDBRANCH   8  15
BRANCH  13  16
ATOM     16  O   UNL     1       7.830   6.331  17.483  0.00  0.00    +0.000 OA
ATOM     17  C   UNL     1       8.015   6.480  18.879  0.00  0.00    +0.000 C 
ENDBRANCH  13  16
ENDBRANCH   7  11
ENDBRANCH   1   7
BRANCH   6  18
ATOM     18  C   UNL     1       1.793   5.428  20.740  0.00  0.00    +0.000 C 
BRANCH  18  19
ATOM     19  C   UNL     1       2.047   6.516  19.719  0.00  0.00    +0.000 A 
ATOM     20  C   UNL     1       2.900   6.307  18.628  0.00  0.00    +0.000 A 
ATOM     21  C   UNL     1       3.191   7.347  17.739  0.00  0.00    +0.000 A 
ATOM     22  C   UNL     1       2.642   8.614  17.941  0.00  0.00    +0.000 A 
ATOM     23  C   UNL     1       1.795   8.830  19.023  0.00  0.00    +0.000 A 
ATOM     24 CL   UNL     1       1.129  10.394  19.290  0.00  0.00    +0.000 Cl
ATOM     25  C   UNL     1       1.500   7.795  19.909  0.00  0.00    +0.000 A 
ENDBRANCH  18  19
ENDBRANCH   6  18
TORSDOF 6
ENDMDL
