MODEL 1
REMARK VINA RESULT:      -7.2      0.000      0.000
REMARK  Name = 
REMARK  5 active torsions:
REMARK  status: ('A' for Active; 'I' for Inactive)
REMARK    1  A    between atoms: C_1  and  C_2
REMARK    2  A    between atoms: C_2  and  C_3
REMARK    3  A    between atoms: C_2  and  C_4
REMARK    4  A    between atoms: C_4  and  O_5
REMARK    5  A    between atoms: O_5  and  C_6
REMARK                            x       y       z     vdW  Elec       q    Type
REMARK                         _______ _______ _______ _____ _____    ______ ____
ROOT
ATOM      1  C   UNL     1       5.340   4.865  15.426  0.00  0.00    +0.000 A 
ATOM      2  N   UNL     1       4.907   3.746  15.888  0.00  0.00    +0.000 NA
ATOM      3  C   UNL     1       4.209   3.859  17.033  0.00  0.00    +0.000 A 
ATOM      4  S   UNL     1       3.658   2.495  17.884  0.00  0.00    +0.000 S 
ATOM      5  C   UNL     1       2.969   3.468  19.097  0.00  0.00    +0.000 A 
ATOM      6  C   UNL     1       3.119   4.822  18.846  0.00  0.00    +0.000 A 
ATOM      7  C   UNL     1       3.885   5.036  17.651  0.00  0.00    +0.000 A 
ATOM      8  C   UNL     1       4.359   6.259  17.036  0.00  0.00    +0.000 A 
ATOM      9  O   UNL     1       4.089   7.368  17.493  0.00  0.00    +0.000 OA
ATOM     10  O   UNL     1       5.150   6.119  15.926  0.00  0.00    +0.000 OA
ATOM     11  C   UNL     1       2.571   5.864  19.778  0.00  0.00    +0.000 C 
ATOM     12  C   UNL     1       1.537   5.263  20.746  0.00  0.00    +0.000 C 
ATOM     13  C   UNL     1       2.047   3.951  21.357  0.00  0.00    +0.000 C 
ATOM     14  C   UNL     1       2.254   2.880  20.274  0.00  0.00    +0.000 C 
ENDROOT
BRANCH   1  15
ATOM     15  O   UNL     1       6.080   4.920  14.284  0.00  0.00    +0.000 OA
BRANCH  15  16
ATOM     16  C   UNL     1       6.441   3.639  13.726  0.00  0.00    +0.000 C 
BRANCH  16  18
ATOM     17  C   UNL     1       7.036   2.619  11.504  0.00  0.00    +0.000 C 
ATOM     18  C   UNL     1       6.159   3.645  12.217  0.00  0.00    +0.000 C 
ATOM     19  C   UNL     1       4.683   3.378  11.912  0.00  0.00    +0.000 C 
ENDBRANCH  16  18
ENDBRANCH  15  16
ENDBRANCH   1  15
TORSDOF 3
ENDMDL
MODEL 2
REMARK VINA RESULT:      -7.1      0.996      1.143
REMARK  Name = 
REMARK  5 active torsions:
REMARK  status: ('A' for Active; 'I' for Inactive)
REMARK    1  A    between atoms: C_1  and  C_2
REMARK    2  A    between atoms: C_2  and  C_3
REMARK    3  A    between atoms: C_2  and  C_4
REMARK    4  A    between atoms: C_4  and  O_5
REMARK    5  A    between atoms: O_5  and  C_6
REMARK                            x       y       z     vdW  Elec       q    Type
REMARK                         _______ _______ _______ _____ _____    ______ ____
ROOT
ATOM      1  C   UNL     1       5.333   5.337  16.023  0.00  0.00    +0.000 A 
ATOM      2  N   UNL     1       5.005   4.112  16.235  0.00  0.00    +0.000 NA
ATOM      3  C   UNL     1       4.135   3.944  17.248  0.00  0.00    +0.000 A 
ATOM      4  S   UNL     1       3.671   2.399  17.782  0.00  0.00    +0.000 S 
ATOM      5  C   UNL     1       2.673   3.062  18.989  0.00  0.00    +0.000 A 
ATOM      6  C   UNL     1       2.658   4.447  18.969  0.00  0.00    +0.000 A 
ATOM      7  C   UNL     1       3.553   4.951  17.968  0.00  0.00    +0.000 A 
ATOM      8  C   UNL     1       3.928   6.308  17.629  0.00  0.00    +0.000 A 
ATOM      9  O   UNL     1       3.432   7.283  18.191  0.00  0.00    +0.000 OA
ATOM     10  O   UNL     1       4.887   6.455  16.662  0.00  0.00    +0.000 OA
ATOM     11  C   UNL     1       1.829   5.241  19.937  0.00  0.00    +0.000 C 
ATOM     12  C   UNL     1       0.762   4.365  20.616  0.00  0.00    +0.000 C 
ATOM     13  C   UNL     1       1.364   3.040  21.105  0.00  0.00    +0.000 C 
ATOM     14  C   UNL     1       1.885   2.200  19.928  0.00  0.00    +0.000 C 
ENDROOT
BRANCH   1  15
ATOM     15  O   UNL     1       6.218   5.673  15.045  0.00  0.00    +0.000 OA
BRANCH  15  16
ATOM     16  C   UNL     1       6.865   4.560  14.394  0.00  0.00    +0.000 C 
BRANCH  16  18
ATOM     17  C   UNL     1       7.925   5.348  12.252  0.00  0.00    +0.000 C 
ATOM     18  C   UNL     1       6.695   4.691  12.874  0.00  0.00    +0.000 C 
ATOM     19  C   UNL     1       6.429   3.337  12.211  0.00  0.00    +0.000 C 
ENDBRANCH  16  18
ENDBRANCH  15  16
ENDBRANCH   1  15
TORSDOF 3
ENDMDL
MODEL 3
REMARK VINA RESULT:      -7.0      4.211      5.887
REMARK  Name = 
REMARK  5 active torsions:
REMARK  status: ('A' for Active; 'I' for Inactive)
REMARK    1  A    between atoms: C_1  and  C_2
REMARK    2  A    between atoms: C_2  and  C_3
REMARK    3  A    between atoms: C_2  and  C_4
REMARK    4  A    between atoms: C_4  and  O_5
REMARK    5  A    between atoms: O_5  and  C_6
REMARK                            x       y       z     vdW  Elec       q    Type
REMARK                         _______ _______ _______ _____ _____    ______ ____
ROOT
ATOM      1  C   UNL     1       7.730   7.596  17.780  0.00  0.00    +0.000 A 
ATOM      2  N   UNL     1       6.712   7.427  17.013  0.00  0.00    +0.000 NA
ATOM      3  C   UNL     1       5.961   6.355  17.326  0.00  0.00    +0.000 A 
ATOM      4  S   UNL     1       4.646   5.871  16.365  0.00  0.00    +0.000 S 
ATOM      5  C   UNL     1       4.324   4.548  17.384  0.00  0.00    +0.000 A 
ATOM      6  C   UNL     1       5.182   4.488  18.470  0.00  0.00    +0.000 A 
ATOM      7  C   UNL     1       6.164   5.532  18.401  0.00  0.00    +0.000 A 
ATOM      8  C   UNL     1       7.298   5.824  19.253  0.00  0.00    +0.000 A 
ATOM      9  O   UNL     1       7.543   5.167  20.263  0.00  0.00    +0.000 OA
ATOM     10  O   UNL     1       8.106   6.859  18.863  0.00  0.00    +0.000 OA
ATOM     11  C   UNL     1       5.067   3.410  19.509  0.00  0.00    +0.000 C 
ATOM     12  C   UNL     1       3.708   2.694  19.428  0.00  0.00    +0.000 C 
ATOM     13  C   UNL     1       3.357   2.333  17.977  0.00  0.00    +0.000 C 
ATOM     14  C   UNL     1       3.199   3.596  17.116  0.00  0.00    +0.000 C 
ENDROOT
BRANCH   1  15
ATOM     15  O   UNL     1       8.600   8.625  17.583  0.00  0.00    +0.000 OA
BRANCH  15  16
ATOM     16  C   UNL     1       8.155   9.906  18.074  0.00  0.00    +0.000 C 
BRANCH  16  18
ATOM     17  C   UNL     1       9.249  12.163  17.862  0.00  0.00    +0.000 C 
ATOM     18  C   UNL     1       9.375  10.759  18.450  0.00  0.00    +0.000 C 
ATOM     19  C   UNL     1       9.571  10.838  19.966  0.00  0.00    +0.000 C 
ENDBRANCH  16  18
ENDBRANCH  15  16
ENDBRANCH   1  15
TORSDOF 3
ENDMDL
MODEL 4
REMARK VINA RESULT:      -6.9      1.669      1.890
REMARK  Name = 
REMARK  5 active torsions:
REMARK  status: ('A' for Active; 'I' for Inactive)
REMARK    1  A    between atoms: C_1  and  C_2
REMARK    2  A    between atoms: C_2  and  C_3
REMARK    3  A    between atoms: C_2  and  C_4
REMARK    4  A    between atoms: C_4  and  O_5
REMARK    5  A    between atoms: O_5  and  C_6
REMARK                            x       y       z     vdW  Elec       q    Type
REMARK                         _______ _______ _______ _____ _____    ______ ____
ROOT
ATOM      1  C   UNL     1       6.082   4.183  16.366  0.00  0.00    +0.000 A 
ATOM      2  N   UNL     1       4.893   3.760  16.114  0.00  0.00    +0.000 NA
ATOM      3  C   UNL     1       4.103   3.666  17.199  0.00  0.00    +0.000 A 
ATOM      4  S   UNL     1       2.539   3.007  17.114  0.00  0.00    +0.000 S 
ATOM      5  C   UNL     1       2.298   3.233  18.782  0.00  0.00    +0.000 A 
ATOM      6  C   UNL     1       3.379   3.840  19.400  0.00  0.00    +0.000 A 
ATOM      7  C   UNL     1       4.448   4.051  18.467  0.00  0.00    +0.000 A 
ATOM      8  C   UNL     1       5.784   4.574  18.658  0.00  0.00    +0.000 A 
ATOM      9  O   UNL     1       6.176   4.981  19.750  0.00  0.00    +0.000 OA
ATOM     10  O   UNL     1       6.607   4.570  17.562  0.00  0.00    +0.000 OA
ATOM     11  C   UNL     1       3.375   4.152  20.869  0.00  0.00    +0.000 C 
ATOM     12  C   UNL     1       1.953   4.095  21.453  0.00  0.00    +0.000 C 
ATOM     13  C   UNL     1       1.213   2.834  20.985  0.00  0.00    +0.000 C 
ATOM     14  C   UNL     1       1.023   2.837  19.460  0.00  0.00    +0.000 C 
ENDROOT
BRANCH   1  15
ATOM     15  O   UNL     1       7.009   4.315  15.378  0.00  0.00    +0.000 OA
BRANCH  15  16
ATOM     16  C   UNL     1       6.527   4.922  14.162  0.00  0.00    +0.000 C 
BRANCH  16  18
ATOM     17  C   UNL     1       5.303   3.433  12.544  0.00  0.00    +0.000 C 
ATOM     18  C   UNL     1       6.674   3.926  13.003  0.00  0.00    +0.000 C 
ATOM     19  C   UNL     1       7.437   4.532  11.823  0.00  0.00    +0.000 C 
ENDBRANCH  16  18
ENDBRANCH  15  16
ENDBRANCH   1  15
TORSDOF 3
ENDMDL
MODEL 5
REMARK VINA RESULT:      -6.8      0.654      1.026
REMARK  Name = 
REMARK  5 active torsions:
REMARK  status: ('A' for Active; 'I' for Inactive)
REMARK    1  A    between atoms: C_1  and  C_2
REMARK    2  A    between atoms: C_2  and  C_3
REMARK    3  A    between atoms: C_2  and  C_4
REMARK    4  A    between atoms: C_4  and  O_5
REMARK    5  A    between atoms: O_5  and  C_6
REMARK                            x       y       z     vdW  Elec       q    Type
REMARK                         _______ _______ _______ _____ _____    ______ ____
ROOT
ATOM      1  C   UNL     1       5.679   4.262  15.856  0.00  0.00    +0.000 A 
ATOM      2  N   UNL     1       5.174   3.166  16.301  0.00  0.00    +0.000 NA
ATOM      3  C   UNL     1       4.307   3.335  17.317  0.00  0.00    +0.000 A 
ATOM      4  S   UNL     1       3.625   2.013  18.139  0.00  0.00    +0.000 S 
ATOM      5  C   UNL     1       2.761   3.044  19.180  0.00  0.00    +0.000 A 
ATOM      6  C   UNL     1       2.955   4.384  18.888  0.00  0.00    +0.000 A 
ATOM      7  C   UNL     1       3.897   4.540  17.817  0.00  0.00    +0.000 A 
ATOM      8  C   UNL     1       4.466   5.731  17.222  0.00  0.00    +0.000 A 
ATOM      9  O   UNL     1       4.134   6.861  17.576  0.00  0.00    +0.000 OA
ATOM     10  O   UNL     1       5.419   5.538  16.256  0.00  0.00    +0.000 OA
ATOM     11  C   UNL     1       2.274   5.469  19.670  0.00  0.00    +0.000 C 
ATOM     12  C   UNL     1       1.099   4.915  20.496  0.00  0.00    +0.000 C 
ATOM     13  C   UNL     1       1.503   3.637  21.244  0.00  0.00    +0.000 C 
ATOM     14  C   UNL     1       1.870   2.513  20.261  0.00  0.00    +0.000 C 
ENDROOT
BRANCH   1  15
ATOM     15  O   UNL     1       6.587   4.261  14.841  0.00  0.00    +0.000 OA
BRANCH  15  16
ATOM     16  C   UNL     1       6.065   4.643  13.551  0.00  0.00    +0.000 C 
BRANCH  16  18
ATOM     17  C   UNL     1       4.701   3.357  11.872  0.00  0.00    +0.000 C 
ATOM     18  C   UNL     1       6.022   3.410  12.636  0.00  0.00    +0.000 C 
ATOM     19  C   UNL     1       7.198   3.386  11.656  0.00  0.00    +0.000 C 
ENDBRANCH  16  18
ENDBRANCH  15  16
ENDBRANCH   1  15
TORSDOF 3
ENDMDL
MODEL 6
REMARK VINA RESULT:      -6.7      1.761      2.381
REMARK  Name = 
REMARK  5 active torsions:
REMARK  status: ('A' for Active; 'I' for Inactive)
REMARK    1  A    between atoms: C_1  and  C_2
REMARK    2  A    between atoms: C_2  and  C_3
REMARK    3  A    between atoms: C_2  and  C_4
REMARK    4  A    between atoms: C_4  and  O_5
REMARK    5  A    between atoms: O_5  and  C_6
REMARK                            x       y       z     vdW  Elec       q    Type
REMARK                         _______ _______ _______ _____ _____    ______ ____
ROOT
ATOM      1  C   UNL     1       5.436   4.992  15.377  0.00  0.00    +0.000 A 
ATOM      2  N   UNL     1       5.125   6.136  15.875  0.00  0.00    +0.000 NA
ATOM      3  C   UNL     1       4.363   6.064  16.981  0.00  0.00    +0.000 A 
ATOM      4  S   UNL     1       3.730   7.456  17.724  0.00  0.00    +0.000 S 
ATOM      5  C   UNL     1       2.949   6.525  18.915  0.00  0.00    +0.000 A 
ATOM      6  C   UNL     1       3.193   5.168  18.778  0.00  0.00    +0.000 A 
ATOM      7  C   UNL     1       3.991   4.909  17.614  0.00  0.00    +0.000 A 
ATOM      8  C   UNL     1       4.431   3.662  17.025  0.00  0.00    +0.000 A 
ATOM      9  O   UNL     1       4.182   2.573  17.539  0.00  0.00    +0.000 OA
ATOM     10  O   UNL     1       5.123   3.751  15.846  0.00  0.00    +0.000 OA
ATOM     11  C   UNL     1       2.616   4.162  19.732  0.00  0.00    +0.000 C 
ATOM     12  C   UNL     1       2.110   4.834  21.020  0.00  0.00    +0.000 C 
ATOM     13  C   UNL     1       1.276   6.083  20.702  0.00  0.00    +0.000 C 
ATOM     14  C   UNL     1       2.125   7.152  19.997  0.00  0.00    +0.000 C 
ENDROOT
BRANCH   1  15
ATOM     15  O   UNL     1       6.188   4.894  14.246  0.00  0.00    +0.000 OA
BRANCH  15  16
ATOM     16  C   UNL     1       6.305   3.563  13.701  0.00  0.00    +0.000 C 
BRANCH  16  18
ATOM     17  C   UNL     1       7.037   2.645  11.475  0.00  0.00    +0.000 C 
ATOM     18  C   UNL     1       6.093   3.616  12.181  0.00  0.00    +0.000 C 
ATOM     19  C   UNL     1       4.643   3.314  11.797  0.00  0.00    +0.000 C 
ENDBRANCH  16  18
ENDBRANCH  15  16
ENDBRANCH   1  15
TORSDOF 3
ENDMDL
MODEL 7
REMARK VINA RESULT:      -6.7      0.961      1.348
REMARK  Name = 
REMARK  5 active torsions:
REMARK  status: ('A' for Active; 'I' for Inactive)
REMARK    1  A    between atoms: C_1  and  C_2
REMARK    2  A    between atoms: C_2  and  C_3
REMARK    3  A    between atoms: C_2  and  C_4
REMARK    4  A    between atoms: C_4  and  O_5
REMARK    5  A    between atoms: O_5  and  C_6
REMARK                            x       y       z     vdW  Elec       q    Type
REMARK                         _______ _______ _______ _____ _____    ______ ____
ROOT
ATOM      1  C   UNL     1       6.027   4.366  15.279  0.00  0.00    +0.000 A 
ATOM      2  N   UNL     1       5.146   3.538  15.717  0.00  0.00    +0.000 NA
ATOM      3  C   UNL     1       4.400   4.017  16.730  0.00  0.00    +0.000 A 
ATOM      4  S   UNL     1       3.268   3.045  17.544  0.00  0.00    +0.000 S 
ATOM      5  C   UNL     1       2.847   4.323  18.585  0.00  0.00    +0.000 A 
ATOM      6  C   UNL     1       3.531   5.493  18.299  0.00  0.00    +0.000 A 
ATOM      7  C   UNL     1       4.469   5.287  17.234  0.00  0.00    +0.000 A 
ATOM      8  C   UNL     1       5.447   6.179  16.646  0.00  0.00    +0.000 A 
ATOM      9  O   UNL     1       5.560   7.351  17.003  0.00  0.00    +0.000 OA
ATOM     10  O   UNL     1       6.262   5.646  15.684  0.00  0.00    +0.000 OA
ATOM     11  C   UNL     1       3.301   6.753  19.083  0.00  0.00    +0.000 C 
ATOM     12  C   UNL     1       2.001   6.678  19.901  0.00  0.00    +0.000 C 
ATOM     13  C   UNL     1       1.891   5.340  20.646  0.00  0.00    +0.000 C 
ATOM     14  C   UNL     1       1.816   4.162  19.660  0.00  0.00    +0.000 C 
ENDROOT
BRANCH   1  15
ATOM     15  O   UNL     1       6.875   4.027  14.268  0.00  0.00    +0.000 OA
BRANCH  15  16
ATOM     16  C   UNL     1       6.388   4.307  12.940  0.00  0.00    +0.000 C 
BRANCH  16  18
ATOM     17  C   UNL     1       4.573   3.271  11.537  0.00  0.00    +0.000 C 
ATOM     18  C   UNL     1       5.867   3.010  12.305  0.00  0.00    +0.000 C 
ATOM     19  C   UNL     1       6.907   2.370  11.382  0.00  0.00    +0.000 C 
ENDBRANCH  16  18
ENDBRANCH  15  16
ENDBRANCH   1  15
TORSDOF 3
ENDMDL
MODEL 8
REMARK VINA RESULT:      -6.6      3.134      4.415
REMARK  Name = 
REMARK  5 active torsions:
REMARK  status: ('A' for Active; 'I' for Inactive)
REMARK    1  A    between atoms: C_1  and  C_2
REMARK    2  A    between atoms: C_2  and  C_3
REMARK    3  A    between atoms: C_2  and  C_4
REMARK    4  A    between atoms: C_4  and  O_5
REMARK    5  A    between atoms: O_5  and  C_6
REMARK                            x       y       z     vdW  Elec       q    Type
REMARK                         _______ _______ _______ _____ _____    ______ ____
ROOT
ATOM      1  C   UNL     1       3.905   4.915  18.161  0.00  0.00    +0.000 A 
ATOM      2  N   UNL     1       3.756   6.085  17.648  0.00  0.00    +0.000 NA
ATOM      3  C   UNL     1       2.978   6.908  18.376  0.00  0.00    +0.000 A 
ATOM      4  S   UNL     1       2.543   8.454  17.819  0.00  0.00    +0.000 S 
ATOM      5  C   UNL     1       1.623   8.753  19.218  0.00  0.00    +0.000 A 
ATOM      6  C   UNL     1       1.671   7.706  20.123  0.00  0.00    +0.000 A 
ATOM      7  C   UNL     1       2.437   6.612  19.598  0.00  0.00    +0.000 A 
ATOM      8  C   UNL     1       2.700   5.294  20.136  0.00  0.00    +0.000 A 
ATOM      9  O   UNL     1       2.291   4.946  21.242  0.00  0.00    +0.000 OA
ATOM     10  O   UNL     1       3.412   4.437  19.338  0.00  0.00    +0.000 OA
ATOM     11  C   UNL     1       0.944   7.763  21.436  0.00  0.00    +0.000 C 
ATOM     12  C   UNL     1       0.525   9.202  21.785  0.00  0.00    +0.000 C 
ATOM     13  C   UNL     1      -0.117   9.899  20.577  0.00  0.00    +0.000 C 
ATOM     14  C   UNL     1       0.885  10.040  19.421  0.00  0.00    +0.000 C 
ENDROOT
BRANCH   1  15
ATOM     15  O   UNL     1       4.648   3.960  17.537  0.00  0.00    +0.000 OA
BRANCH  15  16
ATOM     16  C   UNL     1       4.792   4.128  16.111  0.00  0.00    +0.000 C 
BRANCH  16  18
ATOM     17  C   UNL     1       6.511   4.374  14.290  0.00  0.00    +0.000 C 
ATOM     18  C   UNL     1       6.257   3.893  15.717  0.00  0.00    +0.000 C 
ATOM     19  C   UNL     1       7.224   4.580  16.684  0.00  0.00    +0.000 C 
ENDBRANCH  16  18
ENDBRANCH  15  16
ENDBRANCH   1  15
TORSDOF 3
ENDMDL
MODEL 9
REMARK VINA RESULT:      -6.5      2.823      7.196
REMARK  Name = 
REMARK  5 active torsions:
REMARK  status: ('A' for Active; 'I' for Inactive)
REMARK    1  A    between atoms: C_1  and  C_2
REMARK    2  A    between atoms: C_2  and  C_3
REMARK    3  A    between atoms: C_2  and  C_4
REMARK    4  A    between atoms: C_4  and  O_5
REMARK    5  A    between atoms: O_5  and  C_6
REMARK                            x       y       z     vdW  Elec       q    Type
REMARK                         _______ _______ _______ _____ _____    ______ ____
ROOT
ATOM      1  C   UNL     1       2.118   6.644  20.025  0.00  0.00    +0.000 A 
ATOM      2  N   UNL     1       2.709   5.502  20.014  0.00  0.00    +0.000 NA
ATOM      3  C   UNL     1       3.463   5.286  18.920  0.00  0.00    +0.000 A 
ATOM      4  S   UNL     1       4.226   3.793  18.639  0.00  0.00    +0.000 S 
ATOM      5  C   UNL     1       4.873   4.345  17.167  0.00  0.00    +0.000 A 
ATOM      6  C   UNL     1       4.548   5.665  16.900  0.00  0.00    +0.000 A 
ATOM      7  C   UNL     1       3.686   6.192  17.918  0.00  0.00    +0.000 A 
ATOM      8  C   UNL     1       3.031   7.478  18.033  0.00  0.00    +0.000 A 
ATOM      9  O   UNL     1       3.198   8.373  17.206  0.00  0.00    +0.000 OA
ATOM     10  O   UNL     1       2.191   7.645  19.103  0.00  0.00    +0.000 OA
ATOM     11  C   UNL     1       5.030   6.362  15.661  0.00  0.00    +0.000 C 
ATOM     12  C   UNL     1       6.188   5.596  14.999  0.00  0.00    +0.000 C 
ATOM     13  C   UNL     1       5.878   4.096  14.903  0.00  0.00    +0.000 C 
ATOM     14  C   UNL     1       5.728   3.472  16.300  0.00  0.00    +0.000 C 
ENDROOT
BRANCH   1  15
ATOM     15  O   UNL     1       1.303   7.008  21.053  0.00  0.00    +0.000 OA
BRANCH  15  16
ATOM     16  C   UNL     1       1.332   8.410  21.392  0.00  0.00    +0.000 C 
BRANCH  16  18
ATOM     17  C   UNL     1      -0.346   9.495  22.922  0.00  0.00    +0.000 C 
ATOM     18  C   UNL     1      -0.107   8.930  21.524  0.00  0.00    +0.000 C 
ATOM     19  C   UNL     1      -0.429   9.989  20.466  0.00  0.00    +0.000 C 
ENDBRANCH  16  18
ENDBRANCH  15  16
ENDBRANCH   1  15
TORSDOF 3
ENDMDL
