MODEL 1
REMARK VINA RESULT:      -7.3      0.000      0.000
REMARK  Name = 
REMARK  7 active torsions:
REMARK  status: ('A' for Active; 'I' for Inactive)
REMARK    1  A    between atoms: C_1  and  C_2
REMARK    2  A    between atoms: C_2  and  N_3
REMARK    3  A    between atoms: C_2  and  C_14
REMARK    4  A    between atoms: C_4  and  S_5
REMARK    5  A    between atoms: N_6  and  C_7
REMARK    6  A    between atoms: C_14  and  C_15
REMARK    7  A    between atoms: C_14  and  N_20
REMARK                            x       y       z     vdW  Elec       q    Type
REMARK                         _______ _______ _______ _____ _____    ______ ____
ROOT
ATOM      1  C   UNL     1       5.691   4.208  19.224  0.00  0.00    +0.000 C 
ATOM      2  C   UNL     1       5.049   5.447  18.592  0.00  0.00    +0.000 C 
ENDROOT
BRANCH   2   3
ATOM      3  N   UNL     1       5.589   5.530  17.232  0.00  0.00    +0.000 NA
ATOM      4  C   UNL     1       6.690   6.066  16.856  0.00  0.00    +0.000 C 
ATOM      5  N   UNL     1       7.140   6.036  15.566  0.00  0.00    +0.000 N 
ATOM      6  H   UNL     1       7.708   6.812  15.251  0.00  0.00    +0.000 HD
BRANCH   5   7
ATOM      7  C   UNL     1       6.779   5.095  14.582  0.00  0.00    +0.000 A 
ATOM      8  C   UNL     1       5.648   4.275  14.739  0.00  0.00    +0.000 A 
ATOM      9  C   UNL     1       5.204   3.435  13.714  0.00  0.00    +0.000 A 
ATOM     10  C   UNL     1       5.895   3.387  12.509  0.00  0.00    +0.000 A 
ATOM     11  C   UNL     1       7.046   4.159  12.345  0.00  0.00    +0.000 A 
ATOM     12  C   UNL     1       7.480   5.008  13.371  0.00  0.00    +0.000 A 
ATOM     13 CL   UNL     1       8.911   5.946  13.109  0.00  0.00    +0.000 Cl
ENDBRANCH   5   7
BRANCH   4  14
ATOM     14  S   UNL     1       7.800   6.905  17.928  0.00  0.00    +0.000 S 
ATOM     15  H   UNL     1       7.375   8.145  17.651  0.00  0.00    +0.000 HD
ENDBRANCH   4  14
ENDBRANCH   2   3
BRANCH   2  16
ATOM     16  C   UNL     1       3.455   5.432  18.575  0.00  0.00    +0.000 C 
BRANCH  16  17
ATOM     17  C   UNL     1       2.815   6.849  18.575  0.00  0.00    +0.000 A 
ATOM     18  C   UNL     1       2.893   7.833  17.601  0.00  0.00    +0.000 A 
ATOM     19  C   UNL     1       2.114   8.988  17.876  0.00  0.00    +0.000 A 
ATOM     20  C   UNL     1       1.529   8.914  19.114  0.00  0.00    +0.000 A 
ATOM     21  S   UNL     1       1.963   7.484  19.940  0.00  0.00    +0.000 S 
ENDBRANCH  16  17
BRANCH  16  22
ATOM     22  N   UNL     1       2.812   4.522  17.584  0.00  0.00    +0.000 NA
ATOM     23  C   UNL     1       1.365   4.358  17.703  0.00  0.00    +0.000 C 
ATOM     24  C   UNL     1       1.171   3.032  18.416  0.00  0.00    +0.000 C 
ATOM     25  C   UNL     1       2.332   2.187  17.928  0.00  0.00    +0.000 C 
ATOM     26  C   UNL     1       3.378   3.180  17.434  0.00  0.00    +0.000 C 
ENDBRANCH  16  22
ENDBRANCH   2  16
TORSDOF 6
ENDMDL
MODEL 2
REMARK VINA RESULT:      -6.9      1.430      3.129
REMARK  Name = 
REMARK  7 active torsions:
REMARK  status: ('A' for Active; 'I' for Inactive)
REMARK    1  A    between atoms: C_1  and  C_2
REMARK    2  A    between atoms: C_2  and  N_3
REMARK    3  A    between atoms: C_2  and  C_14
REMARK    4  A    between atoms: C_4  and  S_5
REMARK    5  A    between atoms: N_6  and  C_7
REMARK    6  A    between atoms: C_14  and  C_15
REMARK    7  A    between atoms: C_14  and  N_20
REMARK                            x       y       z     vdW  Elec       q    Type
REMARK                         _______ _______ _______ _____ _____    ______ ____
ROOT
ATOM      1  C   UNL     1       4.457   2.478  17.704  0.00  0.00    +0.000 C 
ATOM      2  C   UNL     1       4.742   3.969  17.901  0.00  0.00    +0.000 C 
ENDROOT
BRANCH   2   3
ATOM      3  N   UNL     1       5.407   4.416  16.673  0.00  0.00    +0.000 NA
ATOM      4  C   UNL     1       6.513   5.054  16.568  0.00  0.00    +0.000 C 
ATOM      5  N   UNL     1       7.087   5.373  15.369  0.00  0.00    +0.000 N 
ATOM      6  H   UNL     1       7.646   6.215  15.327  0.00  0.00    +0.000 HD
BRANCH   5   7
ATOM      7  C   UNL     1       6.868   4.715  14.143  0.00  0.00    +0.000 A 
ATOM      8  C   UNL     1       5.793   3.825  13.975  0.00  0.00    +0.000 A 
ATOM      9  C   UNL     1       5.487   3.271  12.730  0.00  0.00    +0.000 A 
ATOM     10  C   UNL     1       6.263   3.587  11.621  0.00  0.00    +0.000 A 
ATOM     11  C   UNL     1       7.362   4.434  11.770  0.00  0.00    +0.000 A 
ATOM     12  C   UNL     1       7.658   4.996  13.019  0.00  0.00    +0.000 A 
ATOM     13 CL   UNL     1       9.030   6.044  13.143  0.00  0.00    +0.000 Cl
ENDBRANCH   5   7
BRANCH   4  14
ATOM     14  S   UNL     1       7.473   5.606  17.932  0.00  0.00    +0.000 S 
ATOM     15  H   UNL     1       6.609   6.534  18.363  0.00  0.00    +0.000 HD
ENDBRANCH   4  14
ENDBRANCH   2   3
BRANCH   2  16
ATOM     16  C   UNL     1       3.453   4.856  18.208  0.00  0.00    +0.000 C 
BRANCH  16  17
ATOM     17  C   UNL     1       2.411   4.151  19.120  0.00  0.00    +0.000 A 
ATOM     18  C   UNL     1       1.123   3.742  18.807  0.00  0.00    +0.000 A 
ATOM     19  C   UNL     1       0.462   3.043  19.852  0.00  0.00    +0.000 A 
ATOM     20  C   UNL     1       1.220   3.018  20.995  0.00  0.00    +0.000 A 
ATOM     21  S   UNL     1       2.687   3.873  20.806  0.00  0.00    +0.000 S 
ENDBRANCH  16  17
BRANCH  16  22
ATOM     22  N   UNL     1       3.703   6.266  18.623  0.00  0.00    +0.000 NA
ATOM     23  C   UNL     1       2.739   6.844  19.556  0.00  0.00    +0.000 C 
ATOM     24  C   UNL     1       1.821   7.701  18.704  0.00  0.00    +0.000 C 
ATOM     25  C   UNL     1       2.730   8.221  17.606  0.00  0.00    +0.000 C 
ATOM     26  C   UNL     1       3.909   7.255  17.562  0.00  0.00    +0.000 C 
ENDBRANCH  16  22
ENDBRANCH   2  16
TORSDOF 6
ENDMDL
MODEL 3
REMARK VINA RESULT:      -6.8      1.462      3.116
REMARK  Name = 
REMARK  7 active torsions:
REMARK  status: ('A' for Active; 'I' for Inactive)
REMARK    1  A    between atoms: C_1  and  C_2
REMARK    2  A    between atoms: C_2  and  N_3
REMARK    3  A    between atoms: C_2  and  C_14
REMARK    4  A    between atoms: C_4  and  S_5
REMARK    5  A    between atoms: N_6  and  C_7
REMARK    6  A    between atoms: C_14  and  C_15
REMARK    7  A    between atoms: C_14  and  N_20
REMARK                            x       y       z     vdW  Elec       q    Type
REMARK                         _______ _______ _______ _____ _____    ______ ____
ROOT
ATOM      1  C   UNL     1       5.015   3.295  18.514  0.00  0.00    +0.000 C 
ATOM      2  C   UNL     1       4.960   4.811  18.307  0.00  0.00    +0.000 C 
ENDROOT
BRANCH   2   3
ATOM      3  N   UNL     1       5.520   5.055  16.974  0.00  0.00    +0.000 NA
ATOM      4  C   UNL     1       6.587   5.698  16.677  0.00  0.00    +0.000 C 
ATOM      5  N   UNL     1       7.064   5.818  15.402  0.00  0.00    +0.000 N 
ATOM      6  H   UNL     1       7.581   6.656  15.172  0.00  0.00    +0.000 HD
BRANCH   5   7
ATOM      7  C   UNL     1       6.791   4.947  14.329  0.00  0.00    +0.000 A 
ATOM      8  C   UNL     1       5.679   4.088  14.352  0.00  0.00    +0.000 A 
ATOM      9  C   UNL     1       5.322   3.319  13.241  0.00  0.00    +0.000 A 
ATOM     10  C   UNL     1       6.084   3.383  12.080  0.00  0.00    +0.000 A 
ATOM     11  C   UNL     1       7.218   4.196  12.047  0.00  0.00    +0.000 A 
ATOM     12  C   UNL     1       7.565   4.973  13.159  0.00  0.00    +0.000 A 
ATOM     13 CL   UNL     1       8.978   5.966  13.058  0.00  0.00    +0.000 Cl
ENDBRANCH   5   7
BRANCH   4  14
ATOM     14  S   UNL     1       7.613   6.512  17.849  0.00  0.00    +0.000 S 
ATOM     15  H   UNL     1       6.983   6.064  18.943  0.00  0.00    +0.000 HD
ENDBRANCH   4  14
ENDBRANCH   2   3
BRANCH   2  16
ATOM     16  C   UNL     1       3.504   5.447  18.441  0.00  0.00    +0.000 C 
BRANCH  16  17
ATOM     17  C   UNL     1       2.511   4.572  19.256  0.00  0.00    +0.000 A 
ATOM     18  C   UNL     1       2.477   4.350  20.625  0.00  0.00    +0.000 A 
ATOM     19  C   UNL     1       1.378   3.563  21.061  0.00  0.00    +0.000 A 
ATOM     20  C   UNL     1       0.640   3.104  20.001  0.00  0.00    +0.000 A 
ATOM     21  S   UNL     1       1.305   3.586  18.503  0.00  0.00    +0.000 S 
ENDBRANCH  16  17
BRANCH  16  22
ATOM     22  N   UNL     1       3.442   6.884  18.831  0.00  0.00    +0.000 NA
ATOM     23  C   UNL     1       2.267   7.295  19.596  0.00  0.00    +0.000 C 
ATOM     24  C   UNL     1       1.348   7.964  18.590  0.00  0.00    +0.000 C 
ATOM     25  C   UNL     1       2.304   8.622  17.612  0.00  0.00    +0.000 C 
ATOM     26  C   UNL     1       3.625   7.880  17.772  0.00  0.00    +0.000 C 
ENDBRANCH  16  22
ENDBRANCH   2  16
TORSDOF 6
ENDMDL
MODEL 4
REMARK VINA RESULT:      -6.6      4.943      8.269
REMARK  Name = 
REMARK  7 active torsions:
REMARK  status: ('A' for Active; 'I' for Inactive)
REMARK    1  A    between atoms: C_1  and  C_2
REMARK    2  A    between atoms: C_2  and  N_3
REMARK    3  A    between atoms: C_2  and  C_14
REMARK    4  A    between atoms: C_4  and  S_5
REMARK    5  A    between atoms: N_6  and  C_7
REMARK    6  A    between atoms: C_14  and  C_15
REMARK    7  A    between atoms: C_14  and  N_20
REMARK                            x       y       z     vdW  Elec       q    Type
REMARK                         _______ _______ _______ _____ _____    ______ ____
ROOT
ATOM      1  C   UNL     1      -1.252  10.294  18.326  0.00  0.00    +0.000 C 
ATOM      2  C   UNL     1      -0.588  10.586  19.675  0.00  0.00    +0.000 C 
ENDROOT
BRANCH   2   3
ATOM      3  N   UNL     1       0.469   9.581  19.827  0.00  0.00    +0.000 NA
ATOM      4  C   UNL     1       0.701   8.834  20.841  0.00  0.00    +0.000 C 
ATOM      5  N   UNL     1       1.677   7.877  20.864  0.00  0.00    +0.000 N 
ATOM      6  H   UNL     1       2.107   7.669  21.756  0.00  0.00    +0.000 HD
BRANCH   5   7
ATOM      7  C   UNL     1       2.242   7.241  19.742  0.00  0.00    +0.000 A 
ATOM      8  C   UNL     1       2.648   7.978  18.615  0.00  0.00    +0.000 A 
ATOM      9  C   UNL     1       3.331   7.378  17.554  0.00  0.00    +0.000 A 
ATOM     10  C   UNL     1       3.612   6.017  17.592  0.00  0.00    +0.000 A 
ATOM     11  C   UNL     1       3.182   5.256  18.679  0.00  0.00    +0.000 A 
ATOM     12  C   UNL     1       2.507   5.864  19.746  0.00  0.00    +0.000 A 
ATOM     13 CL   UNL     1       2.003   4.872  21.070  0.00  0.00    +0.000 Cl
ENDBRANCH   5   7
BRANCH   4  14
ATOM     14  S   UNL     1      -0.197   8.904  22.350  0.00  0.00    +0.000 S 
ATOM     15  H   UNL     1      -0.969   9.948  22.022  0.00  0.00    +0.000 HD
ENDBRANCH   4  14
ENDBRANCH   2   3
BRANCH   2  16
ATOM     16  C   UNL     1      -0.001  12.061  19.821  0.00  0.00    +0.000 C 
BRANCH  16  17
ATOM     17  C   UNL     1      -0.610  12.863  21.004  0.00  0.00    +0.000 A 
ATOM     18  C   UNL     1      -0.714  12.495  22.336  0.00  0.00    +0.000 A 
ATOM     19  C   UNL     1      -1.248  13.504  23.181  0.00  0.00    +0.000 A 
ATOM     20  C   UNL     1      -1.646  14.601  22.460  0.00  0.00    +0.000 A 
ATOM     21  S   UNL     1      -1.414  14.379  20.782  0.00  0.00    +0.000 S 
ENDBRANCH  16  17
BRANCH  16  22
ATOM     22  N   UNL     1       1.483  12.192  19.754  0.00  0.00    +0.000 NA
ATOM     23  C   UNL     1       2.068  13.286  20.525  0.00  0.00    +0.000 C 
ATOM     24  C   UNL     1       2.347  14.383  19.514  0.00  0.00    +0.000 C 
ATOM     25  C   UNL     1       2.699  13.625  18.248  0.00  0.00    +0.000 C 
ATOM     26  C   UNL     1       2.098  12.235  18.426  0.00  0.00    +0.000 C 
ENDBRANCH  16  22
ENDBRANCH   2  16
TORSDOF 6
ENDMDL
MODEL 5
REMARK VINA RESULT:      -6.5      3.380      5.560
REMARK  Name = 
REMARK  7 active torsions:
REMARK  status: ('A' for Active; 'I' for Inactive)
REMARK    1  A    between atoms: C_1  and  C_2
REMARK    2  A    between atoms: C_2  and  N_3
REMARK    3  A    between atoms: C_2  and  C_14
REMARK    4  A    between atoms: C_4  and  S_5
REMARK    5  A    between atoms: N_6  and  C_7
REMARK    6  A    between atoms: C_14  and  C_15
REMARK    7  A    between atoms: C_14  and  N_20
REMARK                            x       y       z     vdW  Elec       q    Type
REMARK                         _______ _______ _______ _____ _____    ______ ____
ROOT
ATOM      1  C   UNL     1       1.906   8.417  17.461  0.00  0.00    +0.000 C 
ATOM      2  C   UNL     1       1.691   7.801  18.846  0.00  0.00    +0.000 C 
ENDROOT
BRANCH   2   3
ATOM      3  N   UNL     1       2.840   6.921  19.076  0.00  0.00    +0.000 NA
ATOM      4  C   UNL     1       2.851   5.778  19.654  0.00  0.00    +0.000 C 
ATOM      5  N   UNL     1       3.968   4.999  19.765  0.00  0.00    +0.000 N 
ATOM      6  H   UNL     1       4.039   4.394  20.572  0.00  0.00    +0.000 HD
BRANCH   5   7
ATOM      7  C   UNL     1       5.103   5.053  18.932  0.00  0.00    +0.000 A 
ATOM      8  C   UNL     1       6.321   5.580  19.394  0.00  0.00    +0.000 A 
ATOM      9  C   UNL     1       7.487   5.517  18.624  0.00  0.00    +0.000 A 
ATOM     10  C   UNL     1       7.453   4.934  17.362  0.00  0.00    +0.000 A 
ATOM     11  C   UNL     1       6.246   4.443  16.864  0.00  0.00    +0.000 A 
ATOM     12  C   UNL     1       5.083   4.499  17.644  0.00  0.00    +0.000 A 
ATOM     13 CL   UNL     1       3.616   3.869  16.976  0.00  0.00    +0.000 Cl
ENDBRANCH   5   7
BRANCH   4  14
ATOM     14  S   UNL     1       1.440   5.022  20.381  0.00  0.00    +0.000 S 
ATOM     15  H   UNL     1       2.108   4.244  21.242  0.00  0.00    +0.000 HD
ENDBRANCH   4  14
ENDBRANCH   2   3
BRANCH   2  16
ATOM     16  C   UNL     1       1.537   8.860  20.027  0.00  0.00    +0.000 C 
BRANCH  16  17
ATOM     17  C   UNL     1       0.725  10.125  19.632  0.00  0.00    +0.000 A 
ATOM     18  C   UNL     1      -0.418  10.210  18.851  0.00  0.00    +0.000 A 
ATOM     19  C   UNL     1      -0.964  11.519  18.756  0.00  0.00    +0.000 A 
ATOM     20  C   UNL     1      -0.166  12.440  19.385  0.00  0.00    +0.000 A 
ATOM     21  S   UNL     1       1.243  11.726  20.034  0.00  0.00    +0.000 S 
ENDBRANCH  16  17
BRANCH  16  22
ATOM     22  N   UNL     1       1.126   8.318  21.353  0.00  0.00    +0.000 NA
ATOM     23  C   UNL     1      -0.309   8.133  21.558  0.00  0.00    +0.000 C 
ATOM     24  C   UNL     1      -0.753   9.328  22.381  0.00  0.00    +0.000 C 
ATOM     25  C   UNL     1       0.449   9.628  23.258  0.00  0.00    +0.000 C 
ATOM     26  C   UNL     1       1.639   8.993  22.548  0.00  0.00    +0.000 C 
ENDBRANCH  16  22
ENDBRANCH   2  16
TORSDOF 6
ENDMDL
MODEL 6
REMARK VINA RESULT:      -6.5      2.765      6.770
REMARK  Name = 
REMARK  7 active torsions:
REMARK  status: ('A' for Active; 'I' for Inactive)
REMARK    1  A    between atoms: C_1  and  C_2
REMARK    2  A    between atoms: C_2  and  N_3
REMARK    3  A    between atoms: C_2  and  C_14
REMARK    4  A    between atoms: C_4  and  S_5
REMARK    5  A    between atoms: N_6  and  C_7
REMARK    6  A    between atoms: C_14  and  C_15
REMARK    7  A    between atoms: C_14  and  N_20
REMARK                            x       y       z     vdW  Elec       q    Type
REMARK                         _______ _______ _______ _____ _____    ______ ____
ROOT
ATOM      1  C   UNL     1       4.197   6.883  15.815  0.00  0.00    +0.000 C 
ATOM      2  C   UNL     1       5.070   6.533  17.023  0.00  0.00    +0.000 C 
ENDROOT
BRANCH   2   3
ATOM      3  N   UNL     1       4.141   6.177  18.099  0.00  0.00    +0.000 NA
ATOM      4  C   UNL     1       3.102   6.819  18.484  0.00  0.00    +0.000 C 
ATOM      5  N   UNL     1       2.256   6.371  19.460  0.00  0.00    +0.000 N 
ATOM      6  H   UNL     1       1.776   7.064  20.018  0.00  0.00    +0.000 HD
BRANCH   5   7
ATOM      7  C   UNL     1       2.089   5.031  19.861  0.00  0.00    +0.000 A 
ATOM      8  C   UNL     1       2.370   4.624  21.177  0.00  0.00    +0.000 A 
ATOM      9  C   UNL     1       2.082   3.330  21.622  0.00  0.00    +0.000 A 
ATOM     10  C   UNL     1       1.515   2.408  20.750  0.00  0.00    +0.000 A 
ATOM     11  C   UNL     1       1.267   2.775  19.427  0.00  0.00    +0.000 A 
ATOM     12  C   UNL     1       1.547   4.076  18.989  0.00  0.00    +0.000 A 
ATOM     13 CL   UNL     1       1.213   4.476  17.339  0.00  0.00    +0.000 Cl
ENDBRANCH   5   7
BRANCH   4  14
ATOM     14  S   UNL     1       2.585   8.360  17.815  0.00  0.00    +0.000 S 
ATOM     15  H   UNL     1       1.421   8.431  18.473  0.00  0.00    +0.000 HD
ENDBRANCH   4  14
ENDBRANCH   2   3
BRANCH   2  16
ATOM     16  C   UNL     1       6.123   5.364  16.765  0.00  0.00    +0.000 C 
BRANCH  16  17
ATOM     17  C   UNL     1       6.054   4.765  15.333  0.00  0.00    +0.000 A 
ATOM     18  C   UNL     1       5.101   3.912  14.796  0.00  0.00    +0.000 A 
ATOM     19  C   UNL     1       5.288   3.621  13.418  0.00  0.00    +0.000 A 
ATOM     20  C   UNL     1       6.449   4.176  12.943  0.00  0.00    +0.000 A 
ATOM     21  S   UNL     1       7.313   4.993  14.169  0.00  0.00    +0.000 S 
ENDBRANCH  16  17
BRANCH  16  22
ATOM     22  N   UNL     1       7.524   5.626  17.201  0.00  0.00    +0.000 NA
ATOM     23  C   UNL     1       8.011   4.824  18.321  0.00  0.00    +0.000 C 
ATOM     24  C   UNL     1       7.910   5.729  19.535  0.00  0.00    +0.000 C 
ATOM     25  C   UNL     1       8.186   7.112  18.978  0.00  0.00    +0.000 C 
ATOM     26  C   UNL     1       7.894   7.015  17.485  0.00  0.00    +0.000 C 
ENDBRANCH  16  22
ENDBRANCH   2  16
TORSDOF 6
ENDMDL
MODEL 7
REMARK VINA RESULT:      -6.4      8.501     11.709
REMARK  Name = 
REMARK  7 active torsions:
REMARK  status: ('A' for Active; 'I' for Inactive)
REMARK    1  A    between atoms: C_1  and  C_2
REMARK    2  A    between atoms: C_2  and  N_3
REMARK    3  A    between atoms: C_2  and  C_14
REMARK    4  A    between atoms: C_4  and  S_5
REMARK    5  A    between atoms: N_6  and  C_7
REMARK    6  A    between atoms: C_14  and  C_15
REMARK    7  A    between atoms: C_14  and  N_20
REMARK                            x       y       z     vdW  Elec       q    Type
REMARK                         _______ _______ _______ _____ _____    ______ ____
ROOT
ATOM      1  C   UNL     1      -0.623  10.024  18.422  0.00  0.00    +0.000 C 
ATOM      2  C   UNL     1      -0.634  11.542  18.623  0.00  0.00    +0.000 C 
ENDROOT
BRANCH   2   3
ATOM      3  N   UNL     1      -2.045  11.921  18.740  0.00  0.00    +0.000 NA
ATOM      4  C   UNL     1      -2.979  11.744  17.881  0.00  0.00    +0.000 C 
ATOM      5  N   UNL     1      -4.285  12.076  18.108  0.00  0.00    +0.000 N 
ATOM      6  H   UNL     1      -4.845  12.348  17.310  0.00  0.00    +0.000 HD
BRANCH   5   7
ATOM      7  C   UNL     1      -4.900  12.209  19.368  0.00  0.00    +0.000 A 
ATOM      8  C   UNL     1      -4.357  13.044  20.359  0.00  0.00    +0.000 A 
ATOM      9  C   UNL     1      -5.027  13.288  21.561  0.00  0.00    +0.000 A 
ATOM     10  C   UNL     1      -6.257  12.687  21.803  0.00  0.00    +0.000 A 
ATOM     11  C   UNL     1      -6.797  11.820  20.853  0.00  0.00    +0.000 A 
ATOM     12  C   UNL     1      -6.126  11.587  19.645  0.00  0.00    +0.000 A 
ATOM     13 CL   UNL     1      -6.847  10.507  18.501  0.00  0.00    +0.000 Cl
ENDBRANCH   5   7
BRANCH   4  14
ATOM     14  S   UNL     1      -2.740  11.038  16.289  0.00  0.00    +0.000 S 
ATOM     15  H   UNL     1      -2.611   9.770  16.701  0.00  0.00    +0.000 HD
ENDBRANCH   4  14
ENDBRANCH   2   3
BRANCH   2  16
ATOM     16  C   UNL     1       0.200  12.051  19.883  0.00  0.00    +0.000 C 
BRANCH  16  17
ATOM     17  C   UNL     1      -0.099  11.266  21.191  0.00  0.00    +0.000 A 
ATOM     18  C   UNL     1      -1.033  11.552  22.176  0.00  0.00    +0.000 A 
ATOM     19  C   UNL     1      -1.112  10.576  23.205  0.00  0.00    +0.000 A 
ATOM     20  C   UNL     1      -0.158   9.604  23.047  0.00  0.00    +0.000 A 
ATOM     21  S   UNL     1       0.842   9.905  21.695  0.00  0.00    +0.000 S 
ENDBRANCH  16  17
BRANCH  16  22
ATOM     22  N   UNL     1       1.661  12.256  19.670  0.00  0.00    +0.000 NA
ATOM     23  C   UNL     1       2.280  13.331  20.440  0.00  0.00    +0.000 C 
ATOM     24  C   UNL     1       2.404  14.496  19.474  0.00  0.00    +0.000 C 
ATOM     25  C   UNL     1       2.649  13.827  18.134  0.00  0.00    +0.000 C 
ATOM     26  C   UNL     1       2.128  12.403  18.289  0.00  0.00    +0.000 C 
ENDBRANCH  16  22
ENDBRANCH   2  16
TORSDOF 6
ENDMDL
MODEL 8
REMARK VINA RESULT:      -6.4      9.606     12.380
REMARK  Name = 
REMARK  7 active torsions:
REMARK  status: ('A' for Active; 'I' for Inactive)
REMARK    1  A    between atoms: C_1  and  C_2
REMARK    2  A    between atoms: C_2  and  N_3
REMARK    3  A    between atoms: C_2  and  C_14
REMARK    4  A    between atoms: C_4  and  S_5
REMARK    5  A    between atoms: N_6  and  C_7
REMARK    6  A    between atoms: C_14  and  C_15
REMARK    7  A    between atoms: C_14  and  N_20
REMARK                            x       y       z     vdW  Elec       q    Type
REMARK                         _______ _______ _______ _____ _____    ______ ____
ROOT
ATOM      1  C   UNL     1      -1.508  10.282  18.782  0.00  0.00    +0.000 C 
ATOM      2  C   UNL     1      -1.895  11.718  18.417  0.00  0.00    +0.000 C 
ENDROOT
BRANCH   2   3
ATOM      3  N   UNL     1      -3.352  11.712  18.253  0.00  0.00    +0.000 NA
ATOM      4  C   UNL     1      -4.024  11.364  17.220  0.00  0.00    +0.000 C 
ATOM      5  N   UNL     1      -5.390  11.331  17.184  0.00  0.00    +0.000 N 
ATOM      6  H   UNL     1      -5.839  11.508  16.295  0.00  0.00    +0.000 HD
BRANCH   5   7
ATOM      7  C   UNL     1      -6.246  11.211  18.296  0.00  0.00    +0.000 A 
ATOM      8  C   UNL     1      -6.509   9.960  18.881  0.00  0.00    +0.000 A 
ATOM      9  C   UNL     1      -7.247   9.843  20.062  0.00  0.00    +0.000 A 
ATOM     10  C   UNL     1      -7.752  10.982  20.679  0.00  0.00    +0.000 A 
ATOM     11  C   UNL     1      -7.541  12.231  20.095  0.00  0.00    +0.000 A 
ATOM     12  C   UNL     1      -6.791  12.344  18.917  0.00  0.00    +0.000 A 
ATOM     13 CL   UNL     1      -6.557  13.920  18.241  0.00  0.00    +0.000 Cl
ENDBRANCH   5   7
BRANCH   4  14
ATOM     14  S   UNL     1      -3.308  10.859  15.696  0.00  0.00    +0.000 S 
ATOM     15  H   UNL     1      -3.873  11.808  14.939  0.00  0.00    +0.000 HD
ENDBRANCH   4  14
ENDBRANCH   2   3
BRANCH   2  16
ATOM     16  C   UNL     1      -1.444  12.817  19.481  0.00  0.00    +0.000 C 
BRANCH  16  17
ATOM     17  C   UNL     1      -2.281  12.802  20.790  0.00  0.00    +0.000 A 
ATOM     18  C   UNL     1      -2.109  12.015  21.918  0.00  0.00    +0.000 A 
ATOM     19  C   UNL     1      -3.001  12.316  22.982  0.00  0.00    +0.000 A 
ATOM     20  C   UNL     1      -3.918  13.266  22.612  0.00  0.00    +0.000 A 
ATOM     21  S   UNL     1      -3.720  13.743  20.983  0.00  0.00    +0.000 S 
ENDBRANCH  16  17
BRANCH  16  22
ATOM     22  N   UNL     1       0.019  12.918  19.747  0.00  0.00    +0.000 NA
ATOM     23  C   UNL     1       0.438  13.996  20.641  0.00  0.00    +0.000 C 
ATOM     24  C   UNL     1       0.956  15.093  19.729  0.00  0.00    +0.000 C 
ATOM     25  C   UNL     1       1.567  14.336  18.565  0.00  0.00    +0.000 C 
ATOM     26  C   UNL     1       0.915  12.958  18.590  0.00  0.00    +0.000 C 
ENDBRANCH  16  22
ENDBRANCH   2  16
TORSDOF 6
ENDMDL
MODEL 9
REMARK VINA RESULT:      -6.3      3.370      6.677
REMARK  Name = 
REMARK  7 active torsions:
REMARK  status: ('A' for Active; 'I' for Inactive)
REMARK    1  A    between atoms: C_1  and  C_2
REMARK    2  A    between atoms: C_2  and  N_3
REMARK    3  A    between atoms: C_2  and  C_14
REMARK    4  A    between atoms: C_4  and  S_5
REMARK    5  A    between atoms: N_6  and  C_7
REMARK    6  A    between atoms: C_14  and  C_15
REMARK    7  A    between atoms: C_14  and  N_20
REMARK                            x       y       z     vdW  Elec       q    Type
REMARK                         _______ _______ _______ _____ _____    ______ ____
ROOT
ATOM      1  C   UNL     1       5.536   5.843  18.870  0.00  0.00    +0.000 C 
ATOM      2  C   UNL     1       4.239   5.030  18.879  0.00  0.00    +0.000 C 
ENDROOT
BRANCH   2   3
ATOM      3  N   UNL     1       3.165   5.991  19.144  0.00  0.00    +0.000 NA
ATOM      4  C   UNL     1       2.329   5.986  20.115  0.00  0.00    +0.000 C 
ATOM      5  N   UNL     1       1.398   6.967  20.314  0.00  0.00    +0.000 N 
ATOM      6  H   UNL     1       0.528   6.704  20.757  0.00  0.00    +0.000 HD
BRANCH   5   7
ATOM      7  C   UNL     1       1.473   8.291  19.836  0.00  0.00    +0.000 A 
ATOM      8  C   UNL     1       1.920   8.571  18.534  0.00  0.00    +0.000 A 
ATOM      9  C   UNL     1       1.873   9.864  18.004  0.00  0.00    +0.000 A 
ATOM     10  C   UNL     1       1.386  10.912  18.778  0.00  0.00    +0.000 A 
ATOM     11  C   UNL     1       0.977  10.666  20.089  0.00  0.00    +0.000 A 
ATOM     12  C   UNL     1       1.016   9.367  20.611  0.00  0.00    +0.000 A 
ATOM     13 CL   UNL     1       0.491   9.121  22.241  0.00  0.00    +0.000 Cl
ENDBRANCH   5   7
BRANCH   4  14
ATOM     14  S   UNL     1       2.251   4.738  21.349  0.00  0.00    +0.000 S 
ATOM     15  H   UNL     1       1.434   5.395  22.182  0.00  0.00    +0.000 HD
ENDBRANCH   4  14
ENDBRANCH   2   3
BRANCH   2  16
ATOM     16  C   UNL     1       3.958   4.214  17.538  0.00  0.00    +0.000 C 
BRANCH  16  17
ATOM     17  C   UNL     1       5.014   4.456  16.425  0.00  0.00    +0.000 A 
ATOM     18  C   UNL     1       5.961   3.576  15.924  0.00  0.00    +0.000 A 
ATOM     19  C   UNL     1       6.720   4.090  14.839  0.00  0.00    +0.000 A 
ATOM     20  C   UNL     1       6.412   5.403  14.591  0.00  0.00    +0.000 A 
ATOM     21  S   UNL     1       5.254   6.006  15.693  0.00  0.00    +0.000 S 
ENDBRANCH  16  17
BRANCH  16  22
ATOM     22  N   UNL     1       3.630   2.769  17.700  0.00  0.00    +0.000 NA
ATOM     23  C   UNL     1       2.285   2.364  17.296  0.00  0.00    +0.000 C 
ATOM     24  C   UNL     1       1.495   2.255  18.587  0.00  0.00    +0.000 C 
ATOM     25  C   UNL     1       2.522   1.784  19.599  0.00  0.00    +0.000 C 
ATOM     26  C   UNL     1       3.876   2.162  19.010  0.00  0.00    +0.000 C 
ENDBRANCH  16  22
ENDBRANCH   2  16
TORSDOF 6
ENDMDL
