MODEL 1
REMARK VINA RESULT:      -7.7      0.000      0.000
REMARK  Name = 
REMARK  7 active torsions:
REMARK  status: ('A' for Active; 'I' for Inactive)
REMARK    1  A    between atoms: C_1  and  N_2
REMARK    2  A    between atoms: N_5  and  C_6
REMARK    3  A    between atoms: N_10  and  C_11
REMARK    4  A    between atoms: C_11  and  C_12
REMARK    5  A    between atoms: C_12  and  C_13
REMARK    6  A    between atoms: C_12  and  C_19
REMARK    7  A    between atoms: C_13  and  C_14
REMARK                            x       y       z     vdW  Elec       q    Type
REMARK                         _______ _______ _______ _____ _____    ______ ____
ROOT
ATOM      1  C   UNL     1       2.683   8.343  18.629  0.00  0.00    +0.000 C 
ENDROOT
BRANCH   1  11
ATOM      2  C   UNL     1       0.774  15.086  20.843  0.00  0.00    +0.000 C 
ATOM      3  N   UNL     1       0.459  13.694  20.641  0.00  0.00    +0.000 N 
ATOM      4  C   UNL     1      -0.744  13.254  20.186  0.00  0.00    +0.000 C 
ATOM      5  O   UNL     1      -1.719  13.949  19.925  0.00  0.00    +0.000 OA
ATOM      6  N   UNL     1      -0.669  11.868  20.013  0.00  0.00    +0.000 N 
ATOM      7  C   UNL     1      -1.722  11.227  19.256  0.00  0.00    +0.000 C 
ATOM      8  C   UNL     1       0.730  11.403  20.071  0.00  0.00    +0.000 C 
ATOM      9  C   UNL     1       1.390  11.256  18.695  0.00  0.00    +0.000 C 
ATOM     10  C   UNL     1       1.003   9.952  18.001  0.00  0.00    +0.000 C 
ATOM     11  N   UNL     1       1.273   8.738  18.786  0.00  0.00    +0.000 NA
ATOM     12  C   UNL     1       0.756   8.834  20.156  0.00  0.00    +0.000 C 
ATOM     13  C   UNL     1       0.998  10.150  20.911  0.00  0.00    +0.000 C 
ATOM     14  C   UNL     1       1.356  12.665  20.715  0.00  0.00    +0.000 C 
ATOM     15  O   UNL     1       2.511  12.761  21.112  0.00  0.00    +0.000 OA
ENDBRANCH   1  11
BRANCH   1  16
ATOM     16  C   UNL     1       3.050   7.039  17.867  0.00  0.00    +0.000 C 
BRANCH  16  17
ATOM     17  C   UNL     1       2.541   5.843  18.683  0.00  0.00    +0.000 A 
ATOM     18  C   UNL     1       1.807   4.827  18.047  0.00  0.00    +0.000 A 
ATOM     19  C   UNL     1       1.224   3.800  18.791  0.00  0.00    +0.000 A 
ATOM     20  C   UNL     1       1.386   3.769  20.174  0.00  0.00    +0.000 A 
ATOM     21  F   UNL     1       0.814   2.791  20.885  0.00  0.00    +0.000 F 
ATOM     22  C   UNL     1       2.126   4.746  20.822  0.00  0.00    +0.000 A 
ATOM     23  C   UNL     1       2.697   5.782  20.081  0.00  0.00    +0.000 A 
ENDBRANCH  16  17
BRANCH  16  24
ATOM     24  C   UNL     1       4.507   6.875  17.373  0.00  0.00    +0.000 C 
BRANCH  24  25
ATOM     25  C   UNL     1       4.924   5.640  16.571  0.00  0.00    +0.000 C 
ATOM     26  O   UNL     1       5.668   6.088  15.423  0.00  0.00    +0.000 OA
ATOM     27  C   UNL     1       6.635   5.070  15.201  0.00  0.00    +0.000 C 
ATOM     28  C   UNL     1       6.927   4.548  16.583  0.00  0.00    +0.000 C 
ATOM     29  O   UNL     1       5.714   4.719  17.320  0.00  0.00    +0.000 OA
ENDBRANCH  24  25
ENDBRANCH  16  24
ENDBRANCH   1  16
TORSDOF 5
ENDMDL
MODEL 2
REMARK VINA RESULT:      -7.6      1.157      1.546
REMARK  Name = 
REMARK  7 active torsions:
REMARK  status: ('A' for Active; 'I' for Inactive)
REMARK    1  A    between atoms: C_1  and  N_2
REMARK    2  A    between atoms: N_5  and  C_6
REMARK    3  A    between atoms: N_10  and  C_11
REMARK    4  A    between atoms: C_11  and  C_12
REMARK    5  A    between atoms: C_12  and  C_13
REMARK    6  A    between atoms: C_12  and  C_19
REMARK    7  A    between atoms: C_13  and  C_14
REMARK                            x       y       z     vdW  Elec       q    Type
REMARK                         _______ _______ _______ _____ _____    ______ ____
ROOT
ATOM      1  C   UNL     1       2.445   8.633  18.568  0.00  0.00    +0.000 C 
ENDROOT
BRANCH   1  11
ATOM      2  C   UNL     1      -0.734  13.811  22.705  0.00  0.00    +0.000 C 
ATOM      3  N   UNL     1      -0.688  13.015  21.503  0.00  0.00    +0.000 N 
ATOM      4  C   UNL     1      -0.973  13.503  20.267  0.00  0.00    +0.000 C 
ATOM      5  O   UNL     1      -1.335  14.644  20.004  0.00  0.00    +0.000 OA
ATOM      6  N   UNL     1      -0.731  12.495  19.329  0.00  0.00    +0.000 N 
ATOM      7  C   UNL     1      -0.674  12.874  17.934  0.00  0.00    +0.000 C 
ATOM      8  C   UNL     1       0.028  11.383  19.932  0.00  0.00    +0.000 C 
ATOM      9  C   UNL     1       1.542  11.473  19.701  0.00  0.00    +0.000 C 
ATOM     10  C   UNL     1       1.950  10.978  18.316  0.00  0.00    +0.000 C 
ATOM     11  N   UNL     1       1.504   9.612  17.998  0.00  0.00    +0.000 NA
ATOM     12  C   UNL     1       0.079   9.412  18.283  0.00  0.00    +0.000 C 
ATOM     13  C   UNL     1      -0.462   9.967  19.610  0.00  0.00    +0.000 C 
ATOM     14  C   UNL     1      -0.201  11.740  21.422  0.00  0.00    +0.000 C 
ATOM     15  O   UNL     1       0.119  11.042  22.376  0.00  0.00    +0.000 OA
ENDBRANCH   1  11
BRANCH   1  16
ATOM     16  C   UNL     1       2.807   7.344  17.779  0.00  0.00    +0.000 C 
BRANCH  16  17
ATOM     17  C   UNL     1       2.221   6.139  18.527  0.00  0.00    +0.000 A 
ATOM     18  C   UNL     1       2.199   6.134  19.933  0.00  0.00    +0.000 A 
ATOM     19  C   UNL     1       1.794   4.997  20.632  0.00  0.00    +0.000 A 
ATOM     20  C   UNL     1       1.387   3.863  19.934  0.00  0.00    +0.000 A 
ATOM     21  F   UNL     1       1.011   2.770  20.608  0.00  0.00    +0.000 F 
ATOM     22  C   UNL     1       1.375   3.851  18.547  0.00  0.00    +0.000 A 
ATOM     23  C   UNL     1       1.795   4.983  17.846  0.00  0.00    +0.000 A 
ENDBRANCH  16  17
BRANCH  16  24
ATOM     24  C   UNL     1       4.279   7.148  17.348  0.00  0.00    +0.000 C 
BRANCH  24  25
ATOM     25  C   UNL     1       4.715   5.877  16.618  0.00  0.00    +0.000 C 
ATOM     26  O   UNL     1       5.562   6.263  15.520  0.00  0.00    +0.000 OA
ATOM     27  C   UNL     1       6.508   5.209  15.405  0.00  0.00    +0.000 C 
ATOM     28  C   UNL     1       6.672   4.722  16.821  0.00  0.00    +0.000 C 
ATOM     29  O   UNL     1       5.412   4.954  17.453  0.00  0.00    +0.000 OA
ENDBRANCH  24  25
ENDBRANCH  16  24
ENDBRANCH   1  16
TORSDOF 5
ENDMDL
MODEL 3
REMARK VINA RESULT:      -7.6      1.020      1.025
REMARK  Name = 
REMARK  7 active torsions:
REMARK  status: ('A' for Active; 'I' for Inactive)
REMARK    1  A    between atoms: C_1  and  N_2
REMARK    2  A    between atoms: N_5  and  C_6
REMARK    3  A    between atoms: N_10  and  C_11
REMARK    4  A    between atoms: C_11  and  C_12
REMARK    5  A    between atoms: C_12  and  C_13
REMARK    6  A    between atoms: C_12  and  C_19
REMARK    7  A    between atoms: C_13  and  C_14
REMARK                            x       y       z     vdW  Elec       q    Type
REMARK                         _______ _______ _______ _____ _____    ______ ____
ROOT
ATOM      1  C   UNL     1       2.165   8.423  19.048  0.00  0.00    +0.000 C 
ENDROOT
BRANCH   1  11
ATOM      2  C   UNL     1       2.051  15.672  20.257  0.00  0.00    +0.000 C 
ATOM      3  N   UNL     1       1.363  14.421  20.052  0.00  0.00    +0.000 N 
ATOM      4  C   UNL     1       0.236  14.296  19.303  0.00  0.00    +0.000 C 
ATOM      5  O   UNL     1      -0.364  15.205  18.740  0.00  0.00    +0.000 OA
ATOM      6  N   UNL     1      -0.101  12.941  19.235  0.00  0.00    +0.000 N 
ATOM      7  C   UNL     1      -1.080  12.539  18.250  0.00  0.00    +0.000 C 
ATOM      8  C   UNL     1       1.012  12.096  19.710  0.00  0.00    +0.000 C 
ATOM      9  C   UNL     1       1.910  11.567  18.585  0.00  0.00    +0.000 C 
ATOM     10  C   UNL     1       1.308  10.351  17.884  0.00  0.00    +0.000 C 
ATOM     11  N   UNL     1       0.967   9.235  18.780  0.00  0.00    +0.000 NA
ATOM     12  C   UNL     1       0.185   9.673  19.942  0.00  0.00    +0.000 C 
ATOM     13  C   UNL     1       0.643  10.951  20.661  0.00  0.00    +0.000 C 
ATOM     14  C   UNL     1       1.832  13.194  20.433  0.00  0.00    +0.000 C 
ATOM     15  O   UNL     1       2.818  12.999  21.132  0.00  0.00    +0.000 OA
ENDBRANCH   1  11
BRANCH   1  16
ATOM     16  C   UNL     1       2.575   7.286  18.070  0.00  0.00    +0.000 C 
BRANCH  16  17
ATOM     17  C   UNL     1       2.243   5.940  18.727  0.00  0.00    +0.000 A 
ATOM     18  C   UNL     1       1.822   4.861  17.932  0.00  0.00    +0.000 A 
ATOM     19  C   UNL     1       1.390   3.671  18.521  0.00  0.00    +0.000 A 
ATOM     20  C   UNL     1       1.396   3.543  19.907  0.00  0.00    +0.000 A 
ATOM     21  F   UNL     1       0.969   2.406  20.468  0.00  0.00    +0.000 F 
ATOM     22  C   UNL     1       1.831   4.585  20.713  0.00  0.00    +0.000 A 
ATOM     23  C   UNL     1       2.249   5.780  20.126  0.00  0.00    +0.000 A 
ENDBRANCH  16  17
BRANCH  16  24
ATOM     24  C   UNL     1       3.992   7.340  17.451  0.00  0.00    +0.000 C 
BRANCH  24  25
ATOM     25  C   UNL     1       4.847   6.075  17.349  0.00  0.00    +0.000 C 
ATOM     26  O   UNL     1       5.125   5.839  15.957  0.00  0.00    +0.000 OA
ATOM     27  C   UNL     1       6.426   5.267  15.941  0.00  0.00    +0.000 C 
ATOM     28  C   UNL     1       7.110   5.904  17.121  0.00  0.00    +0.000 C 
ATOM     29  O   UNL     1       6.073   6.161  18.071  0.00  0.00    +0.000 OA
ENDBRANCH  24  25
ENDBRANCH  16  24
ENDBRANCH   1  16
TORSDOF 5
ENDMDL
MODEL 4
REMARK VINA RESULT:      -7.6      1.359      1.553
REMARK  Name = 
REMARK  7 active torsions:
REMARK  status: ('A' for Active; 'I' for Inactive)
REMARK    1  A    between atoms: C_1  and  N_2
REMARK    2  A    between atoms: N_5  and  C_6
REMARK    3  A    between atoms: N_10  and  C_11
REMARK    4  A    between atoms: C_11  and  C_12
REMARK    5  A    between atoms: C_12  and  C_13
REMARK    6  A    between atoms: C_12  and  C_19
REMARK    7  A    between atoms: C_13  and  C_14
REMARK                            x       y       z     vdW  Elec       q    Type
REMARK                         _______ _______ _______ _____ _____    ______ ____
ROOT
ATOM      1  C   UNL     1       2.060   8.632  18.761  0.00  0.00    +0.000 C 
ENDROOT
BRANCH   1  11
ATOM      2  C   UNL     1      -1.174  13.776  22.897  0.00  0.00    +0.000 C 
ATOM      3  N   UNL     1      -1.040  13.070  21.647  0.00  0.00    +0.000 N 
ATOM      4  C   UNL     1      -1.116  13.673  20.432  0.00  0.00    +0.000 C 
ATOM      5  O   UNL     1      -1.341  14.860  20.224  0.00  0.00    +0.000 OA
ATOM      6  N   UNL     1      -0.841  12.718  19.448  0.00  0.00    +0.000 N 
ATOM      7  C   UNL     1      -0.569  13.190  18.109  0.00  0.00    +0.000 C 
ATOM      8  C   UNL     1      -0.267  11.496  20.043  0.00  0.00    +0.000 C 
ATOM      9  C   UNL     1       1.266  11.456  20.012  0.00  0.00    +0.000 C 
ATOM     10  C   UNL     1       1.808  11.026  18.650  0.00  0.00    +0.000 C 
ATOM     11  N   UNL     1       1.291   9.737  18.164  0.00  0.00    +0.000 NA
ATOM     12  C   UNL     1      -0.171   9.655  18.252  0.00  0.00    +0.000 C 
ATOM     13  C   UNL     1      -0.831  10.162  19.544  0.00  0.00    +0.000 C 
ATOM     14  C   UNL     1      -0.658  11.763  21.519  0.00  0.00    +0.000 C 
ATOM     15  O   UNL     1      -0.529  10.969  22.442  0.00  0.00    +0.000 OA
ENDBRANCH   1  11
BRANCH   1  16
ATOM     16  C   UNL     1       2.548   7.451  17.877  0.00  0.00    +0.000 C 
BRANCH  16  17
ATOM     17  C   UNL     1       2.215   6.138  18.599  0.00  0.00    +0.000 A 
ATOM     18  C   UNL     1       1.811   5.016  17.856  0.00  0.00    +0.000 A 
ATOM     19  C   UNL     1       1.378   3.856  18.499  0.00  0.00    +0.000 A 
ATOM     20  C   UNL     1       1.366   3.800  19.891  0.00  0.00    +0.000 A 
ATOM     21  F   UNL     1       0.939   2.691  20.504  0.00  0.00    +0.000 F 
ATOM     22  C   UNL     1       1.785   4.885  20.647  0.00  0.00    +0.000 A 
ATOM     23  C   UNL     1       2.203   6.051  20.004  0.00  0.00    +0.000 A 
ENDBRANCH  16  17
BRANCH  16  24
ATOM     24  C   UNL     1       3.992   7.505  17.327  0.00  0.00    +0.000 C 
BRANCH  24  25
ATOM     25  C   UNL     1       4.814   6.225  17.164  0.00  0.00    +0.000 C 
ATOM     26  O   UNL     1       5.650   6.379  16.003  0.00  0.00    +0.000 OA
ATOM     27  C   UNL     1       6.839   5.666  16.317  0.00  0.00    +0.000 C 
ATOM     28  C   UNL     1       6.964   5.824  17.810  0.00  0.00    +0.000 C 
ATOM     29  O   UNL     1       5.625   5.924  18.298  0.00  0.00    +0.000 OA
ENDBRANCH  24  25
ENDBRANCH  16  24
ENDBRANCH   1  16
TORSDOF 5
ENDMDL
MODEL 5
REMARK VINA RESULT:      -7.5      1.423      2.552
REMARK  Name = 
REMARK  7 active torsions:
REMARK  status: ('A' for Active; 'I' for Inactive)
REMARK    1  A    between atoms: C_1  and  N_2
REMARK    2  A    between atoms: N_5  and  C_6
REMARK    3  A    between atoms: N_10  and  C_11
REMARK    4  A    between atoms: C_11  and  C_12
REMARK    5  A    between atoms: C_12  and  C_13
REMARK    6  A    between atoms: C_12  and  C_19
REMARK    7  A    between atoms: C_13  and  C_14
REMARK                            x       y       z     vdW  Elec       q    Type
REMARK                         _______ _______ _______ _____ _____    ______ ____
ROOT
ATOM      1  C   UNL     1       1.713   7.149  18.163  0.00  0.00    +0.000 C 
ENDROOT
BRANCH   1  11
ATOM      2  C   UNL     1      -3.083  12.360  20.132  0.00  0.00    +0.000 C 
ATOM      3  N   UNL     1      -1.742  11.947  19.801  0.00  0.00    +0.000 N 
ATOM      4  C   UNL     1      -0.635  12.399  20.447  0.00  0.00    +0.000 C 
ATOM      5  O   UNL     1      -0.610  13.226  21.351  0.00  0.00    +0.000 OA
ATOM      6  N   UNL     1       0.479  11.721  19.941  0.00  0.00    +0.000 N 
ATOM      7  C   UNL     1       1.717  11.816  20.681  0.00  0.00    +0.000 C 
ATOM      8  C   UNL     1       0.066  10.556  19.134  0.00  0.00    +0.000 C 
ATOM      9  C   UNL     1       0.057   9.236  19.915  0.00  0.00    +0.000 C 
ATOM     10  C   UNL     1       1.452   8.629  20.047  0.00  0.00    +0.000 C 
ATOM     11  N   UNL     1       2.151   8.418  18.769  0.00  0.00    +0.000 NA
ATOM     12  C   UNL     1       2.122   9.610  17.915  0.00  0.00    +0.000 C 
ATOM     13  C   UNL     1       0.787  10.362  17.796  0.00  0.00    +0.000 C 
ATOM     14  C   UNL     1      -1.420  10.943  18.930  0.00  0.00    +0.000 C 
ATOM     15  O   UNL     1      -2.211  10.362  18.196  0.00  0.00    +0.000 OA
ENDBRANCH   1  11
BRANCH   1  16
ATOM     16  C   UNL     1       2.652   5.911  18.173  0.00  0.00    +0.000 C 
BRANCH  16  17
ATOM     17  C   UNL     1       2.150   4.932  19.242  0.00  0.00    +0.000 A 
ATOM     18  C   UNL     1       2.569   5.080  20.575  0.00  0.00    +0.000 A 
ATOM     19  C   UNL     1       2.231   4.126  21.535  0.00  0.00    +0.000 A 
ATOM     20  C   UNL     1       1.453   3.027  21.177  0.00  0.00    +0.000 A 
ATOM     21  F   UNL     1       1.142   2.108  22.097  0.00  0.00    +0.000 F 
ATOM     22  C   UNL     1       1.006   2.872  19.873  0.00  0.00    +0.000 A 
ATOM     23  C   UNL     1       1.356   3.818  18.908  0.00  0.00    +0.000 A 
ENDBRANCH  16  17
BRANCH  16  24
ATOM     24  C   UNL     1       4.178   6.160  18.229  0.00  0.00    +0.000 C 
BRANCH  24  25
ATOM     25  C   UNL     1       5.164   5.012  18.005  0.00  0.00    +0.000 C 
ATOM     26  O   UNL     1       5.762   5.188  16.708  0.00  0.00    +0.000 OA
ATOM     27  C   UNL     1       7.088   4.699  16.851  0.00  0.00    +0.000 C 
ATOM     28  C   UNL     1       7.428   5.008  18.286  0.00  0.00    +0.000 C 
ATOM     29  O   UNL     1       6.189   4.944  18.995  0.00  0.00    +0.000 OA
ENDBRANCH  24  25
ENDBRANCH  16  24
ENDBRANCH   1  16
TORSDOF 5
ENDMDL
MODEL 6
REMARK VINA RESULT:      -7.4      1.304      2.245
REMARK  Name = 
REMARK  7 active torsions:
REMARK  status: ('A' for Active; 'I' for Inactive)
REMARK    1  A    between atoms: C_1  and  N_2
REMARK    2  A    between atoms: N_5  and  C_6
REMARK    3  A    between atoms: N_10  and  C_11
REMARK    4  A    between atoms: C_11  and  C_12
REMARK    5  A    between atoms: C_12  and  C_13
REMARK    6  A    between atoms: C_12  and  C_19
REMARK    7  A    between atoms: C_13  and  C_14
REMARK                            x       y       z     vdW  Elec       q    Type
REMARK                         _______ _______ _______ _____ _____    ______ ____
ROOT
ATOM      1  C   UNL     1       1.467   7.446  18.244  0.00  0.00    +0.000 C 
ENDROOT
BRANCH   1  11
ATOM      2  C   UNL     1      -3.264  12.676  20.317  0.00  0.00    +0.000 C 
ATOM      3  N   UNL     1      -1.931  12.257  19.958  0.00  0.00    +0.000 N 
ATOM      4  C   UNL     1      -0.809  12.704  20.581  0.00  0.00    +0.000 C 
ATOM      5  O   UNL     1      -0.762  13.530  21.486  0.00  0.00    +0.000 OA
ATOM      6  N   UNL     1       0.290  12.021  20.052  0.00  0.00    +0.000 N 
ATOM      7  C   UNL     1       1.544  12.109  20.766  0.00  0.00    +0.000 C 
ATOM      8  C   UNL     1      -0.144  10.859  19.253  0.00  0.00    +0.000 C 
ATOM      9  C   UNL     1      -0.143   9.538  20.032  0.00  0.00    +0.000 C 
ATOM     10  C   UNL     1       1.252   8.925  20.135  0.00  0.00    +0.000 C 
ATOM     11  N   UNL     1       1.923   8.711  18.843  0.00  0.00    +0.000 NA
ATOM     12  C   UNL     1       1.882   9.905  17.990  0.00  0.00    +0.000 C 
ATOM     13  C   UNL     1       0.548  10.663  17.900  0.00  0.00    +0.000 C 
ATOM     14  C   UNL     1      -1.633  11.253  19.079  0.00  0.00    +0.000 C 
ATOM     15  O   UNL     1      -2.440  10.676  18.362  0.00  0.00    +0.000 OA
ENDBRANCH   1  11
BRANCH   1  16
ATOM     16  C   UNL     1       2.475   6.290  17.993  0.00  0.00    +0.000 C 
BRANCH  16  17
ATOM     17  C   UNL     1       2.199   5.178  19.014  0.00  0.00    +0.000 A 
ATOM     18  C   UNL     1       1.480   4.036  18.624  0.00  0.00    +0.000 A 
ATOM     19  C   UNL     1       1.105   3.077  19.565  0.00  0.00    +0.000 A 
ATOM     20  C   UNL     1       1.464   3.240  20.901  0.00  0.00    +0.000 A 
ATOM     21  F   UNL     1       1.092   2.325  21.803  0.00  0.00    +0.000 F 
ATOM     22  C   UNL     1       2.196   4.346  21.307  0.00  0.00    +0.000 A 
ATOM     23  C   UNL     1       2.558   5.314  20.369  0.00  0.00    +0.000 A 
ENDBRANCH  16  17
BRANCH  16  24
ATOM     24  C   UNL     1       3.974   6.652  17.863  0.00  0.00    +0.000 C 
BRANCH  24  25
ATOM     25  C   UNL     1       4.912   5.792  17.013  0.00  0.00    +0.000 C 
ATOM     26  O   UNL     1       5.993   6.628  16.563  0.00  0.00    +0.000 OA
ATOM     27  C   UNL     1       7.122   5.766  16.519  0.00  0.00    +0.000 C 
ATOM     28  C   UNL     1       6.862   4.783  17.630  0.00  0.00    +0.000 C 
ATOM     29  O   UNL     1       5.440   4.668  17.714  0.00  0.00    +0.000 OA
ENDBRANCH  24  25
ENDBRANCH  16  24
ENDBRANCH   1  16
TORSDOF 5
ENDMDL
MODEL 7
REMARK VINA RESULT:      -7.4      1.669      2.823
REMARK  Name = 
REMARK  7 active torsions:
REMARK  status: ('A' for Active; 'I' for Inactive)
REMARK    1  A    between atoms: C_1  and  N_2
REMARK    2  A    between atoms: N_5  and  C_6
REMARK    3  A    between atoms: N_10  and  C_11
REMARK    4  A    between atoms: C_11  and  C_12
REMARK    5  A    between atoms: C_12  and  C_13
REMARK    6  A    between atoms: C_12  and  C_19
REMARK    7  A    between atoms: C_13  and  C_14
REMARK                            x       y       z     vdW  Elec       q    Type
REMARK                         _______ _______ _______ _____ _____    ______ ____
ROOT
ATOM      1  C   UNL     1       1.784   7.250  19.396  0.00  0.00    +0.000 C 
ENDROOT
BRANCH   1  11
ATOM      2  C   UNL     1      -3.774  12.045  19.024  0.00  0.00    +0.000 C 
ATOM      3  N   UNL     1      -2.373  11.733  18.888  0.00  0.00    +0.000 N 
ATOM      4  C   UNL     1      -1.375  12.569  19.277  0.00  0.00    +0.000 C 
ATOM      5  O   UNL     1      -1.513  13.692  19.750  0.00  0.00    +0.000 OA
ATOM      6  N   UNL     1      -0.154  11.912  19.096  0.00  0.00    +0.000 N 
ATOM      7  C   UNL     1       1.017  12.487  19.719  0.00  0.00    +0.000 C 
ATOM      8  C   UNL     1      -0.360  10.471  18.856  0.00  0.00    +0.000 C 
ATOM      9  C   UNL     1      -0.234   9.611  20.120  0.00  0.00    +0.000 C 
ATOM     10  C   UNL     1       1.221   9.325  20.485  0.00  0.00    +0.000 C 
ATOM     11  N   UNL     1       2.012   8.704  19.411  0.00  0.00    +0.000 NA
ATOM     12  C   UNL     1       1.869   9.415  18.134  0.00  0.00    +0.000 C 
ATOM     13  C   UNL     1       0.454   9.844  17.719  0.00  0.00    +0.000 C 
ATOM     14  C   UNL     1      -1.871  10.516  18.518  0.00  0.00    +0.000 C 
ATOM     15  O   UNL     1      -2.534   9.574  18.102  0.00  0.00    +0.000 OA
ENDBRANCH   1  11
BRANCH   1  16
ATOM     16  C   UNL     1       2.518   6.352  18.362  0.00  0.00    +0.000 C 
BRANCH  16  17
ATOM     17  C   UNL     1       2.102   4.896  18.605  0.00  0.00    +0.000 A 
ATOM     18  C   UNL     1       1.609   4.511  19.864  0.00  0.00    +0.000 A 
ATOM     19  C   UNL     1       1.350   3.170  20.146  0.00  0.00    +0.000 A 
ATOM     20  C   UNL     1       1.561   2.203  19.166  0.00  0.00    +0.000 A 
ATOM     21  F   UNL     1       1.324   0.916  19.444  0.00  0.00    +0.000 F 
ATOM     22  C   UNL     1       2.024   2.559  17.908  0.00  0.00    +0.000 A 
ATOM     23  C   UNL     1       2.298   3.899  17.630  0.00  0.00    +0.000 A 
ENDBRANCH  16  17
BRANCH  16  24
ATOM     24  C   UNL     1       4.045   6.540  18.195  0.00  0.00    +0.000 C 
BRANCH  24  25
ATOM     25  C   UNL     1       5.009   5.392  18.498  0.00  0.00    +0.000 C 
ATOM     26  O   UNL     1       5.734   5.092  17.291  0.00  0.00    +0.000 OA
ATOM     27  C   UNL     1       7.024   4.692  17.735  0.00  0.00    +0.000 C 
ATOM     28  C   UNL     1       7.234   5.498  18.989  0.00  0.00    +0.000 C 
ATOM     29  O   UNL     1       5.931   5.688  19.545  0.00  0.00    +0.000 OA
ENDBRANCH  24  25
ENDBRANCH  16  24
ENDBRANCH   1  16
TORSDOF 5
ENDMDL
MODEL 8
REMARK VINA RESULT:      -7.4      3.210      8.535
REMARK  Name = 
REMARK  7 active torsions:
REMARK  status: ('A' for Active; 'I' for Inactive)
REMARK    1  A    between atoms: C_1  and  N_2
REMARK    2  A    between atoms: N_5  and  C_6
REMARK    3  A    between atoms: N_10  and  C_11
REMARK    4  A    between atoms: C_11  and  C_12
REMARK    5  A    between atoms: C_12  and  C_13
REMARK    6  A    between atoms: C_12  and  C_19
REMARK    7  A    between atoms: C_13  and  C_14
REMARK                            x       y       z     vdW  Elec       q    Type
REMARK                         _______ _______ _______ _____ _____    ______ ____
ROOT
ATOM      1  C   UNL     1       0.801   8.874  18.380  0.00  0.00    +0.000 C 
ENDROOT
BRANCH   1  11
ATOM      2  C   UNL     1       2.582   1.753  18.748  0.00  0.00    +0.000 C 
ATOM      3  N   UNL     1       2.807   3.126  19.127  0.00  0.00    +0.000 N 
ATOM      4  C   UNL     1       4.042   3.677  19.255  0.00  0.00    +0.000 C 
ATOM      5  O   UNL     1       5.113   3.098  19.109  0.00  0.00    +0.000 OA
ATOM      6  N   UNL     1       3.890   5.039  19.532  0.00  0.00    +0.000 N 
ATOM      7  C   UNL     1       5.057   5.885  19.409  0.00  0.00    +0.000 C 
ATOM      8  C   UNL     1       2.503   5.477  19.286  0.00  0.00    +0.000 C 
ATOM      9  C   UNL     1       2.287   6.095  17.899  0.00  0.00    +0.000 C 
ATOM     10  C   UNL     1       2.740   7.552  17.835  0.00  0.00    +0.000 C 
ATOM     11  N   UNL     1       2.125   8.429  18.844  0.00  0.00    +0.000 NA
ATOM     12  C   UNL     1       2.203   7.862  20.195  0.00  0.00    +0.000 C 
ATOM     13  C   UNL     1       1.868   6.371  20.356  0.00  0.00    +0.000 C 
ATOM     14  C   UNL     1       1.834   4.080  19.241  0.00  0.00    +0.000 C 
ATOM     15  O   UNL     1       0.628   3.871  19.190  0.00  0.00    +0.000 OA
ENDBRANCH   1  11
BRANCH   1  16
ATOM     16  C   UNL     1       0.080  10.056  19.086  0.00  0.00    +0.000 C 
BRANCH  16  17
ATOM     17  C   UNL     1      -1.193  10.387  18.297  0.00  0.00    +0.000 A 
ATOM     18  C   UNL     1      -2.113  11.315  18.814  0.00  0.00    +0.000 A 
ATOM     19  C   UNL     1      -3.336  11.532  18.179  0.00  0.00    +0.000 A 
ATOM     20  C   UNL     1      -3.643  10.838  17.011  0.00  0.00    +0.000 A 
ATOM     21  F   UNL     1      -4.822  11.038  16.412  0.00  0.00    +0.000 F 
ATOM     22  C   UNL     1      -2.741   9.935  16.466  0.00  0.00    +0.000 A 
ATOM     23  C   UNL     1      -1.524   9.707  17.110  0.00  0.00    +0.000 A 
ENDBRANCH  16  17
BRANCH  16  24
ATOM     24  C   UNL     1       0.921  11.302  19.453  0.00  0.00    +0.000 C 
BRANCH  24  25
ATOM     25  C   UNL     1       0.913  11.855  20.879  0.00  0.00    +0.000 C 
ATOM     26  O   UNL     1       0.146  13.072  20.879  0.00  0.00    +0.000 OA
ATOM     27  C   UNL     1      -0.485  13.102  22.152  0.00  0.00    +0.000 C 
ATOM     28  C   UNL     1      -0.703  11.647  22.476  0.00  0.00    +0.000 C 
ATOM     29  O   UNL     1       0.367  10.949  21.836  0.00  0.00    +0.000 OA
ENDBRANCH  24  25
ENDBRANCH  16  24
ENDBRANCH   1  16
TORSDOF 5
ENDMDL
MODEL 9
REMARK VINA RESULT:      -7.3      1.485      2.524
REMARK  Name = 
REMARK  7 active torsions:
REMARK  status: ('A' for Active; 'I' for Inactive)
REMARK    1  A    between atoms: C_1  and  N_2
REMARK    2  A    between atoms: N_5  and  C_6
REMARK    3  A    between atoms: N_10  and  C_11
REMARK    4  A    between atoms: C_11  and  C_12
REMARK    5  A    between atoms: C_12  and  C_13
REMARK    6  A    between atoms: C_12  and  C_19
REMARK    7  A    between atoms: C_13  and  C_14
REMARK                            x       y       z     vdW  Elec       q    Type
REMARK                         _______ _______ _______ _____ _____    ______ ____
ROOT
ATOM      1  C   UNL     1       1.770   7.014  18.514  0.00  0.00    +0.000 C 
ENDROOT
BRANCH   1  11
ATOM      2  C   UNL     1      -3.215  12.257  19.812  0.00  0.00    +0.000 C 
ATOM      3  N   UNL     1      -1.858  11.853  19.537  0.00  0.00    +0.000 N 
ATOM      4  C   UNL     1      -0.772  12.421  20.124  0.00  0.00    +0.000 C 
ATOM      5  O   UNL     1      -0.782  13.354  20.919  0.00  0.00    +0.000 OA
ATOM      6  N   UNL     1       0.367  11.724  19.709  0.00  0.00    +0.000 N 
ATOM      7  C   UNL     1       1.597  11.953  20.434  0.00  0.00    +0.000 C 
ATOM      8  C   UNL     1       0.001  10.455  19.052  0.00  0.00    +0.000 C 
ATOM      9  C   UNL     1       0.032   9.242  19.990  0.00  0.00    +0.000 C 
ATOM     10  C   UNL     1       1.446   8.706  20.199  0.00  0.00    +0.000 C 
ATOM     11  N   UNL     1       2.160   8.362  18.959  0.00  0.00    +0.000 NA
ATOM     12  C   UNL     1       2.095   9.438  17.964  0.00  0.00    +0.000 C 
ATOM     13  C   UNL     1       0.736  10.122  17.749  0.00  0.00    +0.000 C 
ATOM     14  C   UNL     1      -1.497  10.762  18.798  0.00  0.00    +0.000 C 
ATOM     15  O   UNL     1      -2.262  10.067  18.140  0.00  0.00    +0.000 OA
ENDBRANCH   1  11
BRANCH   1  16
ATOM     16  C   UNL     1       2.854   5.931  18.255  0.00  0.00    +0.000 C 
BRANCH  16  17
ATOM     17  C   UNL     1       2.597   4.754  19.205  0.00  0.00    +0.000 A 
ATOM     18  C   UNL     1       1.386   4.680  19.914  0.00  0.00    +0.000 A 
ATOM     19  C   UNL     1       1.187   3.692  20.879  0.00  0.00    +0.000 A 
ATOM     20  C   UNL     1       2.188   2.756  21.129  0.00  0.00    +0.000 A 
ATOM     21  F   UNL     1       1.999   1.819  22.064  0.00  0.00    +0.000 F 
ATOM     22  C   UNL     1       3.383   2.792  20.424  0.00  0.00    +0.000 A 
ATOM     23  C   UNL     1       3.588   3.789  19.470  0.00  0.00    +0.000 A 
ENDBRANCH  16  17
BRANCH  16  24
ATOM     24  C   UNL     1       4.333   6.381  18.214  0.00  0.00    +0.000 C 
BRANCH  24  25
ATOM     25  C   UNL     1       5.218   6.043  17.013  0.00  0.00    +0.000 C 
ATOM     26  O   UNL     1       6.515   5.666  17.510  0.00  0.00    +0.000 OA
ATOM     27  C   UNL     1       6.977   4.677  16.599  0.00  0.00    +0.000 C 
ATOM     28  C   UNL     1       5.715   3.991  16.147  0.00  0.00    +0.000 C 
ATOM     29  O   UNL     1       4.695   4.992  16.202  0.00  0.00    +0.000 OA
ENDBRANCH  24  25
ENDBRANCH  16  24
ENDBRANCH   1  16
TORSDOF 5
ENDMDL
