MODEL 1
REMARK VINA RESULT:      -8.2      0.000      0.000
REMARK  Name = 
REMARK  6 active torsions:
REMARK  status: ('A' for Active; 'I' for Inactive)
REMARK    1  A    between atoms: C_1  and  C_2
REMARK    2  A    between atoms: C_2  and  O_3
REMARK    3  A    between atoms: O_3  and  C_4
REMARK    4  A    between atoms: N_9  and  C_10
REMARK    5  A    between atoms: C_10  and  C_11
REMARK    6  A    between atoms: C_11  and  C_12
REMARK                            x       y       z     vdW  Elec       q    Type
REMARK                         _______ _______ _______ _____ _____    ______ ____
ROOT
ATOM      1  C   UNL     1       6.592   4.705  15.487  0.00  0.00    +0.000 A 
ATOM      2  C   UNL     1       7.588   4.701  16.485  0.00  0.00    +0.000 A 
ATOM      3  C   UNL     1       7.252   4.779  17.847  0.00  0.00    +0.000 A 
ATOM      4  C   UNL     1       5.918   4.852  18.191  0.00  0.00    +0.000 A 
ATOM      5  N   UNL     1       5.375   4.939  19.495  0.00  0.00    +0.000 N 
ATOM      6  N   UNL     1       3.969   4.877  19.244  0.00  0.00    +0.000 N 
ATOM      7  C   UNL     1       3.663   4.892  17.893  0.00  0.00    +0.000 A 
ATOM      8  O   UNL     1       2.570   4.908  17.365  0.00  0.00    +0.000 OA
ATOM      9  C   UNL     1       4.947   4.853  17.196  0.00  0.00    +0.000 A 
ATOM     10  C   UNL     1       5.243   4.771  15.848  0.00  0.00    +0.000 A 
ATOM     11  H   UNL     1       5.709   4.156  20.060  0.00  0.00    +0.000 HD
ENDROOT
BRANCH   1  12
ATOM     12  O   UNL     1       6.821   4.639  14.137  0.00  0.00    +0.000 OA
BRANCH  12  14
ATOM     13  C   UNL     1       6.655   3.517  12.032  0.00  0.00    +0.000 C 
ATOM     14  C   UNL     1       5.995   3.754  13.380  0.00  0.00    +0.000 C 
ENDBRANCH  12  14
ENDBRANCH   1  12
BRANCH   6  15
ATOM     15  C   UNL     1       3.031   4.853  20.353  0.00  0.00    +0.000 C 
BRANCH  15  16
ATOM     16  C   UNL     1       2.260   3.538  20.514  0.00  0.00    +0.000 C 
ATOM     17  C   UNL     1       1.994   3.148  21.967  0.00  0.00    +0.000 C 
ATOM     18  N   UNL     1       1.046   3.439  19.725  0.00  0.00    +0.000 N 
ATOM     19  C   UNL     1       1.021   2.310  18.940  0.00  0.00    +0.000 C 
ATOM     20  O   UNL     1       0.118   1.985  18.192  0.00  0.00    +0.000 OA
ATOM     21  N   UNL     1       2.193   1.653  19.102  0.00  0.00    +0.000 N 
ATOM     22  C   UNL     1       3.048   2.395  19.856  0.00  0.00    +0.000 C 
ATOM     23  O   UNL     1       4.235   2.154  20.013  0.00  0.00    +0.000 OA
ATOM     24  H   UNL     1       0.303   4.128  19.689  0.00  0.00    +0.000 HD
ATOM     25  H   UNL     1       2.459   0.856  18.549  0.00  0.00    +0.000 HD
ENDBRANCH  15  16
ENDBRANCH   6  15
TORSDOF 4
ENDMDL
MODEL 2
REMARK VINA RESULT:      -7.9      2.448      3.979
REMARK  Name = 
REMARK  6 active torsions:
REMARK  status: ('A' for Active; 'I' for Inactive)
REMARK    1  A    between atoms: C_1  and  C_2
REMARK    2  A    between atoms: C_2  and  O_3
REMARK    3  A    between atoms: O_3  and  C_4
REMARK    4  A    between atoms: N_9  and  C_10
REMARK    5  A    between atoms: C_10  and  C_11
REMARK    6  A    between atoms: C_11  and  C_12
REMARK                            x       y       z     vdW  Elec       q    Type
REMARK                         _______ _______ _______ _____ _____    ______ ____
ROOT
ATOM      1  C   UNL     1       7.143   6.827  17.894  0.00  0.00    +0.000 A 
ATOM      2  C   UNL     1       6.484   7.105  16.679  0.00  0.00    +0.000 A 
ATOM      3  C   UNL     1       5.441   6.287  16.215  0.00  0.00    +0.000 A 
ATOM      4  C   UNL     1       5.066   5.202  16.982  0.00  0.00    +0.000 A 
ATOM      5  N   UNL     1       4.049   4.261  16.692  0.00  0.00    +0.000 N 
ATOM      6  N   UNL     1       4.042   3.449  17.869  0.00  0.00    +0.000 N 
ATOM      7  C   UNL     1       5.061   3.772  18.751  0.00  0.00    +0.000 A 
ATOM      8  O   UNL     1       5.354   3.233  19.799  0.00  0.00    +0.000 OA
ATOM      9  C   UNL     1       5.724   4.942  18.179  0.00  0.00    +0.000 A 
ATOM     10  C   UNL     1       6.750   5.730  18.666  0.00  0.00    +0.000 A 
ATOM     11  H   UNL     1       3.162   4.747  16.544  0.00  0.00    +0.000 HD
ENDROOT
BRANCH   1  12
ATOM     12  O   UNL     1       8.172   7.561  18.424  0.00  0.00    +0.000 OA
BRANCH  12  14
ATOM     13  C   UNL     1       9.041   9.698  19.053  0.00  0.00    +0.000 C 
ATOM     14  C   UNL     1       8.298   8.915  17.985  0.00  0.00    +0.000 C 
ENDBRANCH  12  14
ENDBRANCH   1  12
BRANCH   6  15
ATOM     15  C   UNL     1       3.061   2.387  18.017  0.00  0.00    +0.000 C 
BRANCH  15  16
ATOM     16  C   UNL     1       1.966   2.665  19.052  0.00  0.00    +0.000 C 
ATOM     17  C   UNL     1       0.605   2.069  18.690  0.00  0.00    +0.000 C 
ATOM     18  N   UNL     1       2.320   2.342  20.421  0.00  0.00    +0.000 N 
ATOM     19  C   UNL     1       2.138   3.405  21.275  0.00  0.00    +0.000 C 
ATOM     20  O   UNL     1       2.352   3.399  22.473  0.00  0.00    +0.000 OA
ATOM     21  N   UNL     1       1.733   4.471  20.547  0.00  0.00    +0.000 N 
ATOM     22  C   UNL     1       1.786   4.182  19.219  0.00  0.00    +0.000 C 
ATOM     23  O   UNL     1       1.664   4.997  18.316  0.00  0.00    +0.000 OA
ATOM     24  H   UNL     1       2.711   1.464  20.743  0.00  0.00    +0.000 HD
ATOM     25  H   UNL     1       1.640   5.397  20.929  0.00  0.00    +0.000 HD
ENDBRANCH  15  16
ENDBRANCH   6  15
TORSDOF 4
ENDMDL
MODEL 3
REMARK VINA RESULT:      -7.7      1.389      2.202
REMARK  Name = 
REMARK  6 active torsions:
REMARK  status: ('A' for Active; 'I' for Inactive)
REMARK    1  A    between atoms: C_1  and  C_2
REMARK    2  A    between atoms: C_2  and  O_3
REMARK    3  A    between atoms: O_3  and  C_4
REMARK    4  A    between atoms: N_9  and  C_10
REMARK    5  A    between atoms: C_10  and  C_11
REMARK    6  A    between atoms: C_11  and  C_12
REMARK                            x       y       z     vdW  Elec       q    Type
REMARK                         _______ _______ _______ _____ _____    ______ ____
ROOT
ATOM      1  C   UNL     1       6.397   5.089  15.481  0.00  0.00    +0.000 A 
ATOM      2  C   UNL     1       7.368   5.184  16.500  0.00  0.00    +0.000 A 
ATOM      3  C   UNL     1       7.106   4.719  17.799  0.00  0.00    +0.000 A 
ATOM      4  C   UNL     1       5.874   4.156  18.059  0.00  0.00    +0.000 A 
ATOM      5  N   UNL     1       5.415   3.634  19.292  0.00  0.00    +0.000 N 
ATOM      6  N   UNL     1       4.137   3.100  18.941  0.00  0.00    +0.000 N 
ATOM      7  C   UNL     1       3.774   3.390  17.636  0.00  0.00    +0.000 A 
ATOM      8  O   UNL     1       2.736   3.129  17.063  0.00  0.00    +0.000 OA
ATOM      9  C   UNL     1       4.927   4.067  17.045  0.00  0.00    +0.000 A 
ATOM     10  C   UNL     1       5.154   4.509  15.755  0.00  0.00    +0.000 A 
ATOM     11  H   UNL     1       6.064   2.917  19.625  0.00  0.00    +0.000 HD
ENDROOT
BRANCH   1  12
ATOM     12  O   UNL     1       6.557   5.519  14.190  0.00  0.00    +0.000 OA
BRANCH  12  14
ATOM     13  C   UNL     1       6.544   3.835  12.494  0.00  0.00    +0.000 C 
ATOM     14  C   UNL     1       7.410   4.744  13.348  0.00  0.00    +0.000 C 
ENDBRANCH  12  14
ENDBRANCH   1  12
BRANCH   6  15
ATOM     15  C   UNL     1       3.349   2.383  19.929  0.00  0.00    +0.000 C 
BRANCH  15  16
ATOM     16  C   UNL     1       2.384   3.256  20.738  0.00  0.00    +0.000 C 
ATOM     17  C   UNL     1       1.980   2.652  22.082  0.00  0.00    +0.000 C 
ATOM     18  N   UNL     1       2.794   4.638  20.897  0.00  0.00    +0.000 N 
ATOM     19  C   UNL     1       1.825   5.524  20.487  0.00  0.00    +0.000 C 
ATOM     20  O   UNL     1       1.911   6.737  20.522  0.00  0.00    +0.000 OA
ATOM     21  N   UNL     1       0.784   4.816  19.991  0.00  0.00    +0.000 N 
ATOM     22  C   UNL     1       1.102   3.495  19.925  0.00  0.00    +0.000 C 
ATOM     23  O   UNL     1       0.443   2.642  19.350  0.00  0.00    +0.000 OA
ATOM     24  H   UNL     1       3.702   4.956  21.220  0.00  0.00    +0.000 HD
ATOM     25  H   UNL     1      -0.001   5.241  19.527  0.00  0.00    +0.000 HD
ENDBRANCH  15  16
ENDBRANCH   6  15
TORSDOF 4
ENDMDL
MODEL 4
REMARK VINA RESULT:      -7.6      1.421      1.676
REMARK  Name = 
REMARK  6 active torsions:
REMARK  status: ('A' for Active; 'I' for Inactive)
REMARK    1  A    between atoms: C_1  and  C_2
REMARK    2  A    between atoms: C_2  and  O_3
REMARK    3  A    between atoms: O_3  and  C_4
REMARK    4  A    between atoms: N_9  and  C_10
REMARK    5  A    between atoms: C_10  and  C_11
REMARK    6  A    between atoms: C_11  and  C_12
REMARK                            x       y       z     vdW  Elec       q    Type
REMARK                         _______ _______ _______ _____ _____    ______ ____
ROOT
ATOM      1  C   UNL     1       6.442   4.389  14.559  0.00  0.00    +0.000 A 
ATOM      2  C   UNL     1       7.011   5.552  15.118  0.00  0.00    +0.000 A 
ATOM      3  C   UNL     1       6.688   5.965  16.422  0.00  0.00    +0.000 A 
ATOM      4  C   UNL     1       5.802   5.199  17.152  0.00  0.00    +0.000 A 
ATOM      5  N   UNL     1       5.349   5.442  18.471  0.00  0.00    +0.000 N 
ATOM      6  N   UNL     1       4.551   4.285  18.736  0.00  0.00    +0.000 N 
ATOM      7  C   UNL     1       4.409   3.465  17.629  0.00  0.00    +0.000 A 
ATOM      8  O   UNL     1       3.751   2.451  17.517  0.00  0.00    +0.000 OA
ATOM      9  C   UNL     1       5.251   4.053  16.589  0.00  0.00    +0.000 A 
ATOM     10  C   UNL     1       5.552   3.617  15.312  0.00  0.00    +0.000 A 
ATOM     11  H   UNL     1       6.150   5.521  19.102  0.00  0.00    +0.000 HD
ENDROOT
BRANCH   1  12
ATOM     12  O   UNL     1       6.689   3.912  13.299  0.00  0.00    +0.000 OA
BRANCH  12  14
ATOM     13  C   UNL     1       6.040   2.312  11.645  0.00  0.00    +0.000 C 
ATOM     14  C   UNL     1       5.569   3.435  12.553  0.00  0.00    +0.000 C 
ENDBRANCH  12  14
ENDBRANCH   1  12
BRANCH   6  15
ATOM     15  C   UNL     1       3.953   4.097  20.046  0.00  0.00    +0.000 C 
BRANCH  15  16
ATOM     16  C   UNL     1       2.432   4.282  20.091  0.00  0.00    +0.000 C 
ATOM     17  C   UNL     1       1.990   5.712  20.402  0.00  0.00    +0.000 C 
ATOM     18  N   UNL     1       1.717   3.761  18.942  0.00  0.00    +0.000 N 
ATOM     19  C   UNL     1       0.715   2.889  19.298  0.00  0.00    +0.000 C 
ATOM     20  O   UNL     1      -0.037   2.319  18.530  0.00  0.00    +0.000 OA
ATOM     21  N   UNL     1       0.745   2.732  20.642  0.00  0.00    +0.000 N 
ATOM     22  C   UNL     1       1.832   3.361  21.164  0.00  0.00    +0.000 C 
ATOM     23  O   UNL     1       2.228   3.239  22.314  0.00  0.00    +0.000 OA
ATOM     24  H   UNL     1       1.934   3.952  17.970  0.00  0.00    +0.000 HD
ATOM     25  H   UNL     1       0.181   2.058  21.131  0.00  0.00    +0.000 HD
ENDBRANCH  15  16
ENDBRANCH   6  15
TORSDOF 4
ENDMDL
MODEL 5
REMARK VINA RESULT:      -7.4      3.760      7.247
REMARK  Name = 
REMARK  6 active torsions:
REMARK  status: ('A' for Active; 'I' for Inactive)
REMARK    1  A    between atoms: C_1  and  C_2
REMARK    2  A    between atoms: C_2  and  O_3
REMARK    3  A    between atoms: O_3  and  C_4
REMARK    4  A    between atoms: N_9  and  C_10
REMARK    5  A    between atoms: C_10  and  C_11
REMARK    6  A    between atoms: C_11  and  C_12
REMARK                            x       y       z     vdW  Elec       q    Type
REMARK                         _______ _______ _______ _____ _____    ______ ____
ROOT
ATOM      1  C   UNL     1       1.110   9.284  20.001  0.00  0.00    +0.000 A 
ATOM      2  C   UNL     1       1.273   9.921  18.754  0.00  0.00    +0.000 A 
ATOM      3  C   UNL     1       2.030   9.329  17.729  0.00  0.00    +0.000 A 
ATOM      4  C   UNL     1       2.609   8.098  17.967  0.00  0.00    +0.000 A 
ATOM      5  N   UNL     1       3.405   7.341  17.075  0.00  0.00    +0.000 N 
ATOM      6  N   UNL     1       3.625   6.136  17.812  0.00  0.00    +0.000 N 
ATOM      7  C   UNL     1       3.127   6.197  19.103  0.00  0.00    +0.000 A 
ATOM      8  O   UNL     1       3.208   5.367  19.985  0.00  0.00    +0.000 OA
ATOM      9  C   UNL     1       2.437   7.481  19.201  0.00  0.00    +0.000 A 
ATOM     10  C   UNL     1       1.694   8.034  20.228  0.00  0.00    +0.000 A 
ATOM     11  H   UNL     1       2.891   7.182  16.205  0.00  0.00    +0.000 HD
ENDROOT
BRANCH   1  12
ATOM     12  O   UNL     1       0.398   9.784  21.060  0.00  0.00    +0.000 OA
BRANCH  12  14
ATOM     13  C   UNL     1      -0.473   9.584  23.277  0.00  0.00    +0.000 C 
ATOM     14  C   UNL     1      -0.116   8.841  22.001  0.00  0.00    +0.000 C 
ENDBRANCH  12  14
ENDBRANCH   1  12
BRANCH   6  15
ATOM     15  C   UNL     1       4.348   5.032  17.204  0.00  0.00    +0.000 C 
BRANCH  15  16
ATOM     16  C   UNL     1       5.850   5.271  17.020  0.00  0.00    +0.000 C 
ATOM     17  C   UNL     1       6.546   4.216  16.160  0.00  0.00    +0.000 C 
ATOM     18  N   UNL     1       6.210   6.607  16.585  0.00  0.00    +0.000 N 
ATOM     19  C   UNL     1       7.134   7.199  17.414  0.00  0.00    +0.000 C 
ATOM     20  O   UNL     1       7.608   8.310  17.272  0.00  0.00    +0.000 OA
ATOM     21  N   UNL     1       7.385   6.355  18.442  0.00  0.00    +0.000 N 
ATOM     22  C   UNL     1       6.541   5.289  18.393  0.00  0.00    +0.000 C 
ATOM     23  O   UNL     1       6.400   4.463  19.282  0.00  0.00    +0.000 OA
ATOM     24  H   UNL     1       5.809   7.104  15.797  0.00  0.00    +0.000 HD
ATOM     25  H   UNL     1       7.944   6.608  19.239  0.00  0.00    +0.000 HD
ENDBRANCH  15  16
ENDBRANCH   6  15
TORSDOF 4
ENDMDL
MODEL 6
REMARK VINA RESULT:      -7.3      2.273      3.567
REMARK  Name = 
REMARK  6 active torsions:
REMARK  status: ('A' for Active; 'I' for Inactive)
REMARK    1  A    between atoms: C_1  and  C_2
REMARK    2  A    between atoms: C_2  and  O_3
REMARK    3  A    between atoms: O_3  and  C_4
REMARK    4  A    between atoms: N_9  and  C_10
REMARK    5  A    between atoms: C_10  and  C_11
REMARK    6  A    between atoms: C_11  and  C_12
REMARK                            x       y       z     vdW  Elec       q    Type
REMARK                         _______ _______ _______ _____ _____    ______ ____
ROOT
ATOM      1  C   UNL     1       7.058   6.717  16.879  0.00  0.00    +0.000 A 
ATOM      2  C   UNL     1       7.373   5.445  16.358  0.00  0.00    +0.000 A 
ATOM      3  C   UNL     1       6.443   4.393  16.395  0.00  0.00    +0.000 A 
ATOM      4  C   UNL     1       5.201   4.634  16.948  0.00  0.00    +0.000 A 
ATOM      5  N   UNL     1       4.133   3.716  17.082  0.00  0.00    +0.000 N 
ATOM      6  N   UNL     1       3.091   4.537  17.613  0.00  0.00    +0.000 N 
ATOM      7  C   UNL     1       3.518   5.820  17.914  0.00  0.00    +0.000 A 
ATOM      8  O   UNL     1       2.892   6.726  18.427  0.00  0.00    +0.000 OA
ATOM      9  C   UNL     1       4.904   5.894  17.455  0.00  0.00    +0.000 A 
ATOM     10  C   UNL     1       5.794   6.951  17.430  0.00  0.00    +0.000 A 
ATOM     11  H   UNL     1       3.898   3.325  16.166  0.00  0.00    +0.000 HD
ENDROOT
BRANCH   1  12
ATOM     12  O   UNL     1       7.899   7.799  16.894  0.00  0.00    +0.000 OA
BRANCH  12  14
ATOM     13  C   UNL     1       8.747   9.339  18.514  0.00  0.00    +0.000 C 
ATOM     14  C   UNL     1       7.527   8.900  17.724  0.00  0.00    +0.000 C 
ENDBRANCH  12  14
ENDBRANCH   1  12
BRANCH   6  15
ATOM     15  C   UNL     1       1.764   3.985  17.826  0.00  0.00    +0.000 C 
BRANCH  15  16
ATOM     16  C   UNL     1       1.632   3.088  19.062  0.00  0.00    +0.000 C 
ATOM     17  C   UNL     1       0.419   2.159  19.028  0.00  0.00    +0.000 C 
ATOM     18  N   UNL     1       2.832   2.355  19.418  0.00  0.00    +0.000 N 
ATOM     19  C   UNL     1       3.207   2.564  20.725  0.00  0.00    +0.000 C 
ATOM     20  O   UNL     1       4.169   2.064  21.277  0.00  0.00    +0.000 OA
ATOM     21  N   UNL     1       2.355   3.461  21.274  0.00  0.00    +0.000 N 
ATOM     22  C   UNL     1       1.520   3.961  20.322  0.00  0.00    +0.000 C 
ATOM     23  O   UNL     1       0.776   4.918  20.473  0.00  0.00    +0.000 OA
ATOM     24  H   UNL     1       3.389   1.785  18.791  0.00  0.00    +0.000 HD
ATOM     25  H   UNL     1       2.487   3.860  22.187  0.00  0.00    +0.000 HD
ENDBRANCH  15  16
ENDBRANCH   6  15
TORSDOF 4
ENDMDL
MODEL 7
REMARK VINA RESULT:      -7.3      3.178      7.075
REMARK  Name = 
REMARK  6 active torsions:
REMARK  status: ('A' for Active; 'I' for Inactive)
REMARK    1  A    between atoms: C_1  and  C_2
REMARK    2  A    between atoms: C_2  and  O_3
REMARK    3  A    between atoms: O_3  and  C_4
REMARK    4  A    between atoms: N_9  and  C_10
REMARK    5  A    between atoms: C_10  and  C_11
REMARK    6  A    between atoms: C_11  and  C_12
REMARK                            x       y       z     vdW  Elec       q    Type
REMARK                         _______ _______ _______ _____ _____    ______ ____
ROOT
ATOM      1  C   UNL     1       1.401   7.757  20.541  0.00  0.00    +0.000 A 
ATOM      2  C   UNL     1       1.359   6.463  21.101  0.00  0.00    +0.000 A 
ATOM      3  C   UNL     1       1.990   5.377  20.472  0.00  0.00    +0.000 A 
ATOM      4  C   UNL     1       2.663   5.605  19.289  0.00  0.00    +0.000 A 
ATOM      5  N   UNL     1       3.356   4.654  18.503  0.00  0.00    +0.000 N 
ATOM      6  N   UNL     1       3.932   5.467  17.478  0.00  0.00    +0.000 N 
ATOM      7  C   UNL     1       3.517   6.788  17.543  0.00  0.00    +0.000 A 
ATOM      8  O   UNL     1       3.780   7.702  16.788  0.00  0.00    +0.000 OA
ATOM      9  C   UNL     1       2.698   6.887  18.749  0.00  0.00    +0.000 A 
ATOM     10  C   UNL     1       2.093   7.977  19.346  0.00  0.00    +0.000 A 
ATOM     11  H   UNL     1       4.061   4.183  19.074  0.00  0.00    +0.000 HD
ENDROOT
BRANCH   1  12
ATOM     12  O   UNL     1       0.812   8.872  21.076  0.00  0.00    +0.000 OA
BRANCH  12  14
ATOM     13  C   UNL     1      -0.073   9.560  23.188  0.00  0.00    +0.000 C 
ATOM     14  C   UNL     1       1.187   9.229  22.407  0.00  0.00    +0.000 C 
ENDBRANCH  12  14
ENDBRANCH   1  12
BRANCH   6  15
ATOM     15  C   UNL     1       4.812   4.875  16.485  0.00  0.00    +0.000 C 
BRANCH  15  16
ATOM     16  C   UNL     1       6.290   5.254  16.630  0.00  0.00    +0.000 C 
ATOM     17  C   UNL     1       7.244   4.335  15.868  0.00  0.00    +0.000 C 
ATOM     18  N   UNL     1       6.595   6.647  16.362  0.00  0.00    +0.000 N 
ATOM     19  C   UNL     1       7.273   7.245  17.399  0.00  0.00    +0.000 C 
ATOM     20  O   UNL     1       7.653   8.401  17.427  0.00  0.00    +0.000 OA
ATOM     21  N   UNL     1       7.396   6.345  18.402  0.00  0.00    +0.000 N 
ATOM     22  C   UNL     1       6.689   5.219  18.113  0.00  0.00    +0.000 C 
ATOM     23  O   UNL     1       6.455   4.315  18.902  0.00  0.00    +0.000 OA
ATOM     24  H   UNL     1       6.312   7.170  15.541  0.00  0.00    +0.000 HD
ATOM     25  H   UNL     1       7.757   6.579  19.311  0.00  0.00    +0.000 HD
ENDBRANCH  15  16
ENDBRANCH   6  15
TORSDOF 4
ENDMDL
MODEL 8
REMARK VINA RESULT:      -7.2      1.780      2.300
REMARK  Name = 
REMARK  6 active torsions:
REMARK  status: ('A' for Active; 'I' for Inactive)
REMARK    1  A    between atoms: C_1  and  C_2
REMARK    2  A    between atoms: C_2  and  O_3
REMARK    3  A    between atoms: O_3  and  C_4
REMARK    4  A    between atoms: N_9  and  C_10
REMARK    5  A    between atoms: C_10  and  C_11
REMARK    6  A    between atoms: C_11  and  C_12
REMARK                            x       y       z     vdW  Elec       q    Type
REMARK                         _______ _______ _______ _____ _____    ______ ____
ROOT
ATOM      1  C   UNL     1       7.044   4.939  14.858  0.00  0.00    +0.000 A 
ATOM      2  C   UNL     1       6.165   3.935  14.400  0.00  0.00    +0.000 A 
ATOM      3  C   UNL     1       5.290   3.278  15.281  0.00  0.00    +0.000 A 
ATOM      4  C   UNL     1       5.302   3.644  16.612  0.00  0.00    +0.000 A 
ATOM      5  N   UNL     1       4.507   3.107  17.653  0.00  0.00    +0.000 N 
ATOM      6  N   UNL     1       4.868   3.929  18.766  0.00  0.00    +0.000 N 
ATOM      7  C   UNL     1       5.899   4.807  18.474  0.00  0.00    +0.000 A 
ATOM      8  O   UNL     1       6.463   5.585  19.215  0.00  0.00    +0.000 OA
ATOM      9  C   UNL     1       6.172   4.637  17.048  0.00  0.00    +0.000 A 
ATOM     10  C   UNL     1       7.041   5.306  16.207  0.00  0.00    +0.000 A 
ATOM     11  H   UNL     1       3.518   3.188  17.408  0.00  0.00    +0.000 HD
ENDROOT
BRANCH   1  12
ATOM     12  O   UNL     1       7.935   5.628  14.078  0.00  0.00    +0.000 OA
BRANCH  12  14
ATOM     13  C   UNL     1       8.144   6.349  11.808  0.00  0.00    +0.000 C 
ATOM     14  C   UNL     1       8.135   5.155  12.745  0.00  0.00    +0.000 C 
ENDBRANCH  12  14
ENDBRANCH   1  12
BRANCH   6  15
ATOM     15  C   UNL     1       4.200   3.758  20.045  0.00  0.00    +0.000 C 
BRANCH  15  16
ATOM     16  C   UNL     1       2.703   4.084  20.037  0.00  0.00    +0.000 C 
ATOM     17  C   UNL     1       2.388   5.564  20.248  0.00  0.00    +0.000 C 
ATOM     18  N   UNL     1       1.967   3.559  18.902  0.00  0.00    +0.000 N 
ATOM     19  C   UNL     1       0.882   2.805  19.283  0.00  0.00    +0.000 C 
ATOM     20  O   UNL     1       0.097   2.259  18.531  0.00  0.00    +0.000 OA
ATOM     21  N   UNL     1       0.868   2.732  20.635  0.00  0.00    +0.000 N 
ATOM     22  C   UNL     1       1.997   3.290  21.148  0.00  0.00    +0.000 C 
ATOM     23  O   UNL     1       2.356   3.206  22.313  0.00  0.00    +0.000 OA
ATOM     24  H   UNL     1       2.222   3.667  17.927  0.00  0.00    +0.000 HD
ATOM     25  H   UNL     1       0.234   2.144  21.148  0.00  0.00    +0.000 HD
ENDBRANCH  15  16
ENDBRANCH   6  15
TORSDOF 4
ENDMDL
MODEL 9
REMARK VINA RESULT:      -7.2      3.530      6.187
REMARK  Name = 
REMARK  6 active torsions:
REMARK  status: ('A' for Active; 'I' for Inactive)
REMARK    1  A    between atoms: C_1  and  C_2
REMARK    2  A    between atoms: C_2  and  O_3
REMARK    3  A    between atoms: O_3  and  C_4
REMARK    4  A    between atoms: N_9  and  C_10
REMARK    5  A    between atoms: C_10  and  C_11
REMARK    6  A    between atoms: C_11  and  C_12
REMARK                            x       y       z     vdW  Elec       q    Type
REMARK                         _______ _______ _______ _____ _____    ______ ____
ROOT
ATOM      1  C   UNL     1       1.006   9.316  19.820  0.00  0.00    +0.000 A 
ATOM      2  C   UNL     1       1.334   9.511  18.463  0.00  0.00    +0.000 A 
ATOM      3  C   UNL     1       2.085   8.560  17.752  0.00  0.00    +0.000 A 
ATOM      4  C   UNL     1       2.492   7.419  18.412  0.00  0.00    +0.000 A 
ATOM      5  N   UNL     1       3.252   6.349  17.882  0.00  0.00    +0.000 N 
ATOM      6  N   UNL     1       3.271   5.421  18.969  0.00  0.00    +0.000 N 
ATOM      7  C   UNL     1       2.693   5.930  20.120  0.00  0.00    +0.000 A 
ATOM      8  O   UNL     1       2.609   5.414  21.217  0.00  0.00    +0.000 OA
ATOM      9  C   UNL     1       2.158   7.238  19.750  0.00  0.00    +0.000 A 
ATOM     10  C   UNL     1       1.416   8.151  20.476  0.00  0.00    +0.000 A 
ATOM     11  H   UNL     1       2.787   5.974  17.052  0.00  0.00    +0.000 HD
ENDROOT
BRANCH   1  12
ATOM     12  O   UNL     1       0.286  10.187  20.595  0.00  0.00    +0.000 OA
BRANCH  12  14
ATOM     13  C   UNL     1      -0.594  10.054  22.815  0.00  0.00    +0.000 C 
ATOM     14  C   UNL     1       0.649  10.284  21.973  0.00  0.00    +0.000 C 
ENDBRANCH  12  14
ENDBRANCH   1  12
BRANCH   6  15
ATOM     15  C   UNL     1       3.897   4.120  18.805  0.00  0.00    +0.000 C 
BRANCH  15  16
ATOM     16  C   UNL     1       2.993   2.926  19.133  0.00  0.00    +0.000 C 
ATOM     17  C   UNL     1       3.343   1.652  18.365  0.00  0.00    +0.000 C 
ATOM     18  N   UNL     1       2.836   2.647  20.548  0.00  0.00    +0.000 N 
ATOM     19  C   UNL     1       1.515   2.598  20.930  0.00  0.00    +0.000 C 
ATOM     20  O   UNL     1       1.110   2.373  22.055  0.00  0.00    +0.000 OA
ATOM     21  N   UNL     1       0.750   2.894  19.855  0.00  0.00    +0.000 N 
ATOM     22  C   UNL     1       1.533   3.283  18.812  0.00  0.00    +0.000 C 
ATOM     23  O   UNL     1       1.124   3.788  17.778  0.00  0.00    +0.000 OA
ATOM     24  H   UNL     1       3.588   2.545  21.221  0.00  0.00    +0.000 HD
ATOM     25  H   UNL     1      -0.245   3.031  19.907  0.00  0.00    +0.000 HD
ENDBRANCH  15  16
ENDBRANCH   6  15
TORSDOF 4
ENDMDL
