MODEL 1
REMARK VINA RESULT:      -7.6      0.000      0.000
REMARK  Name = 
REMARK  16 active torsions:
REMARK  status: ('A' for Active; 'I' for Inactive)
REMARK    1  A    between atoms: C_1  and  C_2
REMARK    2  A    between atoms: C_2  and  C_3
REMARK    3  A    between atoms: C_4  and  C_5
REMARK    4  A    between atoms: C_5  and  C_6
REMARK    5  A    between atoms: C_6  and  C_7
REMARK    6  A    between atoms: C_7  and  C_8
REMARK    7  A    between atoms: C_9  and  C_10
REMARK    8  A    between atoms: C_10  and  C_11
REMARK    9  A    between atoms: C_11  and  C_12
REMARK   10  A    between atoms: C_12  and  C_13
REMARK   11  A    between atoms: C_14  and  C_15
REMARK   12  A    between atoms: C_15  and  O_16
REMARK   13  A    between atoms: O_16  and  C_17
REMARK   14  A    between atoms: C_21  and  C_22
REMARK   15  A    between atoms: C_23  and  C_24
REMARK   16  A    between atoms: C_24  and  C_26
REMARK                            x       y       z     vdW  Elec       q    Type
REMARK                         _______ _______ _______ _____ _____    ______ ____
ROOT
ATOM      1  O   UNL     1       1.600   7.250  21.138  0.00  0.00    +0.000 OA
ENDROOT
BRANCH   1   2
ATOM      2  C   UNL     1       1.467   8.120  20.083  0.00  0.00    +0.000 A 
ATOM      3  C   UNL     1       2.301   7.897  18.992  0.00  0.00    +0.000 A 
ATOM      4  C   UNL     1       2.266   8.770  17.903  0.00  0.00    +0.000 A 
ATOM      5  C   UNL     1       1.387   9.861  17.899  0.00  0.00    +0.000 A 
ATOM      6  C   UNL     1       0.527  10.089  18.977  0.00  0.00    +0.000 A 
ATOM      7  C   UNL     1       0.591   9.211  20.065  0.00  0.00    +0.000 A 
BRANCH   6   8
ATOM      8  C   UNL     1      -0.363  11.267  18.983  0.00  0.00    +0.000 C 
ATOM      9  C   UNL     1      -1.071  11.666  20.053  0.00  0.00    +0.000 C 
BRANCH   9  10
ATOM     10  C   UNL     1      -1.964  12.861  19.995  0.00  0.00    +0.000 C 
ATOM     11  O   UNL     1      -1.538  14.000  20.021  0.00  0.00    +0.000 OA
BRANCH  10  12
ATOM     12  C   UNL     1      -3.430  12.581  19.945  0.00  0.00    +0.000 A 
ATOM     13  C   UNL     1      -3.944  11.916  18.827  0.00  0.00    +0.000 A 
ATOM     14  C   UNL     1      -5.316  11.667  18.732  0.00  0.00    +0.000 A 
ATOM     15  C   UNL     1      -6.171  12.063  19.760  0.00  0.00    +0.000 A 
ATOM     16  C   UNL     1      -5.661  12.702  20.889  0.00  0.00    +0.000 A 
ATOM     17  C   UNL     1      -4.293  12.967  20.982  0.00  0.00    +0.000 A 
ENDBRANCH  10  12
ENDBRANCH   9  10
ENDBRANCH   6   8
ENDBRANCH   1   2
BRANCH   1  18
ATOM     18  C   UNL     1       2.312   6.053  20.824  0.00  0.00    +0.000 C 
BRANCH  18  21
ATOM     19  C   UNL     1       1.436   3.717  20.611  0.00  0.00    +0.000 C 
ATOM     20  C   UNL     1       2.486   3.243  21.594  0.00  0.00    +0.000 C 
ATOM     21  C   UNL     1       1.361   5.023  20.296  0.00  0.00    +0.000 C 
BRANCH  19  22
ATOM     22  C   UNL     1       0.454   2.746  19.979  0.00  0.00    +0.000 C 
BRANCH  22  23
ATOM     23  C   UNL     1       0.883   2.270  18.599  0.00  0.00    +0.000 C 
BRANCH  23  26
ATOM     24  C   UNL     1       3.128   2.822  17.702  0.00  0.00    +0.000 C 
ATOM     25  C   UNL     1       3.648   1.524  18.290  0.00  0.00    +0.000 C 
ATOM     26  C   UNL     1       1.831   3.159  17.855  0.00  0.00    +0.000 C 
BRANCH  24  27
ATOM     27  C   UNL     1       4.049   3.753  16.941  0.00  0.00    +0.000 C 
BRANCH  27  28
ATOM     28  C   UNL     1       4.323   5.073  17.655  0.00  0.00    +0.000 C 
BRANCH  28  32
ATOM     29  C   UNL     1       7.757   5.765  19.300  0.00  0.00    +0.000 C 
ATOM     30  C   UNL     1       6.581   5.836  18.370  0.00  0.00    +0.000 C 
ATOM     31  C   UNL     1       6.645   6.830  17.240  0.00  0.00    +0.000 C 
ATOM     32  C   UNL     1       5.515   5.050  18.563  0.00  0.00    +0.000 C 
ENDBRANCH  28  32
ENDBRANCH  27  28
ENDBRANCH  24  27
ENDBRANCH  23  26
ENDBRANCH  22  23
ENDBRANCH  19  22
ENDBRANCH  18  21
ENDBRANCH   1  18
TORSDOF 12
ENDMDL
MODEL 2
REMARK VINA RESULT:      -7.5      4.553      7.294
REMARK  Name = 
REMARK  16 active torsions:
REMARK  status: ('A' for Active; 'I' for Inactive)
REMARK    1  A    between atoms: C_1  and  C_2
REMARK    2  A    between atoms: C_2  and  C_3
REMARK    3  A    between atoms: C_4  and  C_5
REMARK    4  A    between atoms: C_5  and  C_6
REMARK    5  A    between atoms: C_6  and  C_7
REMARK    6  A    between atoms: C_7  and  C_8
REMARK    7  A    between atoms: C_9  and  C_10
REMARK    8  A    between atoms: C_10  and  C_11
REMARK    9  A    between atoms: C_11  and  C_12
REMARK   10  A    between atoms: C_12  and  C_13
REMARK   11  A    between atoms: C_14  and  C_15
REMARK   12  A    between atoms: C_15  and  O_16
REMARK   13  A    between atoms: O_16  and  C_17
REMARK   14  A    between atoms: C_21  and  C_22
REMARK   15  A    between atoms: C_23  and  C_24
REMARK   16  A    between atoms: C_24  and  C_26
REMARK                            x       y       z     vdW  Elec       q    Type
REMARK                         _______ _______ _______ _____ _____    ______ ____
ROOT
ATOM      1  O   UNL     1       4.968   6.582  16.375  0.00  0.00    +0.000 OA
ENDROOT
BRANCH   1   2
ATOM      2  C   UNL     1       4.092   6.645  17.431  0.00  0.00    +0.000 A 
ATOM      3  C   UNL     1       3.953   5.485  18.187  0.00  0.00    +0.000 A 
ATOM      4  C   UNL     1       3.041   5.451  19.243  0.00  0.00    +0.000 A 
ATOM      5  C   UNL     1       2.274   6.582  19.553  0.00  0.00    +0.000 A 
ATOM      6  C   UNL     1       2.415   7.763  18.819  0.00  0.00    +0.000 A 
ATOM      7  C   UNL     1       3.323   7.770  17.753  0.00  0.00    +0.000 A 
BRANCH   6   8
ATOM      8  C   UNL     1       1.570   8.935  19.124  0.00  0.00    +0.000 C 
ATOM      9  C   UNL     1       0.782   9.546  18.223  0.00  0.00    +0.000 C 
BRANCH   9  10
ATOM     10  C   UNL     1      -0.042  10.736  18.589  0.00  0.00    +0.000 C 
ATOM     11  O   UNL     1       0.386  11.645  19.273  0.00  0.00    +0.000 OA
BRANCH  10  12
ATOM     12  C   UNL     1      -1.452  10.731  18.097  0.00  0.00    +0.000 A 
ATOM     13  C   UNL     1      -2.374  11.590  18.704  0.00  0.00    +0.000 A 
ATOM     14  C   UNL     1      -3.709  11.588  18.291  0.00  0.00    +0.000 A 
ATOM     15  C   UNL     1      -4.120  10.744  17.259  0.00  0.00    +0.000 A 
ATOM     16  C   UNL     1      -3.200   9.906  16.631  0.00  0.00    +0.000 A 
ATOM     17  C   UNL     1      -1.868   9.894  17.051  0.00  0.00    +0.000 A 
ENDBRANCH  10  12
ENDBRANCH   9  10
ENDBRANCH   6   8
ENDBRANCH   1   2
BRANCH   1  18
ATOM     18  C   UNL     1       6.339   6.461  16.758  0.00  0.00    +0.000 C 
BRANCH  18  21
ATOM     19  C   UNL     1       7.808   8.113  17.932  0.00  0.00    +0.000 C 
ATOM     20  C   UNL     1       8.288   7.015  18.857  0.00  0.00    +0.000 C 
ATOM     21  C   UNL     1       6.930   7.823  16.955  0.00  0.00    +0.000 C 
BRANCH  19  22
ATOM     22  C   UNL     1       8.308   9.540  18.079  0.00  0.00    +0.000 C 
BRANCH  22  23
ATOM     23  C   UNL     1       9.413   9.687  19.114  0.00  0.00    +0.000 C 
BRANCH  23  26
ATOM     24  C   UNL     1      10.384  11.791  19.997  0.00  0.00    +0.000 C 
ATOM     25  C   UNL     1      11.614  11.544  19.144  0.00  0.00    +0.000 C 
ATOM     26  C   UNL     1       9.360  10.912  19.973  0.00  0.00    +0.000 C 
BRANCH  24  27
ATOM     27  C   UNL     1      10.284  13.017  20.881  0.00  0.00    +0.000 C 
BRANCH  27  28
ATOM     28  C   UNL     1       8.866  13.331  21.347  0.00  0.00    +0.000 C 
BRANCH  28  32
ATOM     29  C   UNL     1       8.259  13.547  25.164  0.00  0.00    +0.000 C 
ATOM     30  C   UNL     1       8.350  13.019  23.762  0.00  0.00    +0.000 C 
ATOM     31  C   UNL     1       7.970  11.579  23.532  0.00  0.00    +0.000 C 
ATOM     32  C   UNL     1       8.772  13.806  22.765  0.00  0.00    +0.000 C 
ENDBRANCH  28  32
ENDBRANCH  27  28
ENDBRANCH  24  27
ENDBRANCH  23  26
ENDBRANCH  22  23
ENDBRANCH  19  22
ENDBRANCH  18  21
ENDBRANCH   1  18
TORSDOF 12
ENDMDL
MODEL 3
REMARK VINA RESULT:      -7.2      6.274      9.159
REMARK  Name = 
REMARK  16 active torsions:
REMARK  status: ('A' for Active; 'I' for Inactive)
REMARK    1  A    between atoms: C_1  and  C_2
REMARK    2  A    between atoms: C_2  and  C_3
REMARK    3  A    between atoms: C_4  and  C_5
REMARK    4  A    between atoms: C_5  and  C_6
REMARK    5  A    between atoms: C_6  and  C_7
REMARK    6  A    between atoms: C_7  and  C_8
REMARK    7  A    between atoms: C_9  and  C_10
REMARK    8  A    between atoms: C_10  and  C_11
REMARK    9  A    between atoms: C_11  and  C_12
REMARK   10  A    between atoms: C_12  and  C_13
REMARK   11  A    between atoms: C_14  and  C_15
REMARK   12  A    between atoms: C_15  and  O_16
REMARK   13  A    between atoms: O_16  and  C_17
REMARK   14  A    between atoms: C_21  and  C_22
REMARK   15  A    between atoms: C_23  and  C_24
REMARK   16  A    between atoms: C_24  and  C_26
REMARK                            x       y       z     vdW  Elec       q    Type
REMARK                         _______ _______ _______ _____ _____    ______ ____
ROOT
ATOM      1  O   UNL     1       8.656  10.307  17.862  0.00  0.00    +0.000 OA
ENDROOT
BRANCH   1   2
ATOM      2  C   UNL     1       9.543  11.179  18.446  0.00  0.00    +0.000 A 
ATOM      3  C   UNL     1      10.848  11.147  17.962  0.00  0.00    +0.000 A 
ATOM      4  C   UNL     1      11.822  11.963  18.540  0.00  0.00    +0.000 A 
ATOM      5  C   UNL     1      11.490  12.821  19.597  0.00  0.00    +0.000 A 
ATOM      6  C   UNL     1      10.180  12.882  20.083  0.00  0.00    +0.000 A 
ATOM      7  C   UNL     1       9.224  12.043  19.500  0.00  0.00    +0.000 A 
BRANCH   6   8
ATOM      8  C   UNL     1       9.850  13.755  21.227  0.00  0.00    +0.000 C 
ATOM      9  C   UNL     1       9.209  13.335  22.330  0.00  0.00    +0.000 C 
BRANCH   9  10
ATOM     10  C   UNL     1       8.892  14.270  23.451  0.00  0.00    +0.000 C 
ATOM     11  O   UNL     1       9.422  15.358  23.567  0.00  0.00    +0.000 OA
BRANCH  10  12
ATOM     12  C   UNL     1       7.908  13.774  24.458  0.00  0.00    +0.000 A 
ATOM     13  C   UNL     1       8.387  13.076  25.573  0.00  0.00    +0.000 A 
ATOM     14  C   UNL     1       7.492  12.570  26.518  0.00  0.00    +0.000 A 
ATOM     15  C   UNL     1       6.121  12.775  26.363  0.00  0.00    +0.000 A 
ATOM     16  C   UNL     1       5.639  13.492  25.269  0.00  0.00    +0.000 A 
ATOM     17  C   UNL     1       6.529  13.988  24.314  0.00  0.00    +0.000 A 
ENDBRANCH  10  12
ENDBRANCH   9  10
ENDBRANCH   6   8
ENDBRANCH   1   2
BRANCH   1  18
ATOM     18  C   UNL     1       8.611   9.018  18.476  0.00  0.00    +0.000 C 
BRANCH  18  21
ATOM     19  C   UNL     1       7.570   6.801  17.959  0.00  0.00    +0.000 C 
ATOM     20  C   UNL     1       8.135   6.245  19.249  0.00  0.00    +0.000 C 
ATOM     21  C   UNL     1       7.782   8.091  17.641  0.00  0.00    +0.000 C 
BRANCH  19  22
ATOM     22  C   UNL     1       6.757   5.931  17.016  0.00  0.00    +0.000 C 
BRANCH  22  23
ATOM     23  C   UNL     1       5.583   6.663  16.384  0.00  0.00    +0.000 C 
BRANCH  23  26
ATOM     24  C   UNL     1       3.616   5.475  17.317  0.00  0.00    +0.000 C 
ATOM     25  C   UNL     1       4.162   4.183  16.739  0.00  0.00    +0.000 C 
ATOM     26  C   UNL     1       4.293   6.630  17.143  0.00  0.00    +0.000 C 
BRANCH  24  27
ATOM     27  C   UNL     1       2.315   5.490  18.093  0.00  0.00    +0.000 C 
BRANCH  27  28
ATOM     28  C   UNL     1       1.643   4.125  18.203  0.00  0.00    +0.000 C 
BRANCH  28  32
ATOM     29  C   UNL     1       1.662   2.649  21.781  0.00  0.00    +0.000 C 
ATOM     30  C   UNL     1       2.090   3.033  20.394  0.00  0.00    +0.000 C 
ATOM     31  C   UNL     1       3.470   2.621  19.950  0.00  0.00    +0.000 C 
ATOM     32  C   UNL     1       1.270   3.730  19.599  0.00  0.00    +0.000 C 
ENDBRANCH  28  32
ENDBRANCH  27  28
ENDBRANCH  24  27
ENDBRANCH  23  26
ENDBRANCH  22  23
ENDBRANCH  19  22
ENDBRANCH  18  21
ENDBRANCH   1  18
TORSDOF 12
ENDMDL
MODEL 4
REMARK VINA RESULT:      -7.0      5.492      8.257
REMARK  Name = 
REMARK  16 active torsions:
REMARK  status: ('A' for Active; 'I' for Inactive)
REMARK    1  A    between atoms: C_1  and  C_2
REMARK    2  A    between atoms: C_2  and  C_3
REMARK    3  A    between atoms: C_4  and  C_5
REMARK    4  A    between atoms: C_5  and  C_6
REMARK    5  A    between atoms: C_6  and  C_7
REMARK    6  A    between atoms: C_7  and  C_8
REMARK    7  A    between atoms: C_9  and  C_10
REMARK    8  A    between atoms: C_10  and  C_11
REMARK    9  A    between atoms: C_11  and  C_12
REMARK   10  A    between atoms: C_12  and  C_13
REMARK   11  A    between atoms: C_14  and  C_15
REMARK   12  A    between atoms: C_15  and  O_16
REMARK   13  A    between atoms: O_16  and  C_17
REMARK   14  A    between atoms: C_21  and  C_22
REMARK   15  A    between atoms: C_23  and  C_24
REMARK   16  A    between atoms: C_24  and  C_26
REMARK                            x       y       z     vdW  Elec       q    Type
REMARK                         _______ _______ _______ _____ _____    ______ ____
ROOT
ATOM      1  O   UNL     1       4.570   6.677  16.908  0.00  0.00    +0.000 OA
ENDROOT
BRANCH   1   2
ATOM      2  C   UNL     1       5.815   6.918  17.436  0.00  0.00    +0.000 A 
ATOM      3  C   UNL     1       6.390   5.878  18.160  0.00  0.00    +0.000 A 
ATOM      4  C   UNL     1       7.629   6.063  18.775  0.00  0.00    +0.000 A 
ATOM      5  C   UNL     1       8.303   7.287  18.656  0.00  0.00    +0.000 A 
ATOM      6  C   UNL     1       7.751   8.336  17.916  0.00  0.00    +0.000 A 
ATOM      7  C   UNL     1       6.500   8.134  17.322  0.00  0.00    +0.000 A 
BRANCH   6   8
ATOM      8  C   UNL     1       8.446   9.636  17.834  0.00  0.00    +0.000 C 
ATOM      9  C   UNL     1       9.307  10.085  18.762  0.00  0.00    +0.000 C 
BRANCH   9  10
ATOM     10  C   UNL     1       9.972  11.416  18.630  0.00  0.00    +0.000 C 
ATOM     11  O   UNL     1      10.757  11.671  17.737  0.00  0.00    +0.000 OA
BRANCH  10  12
ATOM     12  C   UNL     1       9.648  12.417  19.689  0.00  0.00    +0.000 A 
ATOM     13  C   UNL     1       9.830  12.056  21.028  0.00  0.00    +0.000 A 
ATOM     14  C   UNL     1       9.506  12.957  22.045  0.00  0.00    +0.000 A 
ATOM     15  C   UNL     1       9.019  14.225  21.728  0.00  0.00    +0.000 A 
ATOM     16  C   UNL     1       8.860  14.601  20.395  0.00  0.00    +0.000 A 
ATOM     17  C   UNL     1       9.169  13.698  19.375  0.00  0.00    +0.000 A 
ENDBRANCH  10  12
ENDBRANCH   9  10
ENDBRANCH   6   8
ENDBRANCH   1   2
BRANCH   1  18
ATOM     18  C   UNL     1       3.489   7.112  17.734  0.00  0.00    +0.000 C 
BRANCH  18  21
ATOM     19  C   UNL     1       2.329   5.208  18.872  0.00  0.00    +0.000 C 
ATOM     20  C   UNL     1       3.227   5.392  20.077  0.00  0.00    +0.000 C 
ATOM     21  C   UNL     1       2.453   6.034  17.817  0.00  0.00    +0.000 C 
BRANCH  19  22
ATOM     22  C   UNL     1       1.277   4.112  18.835  0.00  0.00    +0.000 C 
BRANCH  22  23
ATOM     23  C   UNL     1       1.764   2.834  18.169  0.00  0.00    +0.000 C 
BRANCH  23  26
ATOM     24  C   UNL     1       4.178   2.778  17.603  0.00  0.00    +0.000 C 
ATOM     25  C   UNL     1       4.474   2.401  19.041  0.00  0.00    +0.000 C 
ATOM     26  C   UNL     1       2.903   2.979  17.208  0.00  0.00    +0.000 C 
BRANCH  24  27
ATOM     27  C   UNL     1       5.297   2.936  16.594  0.00  0.00    +0.000 C 
BRANCH  27  28
ATOM     28  C   UNL     1       4.938   3.817  15.402  0.00  0.00    +0.000 C 
BRANCH  28  32
ATOM     29  C   UNL     1       7.568   4.810  12.743  0.00  0.00    +0.000 C 
ATOM     30  C   UNL     1       6.365   4.199  13.400  0.00  0.00    +0.000 C 
ATOM     31  C   UNL     1       5.453   3.360  12.543  0.00  0.00    +0.000 C 
ATOM     32  C   UNL     1       6.116   4.416  14.697  0.00  0.00    +0.000 C 
ENDBRANCH  28  32
ENDBRANCH  27  28
ENDBRANCH  24  27
ENDBRANCH  23  26
ENDBRANCH  22  23
ENDBRANCH  19  22
ENDBRANCH  18  21
ENDBRANCH   1  18
TORSDOF 12
ENDMDL
MODEL 5
REMARK VINA RESULT:      -7.0      2.135     10.433
REMARK  Name = 
REMARK  16 active torsions:
REMARK  status: ('A' for Active; 'I' for Inactive)
REMARK    1  A    between atoms: C_1  and  C_2
REMARK    2  A    between atoms: C_2  and  C_3
REMARK    3  A    between atoms: C_4  and  C_5
REMARK    4  A    between atoms: C_5  and  C_6
REMARK    5  A    between atoms: C_6  and  C_7
REMARK    6  A    between atoms: C_7  and  C_8
REMARK    7  A    between atoms: C_9  and  C_10
REMARK    8  A    between atoms: C_10  and  C_11
REMARK    9  A    between atoms: C_11  and  C_12
REMARK   10  A    between atoms: C_12  and  C_13
REMARK   11  A    between atoms: C_14  and  C_15
REMARK   12  A    between atoms: C_15  and  O_16
REMARK   13  A    between atoms: O_16  and  C_17
REMARK   14  A    between atoms: C_21  and  C_22
REMARK   15  A    between atoms: C_23  and  C_24
REMARK   16  A    between atoms: C_24  and  C_26
REMARK                            x       y       z     vdW  Elec       q    Type
REMARK                         _______ _______ _______ _____ _____    ______ ____
ROOT
ATOM      1  O   UNL     1      -2.241  11.438  18.850  0.00  0.00    +0.000 OA
ENDROOT
BRANCH   1   2
ATOM      2  C   UNL     1      -0.883  11.299  18.698  0.00  0.00    +0.000 A 
ATOM      3  C   UNL     1      -0.131  12.467  18.787  0.00  0.00    +0.000 A 
ATOM      4  C   UNL     1       1.250  12.419  18.589  0.00  0.00    +0.000 A 
ATOM      5  C   UNL     1       1.884  11.199  18.314  0.00  0.00    +0.000 A 
ATOM      6  C   UNL     1       1.148  10.013  18.241  0.00  0.00    +0.000 A 
ATOM      7  C   UNL     1      -0.238  10.087  18.426  0.00  0.00    +0.000 A 
BRANCH   6   8
ATOM      8  C   UNL     1       1.817   8.741  17.905  0.00  0.00    +0.000 C 
ATOM      9  C   UNL     1       2.223   7.843  18.819  0.00  0.00    +0.000 C 
BRANCH   9  10
ATOM     10  C   UNL     1       2.905   6.577  18.418  0.00  0.00    +0.000 C 
ATOM     11  O   UNL     1       3.927   6.563  17.760  0.00  0.00    +0.000 OA
BRANCH  10  12
ATOM     12  C   UNL     1       2.235   5.311  18.839  0.00  0.00    +0.000 A 
ATOM     13  C   UNL     1       2.096   4.284  17.899  0.00  0.00    +0.000 A 
ATOM     14  C   UNL     1       1.444   3.099  18.249  0.00  0.00    +0.000 A 
ATOM     15  C   UNL     1       0.949   2.929  19.542  0.00  0.00    +0.000 A 
ATOM     16  C   UNL     1       1.109   3.937  20.491  0.00  0.00    +0.000 A 
ATOM     17  C   UNL     1       1.746   5.130  20.141  0.00  0.00    +0.000 A 
ENDBRANCH  10  12
ENDBRANCH   9  10
ENDBRANCH   6   8
ENDBRANCH   1   2
BRANCH   1  18
ATOM     18  C   UNL     1      -3.009  10.898  17.774  0.00  0.00    +0.000 C 
BRANCH  18  21
ATOM     19  C   UNL     1      -5.497  11.144  17.892  0.00  0.00    +0.000 C 
ATOM     20  C   UNL     1      -5.427  12.262  16.875  0.00  0.00    +0.000 C 
ATOM     21  C   UNL     1      -4.370  10.514  18.268  0.00  0.00    +0.000 C 
BRANCH  19  22
ATOM     22  C   UNL     1      -6.823  10.709  18.494  0.00  0.00    +0.000 C 
BRANCH  22  23
ATOM     23  C   UNL     1      -7.189  11.473  19.758  0.00  0.00    +0.000 C 
BRANCH  23  26
ATOM     24  C   UNL     1      -6.309  13.218  21.284  0.00  0.00    +0.000 C 
ATOM     25  C   UNL     1      -7.012  12.522  22.434  0.00  0.00    +0.000 C 
ATOM     26  C   UNL     1      -6.401  12.715  20.035  0.00  0.00    +0.000 C 
BRANCH  24  27
ATOM     27  C   UNL     1      -5.499  14.477  21.516  0.00  0.00    +0.000 C 
BRANCH  27  28
ATOM     28  C   UNL     1      -4.018  14.222  21.778  0.00  0.00    +0.000 C 
BRANCH  28  32
ATOM     29  C   UNL     1      -2.904  14.858  25.429  0.00  0.00    +0.000 C 
ATOM     30  C   UNL     1      -3.421  14.182  24.194  0.00  0.00    +0.000 C 
ATOM     31  C   UNL     1      -3.829  12.735  24.308  0.00  0.00    +0.000 C 
ATOM     32  C   UNL     1      -3.496  14.847  23.035  0.00  0.00    +0.000 C 
ENDBRANCH  28  32
ENDBRANCH  27  28
ENDBRANCH  24  27
ENDBRANCH  23  26
ENDBRANCH  22  23
ENDBRANCH  19  22
ENDBRANCH  18  21
ENDBRANCH   1  18
TORSDOF 12
ENDMDL
MODEL 6
REMARK VINA RESULT:      -7.0      2.944      4.582
REMARK  Name = 
REMARK  16 active torsions:
REMARK  status: ('A' for Active; 'I' for Inactive)
REMARK    1  A    between atoms: C_1  and  C_2
REMARK    2  A    between atoms: C_2  and  C_3
REMARK    3  A    between atoms: C_4  and  C_5
REMARK    4  A    between atoms: C_5  and  C_6
REMARK    5  A    between atoms: C_6  and  C_7
REMARK    6  A    between atoms: C_7  and  C_8
REMARK    7  A    between atoms: C_9  and  C_10
REMARK    8  A    between atoms: C_10  and  C_11
REMARK    9  A    between atoms: C_11  and  C_12
REMARK   10  A    between atoms: C_12  and  C_13
REMARK   11  A    between atoms: C_14  and  C_15
REMARK   12  A    between atoms: C_15  and  O_16
REMARK   13  A    between atoms: O_16  and  C_17
REMARK   14  A    between atoms: C_21  and  C_22
REMARK   15  A    between atoms: C_23  and  C_24
REMARK   16  A    between atoms: C_24  and  C_26
REMARK                            x       y       z     vdW  Elec       q    Type
REMARK                         _______ _______ _______ _____ _____    ______ ____
ROOT
ATOM      1  O   UNL     1       1.735   7.542  20.314  0.00  0.00    +0.000 OA
ENDROOT
BRANCH   1   2
ATOM      2  C   UNL     1       1.026   8.588  20.854  0.00  0.00    +0.000 A 
ATOM      3  C   UNL     1       0.330   8.319  22.028  0.00  0.00    +0.000 A 
ATOM      4  C   UNL     1      -0.459   9.314  22.610  0.00  0.00    +0.000 A 
ATOM      5  C   UNL     1      -0.543  10.583  22.023  0.00  0.00    +0.000 A 
ATOM      6  C   UNL     1       0.165  10.878  20.854  0.00  0.00    +0.000 A 
ATOM      7  C   UNL     1       0.937   9.861  20.280  0.00  0.00    +0.000 A 
BRANCH   6   8
ATOM      8  C   UNL     1       0.034  12.204  20.218  0.00  0.00    +0.000 C 
ATOM      9  C   UNL     1       1.035  12.831  19.579  0.00  0.00    +0.000 C 
BRANCH   9  10
ATOM     10  C   UNL     1       0.845  14.179  18.964  0.00  0.00    +0.000 C 
ATOM     11  O   UNL     1      -0.215  14.538  18.488  0.00  0.00    +0.000 OA
BRANCH  10  12
ATOM     12  C   UNL     1       2.051  15.058  18.927  0.00  0.00    +0.000 A 
ATOM     13  C   UNL     1       2.203  16.025  19.927  0.00  0.00    +0.000 A 
ATOM     14  C   UNL     1       3.302  16.887  19.904  0.00  0.00    +0.000 A 
ATOM     15  C   UNL     1       4.261  16.770  18.898  0.00  0.00    +0.000 A 
ATOM     16  C   UNL     1       4.130  15.791  17.915  0.00  0.00    +0.000 A 
ATOM     17  C   UNL     1       3.025  14.937  17.925  0.00  0.00    +0.000 A 
ENDBRANCH  10  12
ENDBRANCH   9  10
ENDBRANCH   6   8
ENDBRANCH   1   2
BRANCH   1  18
ATOM     18  C   UNL     1       1.351   6.258  20.806  0.00  0.00    +0.000 C 
BRANCH  18  21
ATOM     19  C   UNL     1       2.347   3.967  20.651  0.00  0.00    +0.000 C 
ATOM     20  C   UNL     1       0.957   3.369  20.698  0.00  0.00    +0.000 C 
ATOM     21  C   UNL     1       2.498   5.303  20.674  0.00  0.00    +0.000 C 
BRANCH  19  22
ATOM     22  C   UNL     1       3.581   3.085  20.567  0.00  0.00    +0.000 C 
BRANCH  22  23
ATOM     23  C   UNL     1       3.691   2.329  19.251  0.00  0.00    +0.000 C 
BRANCH  23  26
ATOM     24  C   UNL     1       3.955   3.701  17.203  0.00  0.00    +0.000 C 
ATOM     25  C   UNL     1       2.449   3.883  17.168  0.00  0.00    +0.000 C 
ATOM     26  C   UNL     1       4.523   2.970  18.185  0.00  0.00    +0.000 C 
BRANCH  24  27
ATOM     27  C   UNL     1       4.838   4.331  16.145  0.00  0.00    +0.000 C 
BRANCH  27  28
ATOM     28  C   UNL     1       6.319   4.356  16.509  0.00  0.00    +0.000 C 
BRANCH  28  32
ATOM     29  C   UNL     1       7.809   7.704  17.753  0.00  0.00    +0.000 C 
ATOM     30  C   UNL     1       7.225   6.322  17.737  0.00  0.00    +0.000 C 
ATOM     31  C   UNL     1       7.022   5.635  19.063  0.00  0.00    +0.000 C 
ATOM     32  C   UNL     1       6.917   5.728  16.578  0.00  0.00    +0.000 C 
ENDBRANCH  28  32
ENDBRANCH  27  28
ENDBRANCH  24  27
ENDBRANCH  23  26
ENDBRANCH  22  23
ENDBRANCH  19  22
ENDBRANCH  18  21
ENDBRANCH   1  18
TORSDOF 12
ENDMDL
MODEL 7
REMARK VINA RESULT:      -7.0      2.460     10.889
REMARK  Name = 
REMARK  16 active torsions:
REMARK  status: ('A' for Active; 'I' for Inactive)
REMARK    1  A    between atoms: C_1  and  C_2
REMARK    2  A    between atoms: C_2  and  C_3
REMARK    3  A    between atoms: C_4  and  C_5
REMARK    4  A    between atoms: C_5  and  C_6
REMARK    5  A    between atoms: C_6  and  C_7
REMARK    6  A    between atoms: C_7  and  C_8
REMARK    7  A    between atoms: C_9  and  C_10
REMARK    8  A    between atoms: C_10  and  C_11
REMARK    9  A    between atoms: C_11  and  C_12
REMARK   10  A    between atoms: C_12  and  C_13
REMARK   11  A    between atoms: C_14  and  C_15
REMARK   12  A    between atoms: C_15  and  O_16
REMARK   13  A    between atoms: O_16  and  C_17
REMARK   14  A    between atoms: C_21  and  C_22
REMARK   15  A    between atoms: C_23  and  C_24
REMARK   16  A    between atoms: C_24  and  C_26
REMARK                            x       y       z     vdW  Elec       q    Type
REMARK                         _______ _______ _______ _____ _____    ______ ____
ROOT
ATOM      1  O   UNL     1      -0.024  11.905  19.669  0.00  0.00    +0.000 OA
ENDROOT
BRANCH   1   2
ATOM      2  C   UNL     1       0.225  10.714  20.307  0.00  0.00    +0.000 A 
ATOM      3  C   UNL     1      -0.302  10.579  21.588  0.00  0.00    +0.000 A 
ATOM      4  C   UNL     1      -0.047   9.421  22.324  0.00  0.00    +0.000 A 
ATOM      5  C   UNL     1       0.727   8.390  21.775  0.00  0.00    +0.000 A 
ATOM      6  C   UNL     1       1.249   8.499  20.482  0.00  0.00    +0.000 A 
ATOM      7  C   UNL     1       0.994   9.676  19.769  0.00  0.00    +0.000 A 
BRANCH   6   8
ATOM      8  C   UNL     1       2.101   7.427  19.930  0.00  0.00    +0.000 C 
ATOM      9  C   UNL     1       2.473   7.354  18.641  0.00  0.00    +0.000 C 
BRANCH   9  10
ATOM     10  C   UNL     1       3.329   6.239  18.139  0.00  0.00    +0.000 C 
ATOM     11  O   UNL     1       4.322   6.427  17.463  0.00  0.00    +0.000 OA
BRANCH  10  12
ATOM     12  C   UNL     1       2.873   4.859  18.482  0.00  0.00    +0.000 A 
ATOM     13  C   UNL     1       3.686   4.072  19.305  0.00  0.00    +0.000 A 
ATOM     14  C   UNL     1       3.306   2.765  19.619  0.00  0.00    +0.000 A 
ATOM     15  C   UNL     1       2.106   2.249  19.129  0.00  0.00    +0.000 A 
ATOM     16  C   UNL     1       1.279   3.036  18.330  0.00  0.00    +0.000 A 
ATOM     17  C   UNL     1       1.662   4.339  18.002  0.00  0.00    +0.000 A 
ENDBRANCH  10  12
ENDBRANCH   9  10
ENDBRANCH   6   8
ENDBRANCH   1   2
BRANCH   1  18
ATOM     18  C   UNL     1      -0.284  11.778  18.271  0.00  0.00    +0.000 C 
BRANCH  18  21
ATOM     19  C   UNL     1      -2.538  11.153  17.379  0.00  0.00    +0.000 C 
ATOM     20  C   UNL     1      -1.993   9.802  16.970  0.00  0.00    +0.000 C 
ATOM     21  C   UNL     1      -1.735  12.035  18.002  0.00  0.00    +0.000 C 
BRANCH  19  22
ATOM     22  C   UNL     1      -3.984  11.534  17.107  0.00  0.00    +0.000 C 
BRANCH  22  23
ATOM     23  C   UNL     1      -4.968  10.874  18.061  0.00  0.00    +0.000 C 
BRANCH  23  26
ATOM     24  C   UNL     1      -6.337  12.401  19.456  0.00  0.00    +0.000 C 
ATOM     25  C   UNL     1      -5.178  12.499  20.430  0.00  0.00    +0.000 C 
ATOM     26  C   UNL     1      -6.224  11.636  18.350  0.00  0.00    +0.000 C 
BRANCH  24  27
ATOM     27  C   UNL     1      -7.628  13.154  19.706  0.00  0.00    +0.000 C 
BRANCH  27  28
ATOM     28  C   UNL     1      -7.905  14.261  18.693  0.00  0.00    +0.000 C 
BRANCH  28  32
ATOM     29  C   UNL     1      -6.065  17.642  18.296  0.00  0.00    +0.000 C 
ATOM     30  C   UNL     1      -6.812  16.379  17.980  0.00  0.00    +0.000 C 
ATOM     31  C   UNL     1      -7.151  16.112  16.536  0.00  0.00    +0.000 C 
ATOM     32  C   UNL     1      -7.172  15.540  18.958  0.00  0.00    +0.000 C 
ENDBRANCH  28  32
ENDBRANCH  27  28
ENDBRANCH  24  27
ENDBRANCH  23  26
ENDBRANCH  22  23
ENDBRANCH  19  22
ENDBRANCH  18  21
ENDBRANCH   1  18
TORSDOF 12
ENDMDL
MODEL 8
REMARK VINA RESULT:      -7.0      4.508      7.646
REMARK  Name = 
REMARK  16 active torsions:
REMARK  status: ('A' for Active; 'I' for Inactive)
REMARK    1  A    between atoms: C_1  and  C_2
REMARK    2  A    between atoms: C_2  and  C_3
REMARK    3  A    between atoms: C_4  and  C_5
REMARK    4  A    between atoms: C_5  and  C_6
REMARK    5  A    between atoms: C_6  and  C_7
REMARK    6  A    between atoms: C_7  and  C_8
REMARK    7  A    between atoms: C_9  and  C_10
REMARK    8  A    between atoms: C_10  and  C_11
REMARK    9  A    between atoms: C_11  and  C_12
REMARK   10  A    between atoms: C_12  and  C_13
REMARK   11  A    between atoms: C_14  and  C_15
REMARK   12  A    between atoms: C_15  and  O_16
REMARK   13  A    between atoms: O_16  and  C_17
REMARK   14  A    between atoms: C_21  and  C_22
REMARK   15  A    between atoms: C_23  and  C_24
REMARK   16  A    between atoms: C_24  and  C_26
REMARK                            x       y       z     vdW  Elec       q    Type
REMARK                         _______ _______ _______ _____ _____    ______ ____
ROOT
ATOM      1  O   UNL     1       5.672   6.341  15.965  0.00  0.00    +0.000 OA
ENDROOT
BRANCH   1   2
ATOM      2  C   UNL     1       4.557   6.205  16.756  0.00  0.00    +0.000 A 
ATOM      3  C   UNL     1       4.260   4.915  17.184  0.00  0.00    +0.000 A 
ATOM      4  C   UNL     1       3.113   4.684  17.945  0.00  0.00    +0.000 A 
ATOM      5  C   UNL     1       2.267   5.747  18.290  0.00  0.00    +0.000 A 
ATOM      6  C   UNL     1       2.560   7.053  17.887  0.00  0.00    +0.000 A 
ATOM      7  C   UNL     1       3.707   7.259  17.110  0.00  0.00    +0.000 A 
BRANCH   6   8
ATOM      8  C   UNL     1       1.639   8.159  18.216  0.00  0.00    +0.000 C 
ATOM      9  C   UNL     1       1.993   9.243  18.926  0.00  0.00    +0.000 C 
BRANCH   9  10
ATOM     10  C   UNL     1       1.013  10.326  19.237  0.00  0.00    +0.000 C 
ATOM     11  O   UNL     1       0.718  11.193  18.437  0.00  0.00    +0.000 OA
BRANCH  10  12
ATOM     12  C   UNL     1       0.436  10.310  20.614  0.00  0.00    +0.000 A 
ATOM     13  C   UNL     1       0.615   9.167  21.400  0.00  0.00    +0.000 A 
ATOM     14  C   UNL     1       0.061   9.106  22.681  0.00  0.00    +0.000 A 
ATOM     15  C   UNL     1      -0.655  10.192  23.186  0.00  0.00    +0.000 A 
ATOM     16  C   UNL     1      -0.813  11.344  22.418  0.00  0.00    +0.000 A 
ATOM     17  C   UNL     1      -0.273  11.404  21.131  0.00  0.00    +0.000 A 
ENDBRANCH  10  12
ENDBRANCH   9  10
ENDBRANCH   6   8
ENDBRANCH   1   2
BRANCH   1  18
ATOM     18  C   UNL     1       6.907   6.300  16.680  0.00  0.00    +0.000 C 
BRANCH  18  21
ATOM     19  C   UNL     1       8.057   8.071  18.025  0.00  0.00    +0.000 C 
ATOM     20  C   UNL     1       8.377   7.044  19.089  0.00  0.00    +0.000 C 
ATOM     21  C   UNL     1       7.403   7.695  16.911  0.00  0.00    +0.000 C 
BRANCH  19  22
ATOM     22  C   UNL     1       8.472   9.524  18.184  0.00  0.00    +0.000 C 
BRANCH  22  23
ATOM     23  C   UNL     1       9.403   9.758  19.364  0.00  0.00    +0.000 C 
BRANCH  23  26
ATOM     24  C   UNL     1      10.323  12.029  19.748  0.00  0.00    +0.000 C 
ATOM     25  C   UNL     1      11.482  11.680  18.834  0.00  0.00    +0.000 C 
ATOM     26  C   UNL     1       9.356  11.118  19.988  0.00  0.00    +0.000 C 
BRANCH  24  27
ATOM     27  C   UNL     1      10.232  13.393  20.402  0.00  0.00    +0.000 C 
BRANCH  27  28
ATOM     28  C   UNL     1       9.661  13.365  21.816  0.00  0.00    +0.000 C 
BRANCH  28  32
ATOM     29  C   UNL     1       5.882  13.648  22.602  0.00  0.00    +0.000 C 
ATOM     30  C   UNL     1       7.290  13.133  22.536  0.00  0.00    +0.000 C 
ATOM     31  C   UNL     1       7.582  11.812  23.201  0.00  0.00    +0.000 C 
ATOM     32  C   UNL     1       8.245  13.842  21.921  0.00  0.00    +0.000 C 
ENDBRANCH  28  32
ENDBRANCH  27  28
ENDBRANCH  24  27
ENDBRANCH  23  26
ENDBRANCH  22  23
ENDBRANCH  19  22
ENDBRANCH  18  21
ENDBRANCH   1  18
TORSDOF 12
ENDMDL
MODEL 9
REMARK VINA RESULT:      -6.9      2.801      3.554
REMARK  Name = 
REMARK  16 active torsions:
REMARK  status: ('A' for Active; 'I' for Inactive)
REMARK    1  A    between atoms: C_1  and  C_2
REMARK    2  A    between atoms: C_2  and  C_3
REMARK    3  A    between atoms: C_4  and  C_5
REMARK    4  A    between atoms: C_5  and  C_6
REMARK    5  A    between atoms: C_6  and  C_7
REMARK    6  A    between atoms: C_7  and  C_8
REMARK    7  A    between atoms: C_9  and  C_10
REMARK    8  A    between atoms: C_10  and  C_11
REMARK    9  A    between atoms: C_11  and  C_12
REMARK   10  A    between atoms: C_12  and  C_13
REMARK   11  A    between atoms: C_14  and  C_15
REMARK   12  A    between atoms: C_15  and  O_16
REMARK   13  A    between atoms: O_16  and  C_17
REMARK   14  A    between atoms: C_21  and  C_22
REMARK   15  A    between atoms: C_23  and  C_24
REMARK   16  A    between atoms: C_24  and  C_26
REMARK                            x       y       z     vdW  Elec       q    Type
REMARK                         _______ _______ _______ _____ _____    ______ ____
ROOT
ATOM      1  O   UNL     1       1.964   6.983  19.992  0.00  0.00    +0.000 OA
ENDROOT
BRANCH   1   2
ATOM      2  C   UNL     1       1.361   8.142  20.418  0.00  0.00    +0.000 A 
ATOM      3  C   UNL     1       0.570   8.041  21.558  0.00  0.00    +0.000 A 
ATOM      4  C   UNL     1      -0.121   9.161  22.024  0.00  0.00    +0.000 A 
ATOM      5  C   UNL     1      -0.012  10.388  21.356  0.00  0.00    +0.000 A 
ATOM      6  C   UNL     1       0.794  10.514  20.221  0.00  0.00    +0.000 A 
ATOM      7  C   UNL     1       1.465   9.374  19.762  0.00  0.00    +0.000 A 
BRANCH   6   8
ATOM      8  C   UNL     1       0.867  11.799  19.497  0.00  0.00    +0.000 C 
ATOM      9  C   UNL     1       1.739  12.777  19.792  0.00  0.00    +0.000 C 
BRANCH   9  10
ATOM     10  C   UNL     1       1.757  14.061  19.030  0.00  0.00    +0.000 C 
ATOM     11  O   UNL     1       2.495  14.251  18.083  0.00  0.00    +0.000 OA
BRANCH  10  12
ATOM     12  C   UNL     1       0.837  15.128  19.524  0.00  0.00    +0.000 A 
ATOM     13  C   UNL     1       0.981  15.577  20.841  0.00  0.00    +0.000 A 
ATOM     14  C   UNL     1       0.116  16.550  21.347  0.00  0.00    +0.000 A 
ATOM     15  C   UNL     1      -0.880  17.092  20.533  0.00  0.00    +0.000 A 
ATOM     16  C   UNL     1      -1.011  16.668  19.212  0.00  0.00    +0.000 A 
ATOM     17  C   UNL     1      -0.158  15.685  18.707  0.00  0.00    +0.000 A 
ENDBRANCH  10  12
ENDBRANCH   9  10
ENDBRANCH   6   8
ENDBRANCH   1   2
BRANCH   1  18
ATOM     18  C   UNL     1       1.566   5.816  20.712  0.00  0.00    +0.000 C 
BRANCH  18  21
ATOM     19  C   UNL     1       1.482   3.375  20.167  0.00  0.00    +0.000 C 
ATOM     20  C   UNL     1       1.598   3.050  21.640  0.00  0.00    +0.000 C 
ATOM     21  C   UNL     1       1.442   4.659  19.769  0.00  0.00    +0.000 C 
BRANCH  19  22
ATOM     22  C   UNL     1       1.400   2.274  19.122  0.00  0.00    +0.000 C 
BRANCH  22  23
ATOM     23  C   UNL     1       2.759   1.851  18.586  0.00  0.00    +0.000 C 
BRANCH  23  26
ATOM     24  C   UNL     1       4.522   3.576  18.331  0.00  0.00    +0.000 C 
ATOM     25  C   UNL     1       3.979   3.881  16.947  0.00  0.00    +0.000 C 
ATOM     26  C   UNL     1       3.940   2.622  19.087  0.00  0.00    +0.000 C 
BRANCH  24  27
ATOM     27  C   UNL     1       5.715   4.331  18.881  0.00  0.00    +0.000 C 
BRANCH  27  28
ATOM     28  C   UNL     1       6.821   4.570  17.859  0.00  0.00    +0.000 C 
BRANCH  28  32
ATOM     29  C   UNL     1       7.891   8.287  17.714  0.00  0.00    +0.000 C 
ATOM     30  C   UNL     1       7.110   7.019  17.524  0.00  0.00    +0.000 C 
ATOM     31  C   UNL     1       5.813   7.106  16.763  0.00  0.00    +0.000 C 
ATOM     32  C   UNL     1       7.556   5.865  18.033  0.00  0.00    +0.000 C 
ENDBRANCH  28  32
ENDBRANCH  27  28
ENDBRANCH  24  27
ENDBRANCH  23  26
ENDBRANCH  22  23
ENDBRANCH  19  22
ENDBRANCH  18  21
ENDBRANCH   1  18
TORSDOF 12
ENDMDL
