MODEL 1
REMARK VINA RESULT:      -7.6      0.000      0.000
REMARK  Name = 
REMARK  7 active torsions:
REMARK  status: ('A' for Active; 'I' for Inactive)
REMARK    1  A    between atoms: C_1  and  C_2
REMARK    2  A    between atoms: C_2  and  C_3
REMARK    3  A    between atoms: C_2  and  O_4
REMARK    4  A    between atoms: O_4  and  C_5
REMARK    5  A    between atoms: C_10  and  C_11
REMARK    6  A    between atoms: N_16  and  C_17
REMARK    7  A    between atoms: N_24  and  C_25
REMARK                            x       y       z     vdW  Elec       q    Type
REMARK                         _______ _______ _______ _____ _____    ______ ____
ROOT
ATOM      1  C   UNL     1       2.575   7.276  18.909  0.00  0.00    +0.000 C 
ATOM      2  O   UNL     1       2.322   8.142  18.073  0.00  0.00    +0.000 OA
ATOM      3  N   UNL     1       2.026   7.288  20.183  0.00  0.00    +0.000 N 
ATOM      4  C   UNL     1       1.445   8.379  20.806  0.00  0.00    +0.000 C 
ATOM      5  O   UNL     1       1.457   8.493  22.027  0.00  0.00    +0.000 OA
ATOM      6  N   UNL     1       0.871   9.285  19.971  0.00  0.00    +0.000 N 
ATOM      7  H   UNL     1       2.335   6.585  20.839  0.00  0.00    +0.000 HD
ATOM      8  H   UNL     1       1.091   9.188  18.981  0.00  0.00    +0.000 HD
ENDROOT
BRANCH   6   9
ATOM      9  C   UNL     1       0.005  10.387  20.381  0.00  0.00    +0.000 C 
ATOM     10  C   UNL     1       0.833  11.625  20.776  0.00  0.00    +0.000 C 
ATOM     11  C   UNL     1       0.199  12.951  20.327  0.00  0.00    +0.000 C 
ATOM     12  C   UNL     1       0.413  13.232  18.826  0.00  0.00    +0.000 C 
ATOM     13  C   UNL     1      -0.912  12.869  18.163  0.00  0.00    +0.000 C 
ATOM     14  C   UNL     1      -1.621  12.066  19.252  0.00  0.00    +0.000 C 
ATOM     15  C   UNL     1      -1.027  10.638  19.267  0.00  0.00    +0.000 C 
ATOM     16  N   UNL     1      -1.255  12.778  20.493  0.00  0.00    +0.000 NA
ATOM     17  C   UNL     1      -1.939  14.062  20.661  0.00  0.00    +0.000 C 
ENDBRANCH   6   9
BRANCH   1  23
ATOM     18  C   UNL     1       3.663   4.933  19.161  0.00  0.00    +0.000 A 
ATOM     19  C   UNL     1       4.478   3.939  18.585  0.00  0.00    +0.000 A 
ATOM     20  C   UNL     1       5.176   4.174  17.400  0.00  0.00    +0.000 A 
ATOM     21  C   UNL     1       5.061   5.409  16.776  0.00  0.00    +0.000 A 
ATOM     22  C   UNL     1       4.220   6.383  17.321  0.00  0.00    +0.000 A 
ATOM     23  C   UNL     1       3.478   6.153  18.499  0.00  0.00    +0.000 A 
BRANCH  18  24
ATOM     24  O   UNL     1       3.075   4.544  20.328  0.00  0.00    +0.000 OA
BRANCH  24  26
ATOM     25  C   UNL     1       2.235   2.879  21.750  0.00  0.00    +0.000 C 
ATOM     26  C   UNL     1       2.255   3.369  20.304  0.00  0.00    +0.000 C 
ATOM     27  C   UNL     1       0.865   3.620  19.738  0.00  0.00    +0.000 C 
ENDBRANCH  24  26
ENDBRANCH  18  24
ENDBRANCH   1  23
TORSDOF 4
ENDMDL
MODEL 2
REMARK VINA RESULT:      -7.6      2.208      8.175
REMARK  Name = 
REMARK  7 active torsions:
REMARK  status: ('A' for Active; 'I' for Inactive)
REMARK    1  A    between atoms: C_1  and  C_2
REMARK    2  A    between atoms: C_2  and  C_3
REMARK    3  A    between atoms: C_2  and  O_4
REMARK    4  A    between atoms: O_4  and  C_5
REMARK    5  A    between atoms: C_10  and  C_11
REMARK    6  A    between atoms: N_16  and  C_17
REMARK    7  A    between atoms: N_24  and  C_25
REMARK                            x       y       z     vdW  Elec       q    Type
REMARK                         _______ _______ _______ _____ _____    ______ ____
ROOT
ATOM      1  C   UNL     1       1.434   8.613  20.336  0.00  0.00    +0.000 C 
ATOM      2  O   UNL     1       1.803   9.049  19.247  0.00  0.00    +0.000 OA
ATOM      3  N   UNL     1       1.830   7.371  20.813  0.00  0.00    +0.000 N 
ATOM      4  C   UNL     1       2.359   6.341  20.055  0.00  0.00    +0.000 C 
ATOM      5  O   UNL     1       2.206   5.169  20.382  0.00  0.00    +0.000 OA
ATOM      6  N   UNL     1       3.047   6.730  18.949  0.00  0.00    +0.000 N 
ATOM      7  H   UNL     1       1.430   7.048  21.683  0.00  0.00    +0.000 HD
ATOM      8  H   UNL     1       2.943   7.706  18.673  0.00  0.00    +0.000 HD
ENDROOT
BRANCH   6   9
ATOM      9  C   UNL     1       3.884   5.865  18.122  0.00  0.00    +0.000 C 
ATOM     10  C   UNL     1       4.374   6.606  16.864  0.00  0.00    +0.000 C 
ATOM     11  C   UNL     1       5.822   6.263  16.479  0.00  0.00    +0.000 C 
ATOM     12  C   UNL     1       6.857   6.987  17.363  0.00  0.00    +0.000 C 
ATOM     13  C   UNL     1       7.327   5.937  18.364  0.00  0.00    +0.000 C 
ATOM     14  C   UNL     1       6.268   4.845  18.223  0.00  0.00    +0.000 C 
ATOM     15  C   UNL     1       5.007   5.287  19.001  0.00  0.00    +0.000 C 
ATOM     16  N   UNL     1       5.987   4.828  16.773  0.00  0.00    +0.000 NA
ATOM     17  C   UNL     1       7.055   4.229  15.970  0.00  0.00    +0.000 C 
ENDBRANCH   6   9
BRANCH   1  23
ATOM     18  C   UNL     1      -0.038  10.699  20.804  0.00  0.00    +0.000 A 
ATOM     19  C   UNL     1      -0.917  11.351  21.691  0.00  0.00    +0.000 A 
ATOM     20  C   UNL     1      -1.147  10.857  22.975  0.00  0.00    +0.000 A 
ATOM     21  C   UNL     1      -0.499   9.700  23.385  0.00  0.00    +0.000 A 
ATOM     22  C   UNL     1       0.341   9.026  22.495  0.00  0.00    +0.000 A 
ATOM     23  C   UNL     1       0.559   9.489  21.180  0.00  0.00    +0.000 A 
BRANCH  18  24
ATOM     24  O   UNL     1       0.088  11.329  19.601  0.00  0.00    +0.000 OA
BRANCH  24  26
ATOM     25  C   UNL     1      -0.871  12.803  18.051  0.00  0.00    +0.000 C 
ATOM     26  C   UNL     1      -1.093  11.496  18.808  0.00  0.00    +0.000 C 
ATOM     27  C   UNL     1      -1.370  10.313  17.892  0.00  0.00    +0.000 C 
ENDBRANCH  24  26
ENDBRANCH  18  24
ENDBRANCH   1  23
TORSDOF 4
ENDMDL
MODEL 3
REMARK VINA RESULT:      -7.5      0.974      1.009
REMARK  Name = 
REMARK  7 active torsions:
REMARK  status: ('A' for Active; 'I' for Inactive)
REMARK    1  A    between atoms: C_1  and  C_2
REMARK    2  A    between atoms: C_2  and  C_3
REMARK    3  A    between atoms: C_2  and  O_4
REMARK    4  A    between atoms: O_4  and  C_5
REMARK    5  A    between atoms: C_10  and  C_11
REMARK    6  A    between atoms: N_16  and  C_17
REMARK    7  A    between atoms: N_24  and  C_25
REMARK                            x       y       z     vdW  Elec       q    Type
REMARK                         _______ _______ _______ _____ _____    ______ ____
ROOT
ATOM      1  C   UNL     1       2.471   7.536  18.442  0.00  0.00    +0.000 C 
ATOM      2  O   UNL     1       2.346   8.521  17.714  0.00  0.00    +0.000 OA
ATOM      3  N   UNL     1       1.889   7.463  19.700  0.00  0.00    +0.000 N 
ATOM      4  C   UNL     1       1.425   8.535  20.443  0.00  0.00    +0.000 C 
ATOM      5  O   UNL     1       1.415   8.500  21.668  0.00  0.00    +0.000 OA
ATOM      6  N   UNL     1       0.987   9.597  19.716  0.00  0.00    +0.000 N 
ATOM      7  H   UNL     1       2.093   6.654  20.269  0.00  0.00    +0.000 HD
ATOM      8  H   UNL     1       1.223   9.593  18.725  0.00  0.00    +0.000 HD
ENDROOT
BRANCH   6   9
ATOM      9  C   UNL     1       0.248  10.740  20.245  0.00  0.00    +0.000 C 
ATOM     10  C   UNL     1       1.204  11.869  20.672  0.00  0.00    +0.000 C 
ATOM     11  C   UNL     1       0.672  13.274  20.347  0.00  0.00    +0.000 C 
ATOM     12  C   UNL     1       0.836  13.639  18.858  0.00  0.00    +0.000 C 
ATOM     13  C   UNL     1      -0.547  13.442  18.247  0.00  0.00    +0.000 C 
ATOM     14  C   UNL     1      -1.272  12.630  19.320  0.00  0.00    +0.000 C 
ATOM     15  C   UNL     1      -0.812  11.157  19.209  0.00  0.00    +0.000 C 
ATOM     16  N   UNL     1      -0.782  13.218  20.583  0.00  0.00    +0.000 NA
ATOM     17  C   UNL     1      -1.335  14.543  20.871  0.00  0.00    +0.000 C 
ENDBRANCH   6   9
BRANCH   1  23
ATOM     18  C   UNL     1       2.824   5.035  17.848  0.00  0.00    +0.000 A 
ATOM     19  C   UNL     1       3.641   4.071  17.225  0.00  0.00    +0.000 A 
ATOM     20  C   UNL     1       4.904   4.402  16.735  0.00  0.00    +0.000 A 
ATOM     21  C   UNL     1       5.363   5.706  16.862  0.00  0.00    +0.000 A 
ATOM     22  C   UNL     1       4.540   6.675  17.442  0.00  0.00    +0.000 A 
ATOM     23  C   UNL     1       3.245   6.369  17.911  0.00  0.00    +0.000 A 
BRANCH  18  24
ATOM     24  O   UNL     1       1.634   4.536  18.290  0.00  0.00    +0.000 OA
BRANCH  24  26
ATOM     25  C   UNL     1       1.207   4.090  20.552  0.00  0.00    +0.000 C 
ATOM     26  C   UNL     1       1.671   3.463  19.239  0.00  0.00    +0.000 C 
ATOM     27  C   UNL     1       0.832   2.264  18.819  0.00  0.00    +0.000 C 
ENDBRANCH  24  26
ENDBRANCH  18  24
ENDBRANCH   1  23
TORSDOF 4
ENDMDL
MODEL 4
REMARK VINA RESULT:      -7.5      2.011      8.505
REMARK  Name = 
REMARK  7 active torsions:
REMARK  status: ('A' for Active; 'I' for Inactive)
REMARK    1  A    between atoms: C_1  and  C_2
REMARK    2  A    between atoms: C_2  and  C_3
REMARK    3  A    between atoms: C_2  and  O_4
REMARK    4  A    between atoms: O_4  and  C_5
REMARK    5  A    between atoms: C_10  and  C_11
REMARK    6  A    between atoms: N_16  and  C_17
REMARK    7  A    between atoms: N_24  and  C_25
REMARK                            x       y       z     vdW  Elec       q    Type
REMARK                         _______ _______ _______ _____ _____    ______ ____
ROOT
ATOM      1  C   UNL     1       0.944   8.893  20.802  0.00  0.00    +0.000 C 
ATOM      2  O   UNL     1       1.020   7.931  21.565  0.00  0.00    +0.000 OA
ATOM      3  N   UNL     1       1.365   8.831  19.481  0.00  0.00    +0.000 N 
ATOM      4  C   UNL     1       2.213   7.879  18.944  0.00  0.00    +0.000 C 
ATOM      5  O   UNL     1       2.936   8.139  17.989  0.00  0.00    +0.000 OA
ATOM      6  N   UNL     1       2.173   6.661  19.548  0.00  0.00    +0.000 N 
ATOM      7  H   UNL     1       1.338   9.680  18.935  0.00  0.00    +0.000 HD
ATOM      8  H   UNL     1       1.688   6.617  20.443  0.00  0.00    +0.000 HD
ENDROOT
BRANCH   6   9
ATOM      9  C   UNL     1       2.789   5.440  19.036  0.00  0.00    +0.000 C 
ATOM     10  C   UNL     1       3.249   4.526  20.188  0.00  0.00    +0.000 C 
ATOM     11  C   UNL     1       3.020   3.032  19.909  0.00  0.00    +0.000 C 
ATOM     12  C   UNL     1       1.550   2.611  20.103  0.00  0.00    +0.000 C 
ATOM     13  C   UNL     1       0.974   2.522  18.694  0.00  0.00    +0.000 C 
ATOM     14  C   UNL     1       2.022   3.257  17.859  0.00  0.00    +0.000 C 
ATOM     15  C   UNL     1       1.813   4.778  18.046  0.00  0.00    +0.000 C 
ATOM     16  N   UNL     1       3.299   2.843  18.475  0.00  0.00    +0.000 NA
ATOM     17  C   UNL     1       3.680   1.462  18.173  0.00  0.00    +0.000 C 
ENDBRANCH   6   9
BRANCH   1  23
ATOM     18  C   UNL     1       0.391  11.429  20.750  0.00  0.00    +0.000 A 
ATOM     19  C   UNL     1      -0.329  12.494  21.325  0.00  0.00    +0.000 A 
ATOM     20  C   UNL     1      -1.045  12.327  22.510  0.00  0.00    +0.000 A 
ATOM     21  C   UNL     1      -1.049  11.087  23.133  0.00  0.00    +0.000 A 
ATOM     22  C   UNL     1      -0.370  10.016  22.545  0.00  0.00    +0.000 A 
ATOM     23  C   UNL     1       0.330  10.155  21.328  0.00  0.00    +0.000 A 
BRANCH  18  24
ATOM     24  O   UNL     1       1.052  11.773  19.608  0.00  0.00    +0.000 OA
BRANCH  24  26
ATOM     25  C   UNL     1       2.214  13.449  18.452  0.00  0.00    +0.000 C 
ATOM     26  C   UNL     1       0.881  13.107  19.114  0.00  0.00    +0.000 C 
ATOM     27  C   UNL     1      -0.307  13.249  18.174  0.00  0.00    +0.000 C 
ENDBRANCH  24  26
ENDBRANCH  18  24
ENDBRANCH   1  23
TORSDOF 4
ENDMDL
MODEL 5
REMARK VINA RESULT:      -7.5      2.042      8.362
REMARK  Name = 
REMARK  7 active torsions:
REMARK  status: ('A' for Active; 'I' for Inactive)
REMARK    1  A    between atoms: C_1  and  C_2
REMARK    2  A    between atoms: C_2  and  C_3
REMARK    3  A    between atoms: C_2  and  O_4
REMARK    4  A    between atoms: O_4  and  C_5
REMARK    5  A    between atoms: C_10  and  C_11
REMARK    6  A    between atoms: N_16  and  C_17
REMARK    7  A    between atoms: N_24  and  C_25
REMARK                            x       y       z     vdW  Elec       q    Type
REMARK                         _______ _______ _______ _____ _____    ______ ____
ROOT
ATOM      1  C   UNL     1       1.038   9.009  20.323  0.00  0.00    +0.000 C 
ATOM      2  O   UNL     1       1.543   8.008  20.830  0.00  0.00    +0.000 OA
ATOM      3  N   UNL     1       1.125   9.278  18.964  0.00  0.00    +0.000 N 
ATOM      4  C   UNL     1       2.031   8.716  18.082  0.00  0.00    +0.000 C 
ATOM      5  O   UNL     1       2.407   9.323  17.085  0.00  0.00    +0.000 OA
ATOM      6  N   UNL     1       2.452   7.464  18.404  0.00  0.00    +0.000 N 
ATOM      7  H   UNL     1       0.749  10.154  18.630  0.00  0.00    +0.000 HD
ATOM      8  H   UNL     1       2.229   7.141  19.344  0.00  0.00    +0.000 HD
ENDROOT
BRANCH   6   9
ATOM      9  C   UNL     1       3.215   6.575  17.532  0.00  0.00    +0.000 C 
ATOM     10  C   UNL     1       4.723   6.885  17.607  0.00  0.00    +0.000 C 
ATOM     11  C   UNL     1       5.607   5.628  17.567  0.00  0.00    +0.000 C 
ATOM     12  C   UNL     1       5.646   4.889  18.919  0.00  0.00    +0.000 C 
ATOM     13  C   UNL     1       4.699   3.706  18.751  0.00  0.00    +0.000 C 
ATOM     14  C   UNL     1       3.921   4.078  17.490  0.00  0.00    +0.000 C 
ATOM     15  C   UNL     1       2.845   5.121  17.872  0.00  0.00    +0.000 C 
ATOM     16  N   UNL     1       4.946   4.703  16.629  0.00  0.00    +0.000 NA
ATOM     17  C   UNL     1       5.895   3.748  16.052  0.00  0.00    +0.000 C 
ENDBRANCH   6   9
BRANCH   1  23
ATOM     18  C   UNL     1      -0.082  11.264  20.954  0.00  0.00    +0.000 A 
ATOM     19  C   UNL     1      -0.896  11.966  21.863  0.00  0.00    +0.000 A 
ATOM     20  C   UNL     1      -1.299  11.389  23.068  0.00  0.00    +0.000 A 
ATOM     21  C   UNL     1      -0.890  10.098  23.373  0.00  0.00    +0.000 A 
ATOM     22  C   UNL     1      -0.117   9.382  22.456  0.00  0.00    +0.000 A 
ATOM     23  C   UNL     1       0.270   9.934  21.217  0.00  0.00    +0.000 A 
BRANCH  18  24
ATOM     24  O   UNL     1       0.237  11.984  19.840  0.00  0.00    +0.000 OA
BRANCH  24  26
ATOM     25  C   UNL     1      -0.181  13.907  18.565  0.00  0.00    +0.000 C 
ATOM     26  C   UNL     1      -0.827  12.654  19.152  0.00  0.00    +0.000 C 
ATOM     27  C   UNL     1      -1.503  11.783  18.104  0.00  0.00    +0.000 C 
ENDBRANCH  24  26
ENDBRANCH  18  24
ENDBRANCH   1  23
TORSDOF 4
ENDMDL
MODEL 6
REMARK VINA RESULT:      -7.4      2.053      8.289
REMARK  Name = 
REMARK  7 active torsions:
REMARK  status: ('A' for Active; 'I' for Inactive)
REMARK    1  A    between atoms: C_1  and  C_2
REMARK    2  A    between atoms: C_2  and  C_3
REMARK    3  A    between atoms: C_2  and  O_4
REMARK    4  A    between atoms: O_4  and  C_5
REMARK    5  A    between atoms: C_10  and  C_11
REMARK    6  A    between atoms: N_16  and  C_17
REMARK    7  A    between atoms: N_24  and  C_25
REMARK                            x       y       z     vdW  Elec       q    Type
REMARK                         _______ _______ _______ _____ _____    ______ ____
ROOT
ATOM      1  C   UNL     1       0.694   9.589  19.620  0.00  0.00    +0.000 C 
ATOM      2  O   UNL     1       0.727   8.849  20.602  0.00  0.00    +0.000 OA
ATOM      3  N   UNL     1       1.227   9.221  18.392  0.00  0.00    +0.000 N 
ATOM      4  C   UNL     1       2.140   8.203  18.177  0.00  0.00    +0.000 C 
ATOM      5  O   UNL     1       2.935   8.251  17.245  0.00  0.00    +0.000 OA
ATOM      6  N   UNL     1       2.076   7.171  19.060  0.00  0.00    +0.000 N 
ATOM      7  H   UNL     1       1.228   9.908  17.651  0.00  0.00    +0.000 HD
ATOM      8  H   UNL     1       1.518   7.329  19.897  0.00  0.00    +0.000 HD
ENDROOT
BRANCH   6   9
ATOM      9  C   UNL     1       2.761   5.890  18.917  0.00  0.00    +0.000 C 
ATOM     10  C   UNL     1       2.911   5.187  20.280  0.00  0.00    +0.000 C 
ATOM     11  C   UNL     1       2.713   3.665  20.207  0.00  0.00    +0.000 C 
ATOM     12  C   UNL     1       1.227   3.264  20.115  0.00  0.00    +0.000 C 
ATOM     13  C   UNL     1       0.996   2.934  18.644  0.00  0.00    +0.000 C 
ATOM     14  C   UNL     1       2.231   3.531  17.971  0.00  0.00    +0.000 C 
ATOM     15  C   UNL     1       2.027   5.060  17.849  0.00  0.00    +0.000 C 
ATOM     16  N   UNL     1       3.316   3.242  18.930  0.00  0.00    +0.000 NA
ATOM     17  C   UNL     1       3.719   1.834  18.960  0.00  0.00    +0.000 C 
ENDBRANCH   6   9
BRANCH   1  23
ATOM     18  C   UNL     1      -0.861  11.520  18.851  0.00  0.00    +0.000 A 
ATOM     19  C   UNL     1      -1.501  12.728  19.189  0.00  0.00    +0.000 A 
ATOM     20  C   UNL     1      -1.226  13.381  20.390  0.00  0.00    +0.000 A 
ATOM     21  C   UNL     1      -0.306  12.828  21.269  0.00  0.00    +0.000 A 
ATOM     22  C   UNL     1       0.300  11.608  20.959  0.00  0.00    +0.000 A 
ATOM     23  C   UNL     1       0.009  10.913  19.766  0.00  0.00    +0.000 A 
BRANCH  18  24
ATOM     24  O   UNL     1      -1.229  11.031  17.632  0.00  0.00    +0.000 OA
BRANCH  24  26
ATOM     25  C   UNL     1      -2.744  11.094  15.844  0.00  0.00    +0.000 C 
ATOM     26  C   UNL     1      -2.630  10.912  17.356  0.00  0.00    +0.000 C 
ATOM     27  C   UNL     1      -3.227   9.603  17.848  0.00  0.00    +0.000 C 
ENDBRANCH  24  26
ENDBRANCH  18  24
ENDBRANCH   1  23
TORSDOF 4
ENDMDL
MODEL 7
REMARK VINA RESULT:      -7.4      2.249      8.156
REMARK  Name = 
REMARK  7 active torsions:
REMARK  status: ('A' for Active; 'I' for Inactive)
REMARK    1  A    between atoms: C_1  and  C_2
REMARK    2  A    between atoms: C_2  and  C_3
REMARK    3  A    between atoms: C_2  and  O_4
REMARK    4  A    between atoms: O_4  and  C_5
REMARK    5  A    between atoms: C_10  and  C_11
REMARK    6  A    between atoms: N_16  and  C_17
REMARK    7  A    between atoms: N_24  and  C_25
REMARK                            x       y       z     vdW  Elec       q    Type
REMARK                         _______ _______ _______ _____ _____    ______ ____
ROOT
ATOM      1  C   UNL     1       1.125   9.716  18.946  0.00  0.00    +0.000 C 
ATOM      2  O   UNL     1       0.971   9.024  19.952  0.00  0.00    +0.000 OA
ATOM      3  N   UNL     1       1.745   9.236  17.801  0.00  0.00    +0.000 N 
ATOM      4  C   UNL     1       2.561   8.120  17.727  0.00  0.00    +0.000 C 
ATOM      5  O   UNL     1       3.453   8.040  16.890  0.00  0.00    +0.000 OA
ATOM      6  N   UNL     1       2.290   7.144  18.634  0.00  0.00    +0.000 N 
ATOM      7  H   UNL     1       1.901   9.882  17.041  0.00  0.00    +0.000 HD
ATOM      8  H   UNL     1       1.664   7.398  19.397  0.00  0.00    +0.000 HD
ENDROOT
BRANCH   6   9
ATOM      9  C   UNL     1       2.844   5.793  18.617  0.00  0.00    +0.000 C 
ATOM     10  C   UNL     1       3.122   5.290  20.047  0.00  0.00    +0.000 C 
ATOM     11  C   UNL     1       2.794   3.801  20.244  0.00  0.00    +0.000 C 
ATOM     12  C   UNL     1       1.283   3.543  20.401  0.00  0.00    +0.000 C 
ATOM     13  C   UNL     1       0.827   3.022  19.042  0.00  0.00    +0.000 C 
ATOM     14  C   UNL     1       2.002   3.385  18.135  0.00  0.00    +0.000 C 
ATOM     15  C   UNL     1       1.906   4.891  17.794  0.00  0.00    +0.000 C 
ATOM     16  N   UNL     1       3.181   3.134  18.988  0.00  0.00    +0.000 NA
ATOM     17  C   UNL     1       3.469   1.714  19.195  0.00  0.00    +0.000 C 
ENDBRANCH   6   9
BRANCH   1  23
ATOM     18  C   UNL     1      -0.769  11.489  18.862  0.00  0.00    +0.000 A 
ATOM     19  C   UNL     1      -1.127  12.844  18.999  0.00  0.00    +0.000 A 
ATOM     20  C   UNL     1      -0.158  13.835  19.157  0.00  0.00    +0.000 A 
ATOM     21  C   UNL     1       1.183  13.478  19.183  0.00  0.00    +0.000 A 
ATOM     22  C   UNL     1       1.541  12.130  19.090  0.00  0.00    +0.000 A 
ATOM     23  C   UNL     1       0.575  11.109  18.965  0.00  0.00    +0.000 A 
BRANCH  18  24
ATOM     24  O   UNL     1      -1.837  10.658  18.692  0.00  0.00    +0.000 OA
BRANCH  24  26
ATOM     25  C   UNL     1      -2.239   9.923  16.502  0.00  0.00    +0.000 C 
ATOM     26  C   UNL     1      -2.703  10.904  17.577  0.00  0.00    +0.000 C 
ATOM     27  C   UNL     1      -4.178  10.761  17.921  0.00  0.00    +0.000 C 
ENDBRANCH  24  26
ENDBRANCH  18  24
ENDBRANCH   1  23
TORSDOF 4
ENDMDL
MODEL 8
REMARK VINA RESULT:      -7.3      2.106      8.309
REMARK  Name = 
REMARK  7 active torsions:
REMARK  status: ('A' for Active; 'I' for Inactive)
REMARK    1  A    between atoms: C_1  and  C_2
REMARK    2  A    between atoms: C_2  and  C_3
REMARK    3  A    between atoms: C_2  and  O_4
REMARK    4  A    between atoms: O_4  and  C_5
REMARK    5  A    between atoms: C_10  and  C_11
REMARK    6  A    between atoms: N_16  and  C_17
REMARK    7  A    between atoms: N_24  and  C_25
REMARK                            x       y       z     vdW  Elec       q    Type
REMARK                         _______ _______ _______ _____ _____    ______ ____
ROOT
ATOM      1  C   UNL     1       0.337   9.309  20.651  0.00  0.00    +0.000 C 
ATOM      2  O   UNL     1       0.347   8.393  21.473  0.00  0.00    +0.000 OA
ATOM      3  N   UNL     1       0.945   9.200  19.409  0.00  0.00    +0.000 N 
ATOM      4  C   UNL     1       1.905   8.268  19.054  0.00  0.00    +0.000 C 
ATOM      5  O   UNL     1       2.745   8.517  18.196  0.00  0.00    +0.000 OA
ATOM      6  N   UNL     1       1.835   7.083  19.717  0.00  0.00    +0.000 N 
ATOM      7  H   UNL     1       0.959  10.017  18.815  0.00  0.00    +0.000 HD
ATOM      8  H   UNL     1       1.229   7.060  20.536  0.00  0.00    +0.000 HD
ENDROOT
BRANCH   6   9
ATOM      9  C   UNL     1       2.573   5.872  19.371  0.00  0.00    +0.000 C 
ATOM     10  C   UNL     1       2.708   4.937  20.589  0.00  0.00    +0.000 C 
ATOM     11  C   UNL     1       2.572   3.448  20.233  0.00  0.00    +0.000 C 
ATOM     12  C   UNL     1       1.107   3.023  20.013  0.00  0.00    +0.000 C 
ATOM     13  C   UNL     1       0.935   2.960  18.499  0.00  0.00    +0.000 C 
ATOM     14  C   UNL     1       2.167   3.710  17.993  0.00  0.00    +0.000 C 
ATOM     15  C   UNL     1       1.906   5.228  18.142  0.00  0.00    +0.000 C 
ATOM     16  N   UNL     1       3.231   3.286  18.925  0.00  0.00    +0.000 NA
ATOM     17  C   UNL     1       3.687   1.911  18.714  0.00  0.00    +0.000 C 
ENDBRANCH   6   9
BRANCH   1  23
ATOM     18  C   UNL     1      -1.058  11.435  20.133  0.00  0.00    +0.000 A 
ATOM     19  C   UNL     1      -1.795  12.520  20.646  0.00  0.00    +0.000 A 
ATOM     20  C   UNL     1      -1.825  12.792  22.013  0.00  0.00    +0.000 A 
ATOM     21  C   UNL     1      -1.116  11.976  22.884  0.00  0.00    +0.000 A 
ATOM     22  C   UNL     1      -0.417  10.874  22.385  0.00  0.00    +0.000 A 
ATOM     23  C   UNL     1      -0.404  10.561  21.009  0.00  0.00    +0.000 A 
BRANCH  18  24
ATOM     24  O   UNL     1      -1.119  11.330  18.774  0.00  0.00    +0.000 OA
BRANCH  24  26
ATOM     25  C   UNL     1      -3.295  11.517  17.921  0.00  0.00    +0.000 C 
ATOM     26  C   UNL     1      -2.168  10.529  18.214  0.00  0.00    +0.000 C 
ATOM     27  C   UNL     1      -1.729   9.742  16.988  0.00  0.00    +0.000 C 
ENDBRANCH  24  26
ENDBRANCH  18  24
ENDBRANCH   1  23
TORSDOF 4
ENDMDL
MODEL 9
REMARK VINA RESULT:      -7.3      1.351      3.329
REMARK  Name = 
REMARK  7 active torsions:
REMARK  status: ('A' for Active; 'I' for Inactive)
REMARK    1  A    between atoms: C_1  and  C_2
REMARK    2  A    between atoms: C_2  and  C_3
REMARK    3  A    between atoms: C_2  and  O_4
REMARK    4  A    between atoms: O_4  and  C_5
REMARK    5  A    between atoms: C_10  and  C_11
REMARK    6  A    between atoms: N_16  and  C_17
REMARK    7  A    between atoms: N_24  and  C_25
REMARK                            x       y       z     vdW  Elec       q    Type
REMARK                         _______ _______ _______ _____ _____    ______ ____
ROOT
ATOM      1  C   UNL     1       1.845   6.850  20.002  0.00  0.00    +0.000 C 
ATOM      2  O   UNL     1       1.171   7.337  20.909  0.00  0.00    +0.000 OA
ATOM      3  N   UNL     1       2.311   7.604  18.934  0.00  0.00    +0.000 N 
ATOM      4  C   UNL     1       1.827   8.840  18.542  0.00  0.00    +0.000 C 
ATOM      5  O   UNL     1       1.886   9.202  17.372  0.00  0.00    +0.000 OA
ATOM      6  N   UNL     1       1.300   9.600  19.539  0.00  0.00    +0.000 N 
ATOM      7  H   UNL     1       2.797   7.123  18.191  0.00  0.00    +0.000 HD
ATOM      8  H   UNL     1       1.127   9.125  20.423  0.00  0.00    +0.000 HD
ENDROOT
BRANCH   6   9
ATOM      9  C   UNL     1       0.940  11.010  19.431  0.00  0.00    +0.000 C 
ATOM     10  C   UNL     1      -0.531  11.176  19.003  0.00  0.00    +0.000 C 
ATOM     11  C   UNL     1      -1.243  12.342  19.706  0.00  0.00    +0.000 C 
ATOM     12  C   UNL     1      -1.656  11.999  21.151  0.00  0.00    +0.000 C 
ATOM     13  C   UNL     1      -0.609  12.670  22.033  0.00  0.00    +0.000 C 
ATOM     14  C   UNL     1       0.501  13.002  21.037  0.00  0.00    +0.000 C 
ATOM     15  C   UNL     1       1.303  11.710  20.753  0.00  0.00    +0.000 C 
ATOM     16  N   UNL     1      -0.238  13.413  19.826  0.00  0.00    +0.000 NA
ATOM     17  C   UNL     1      -0.863  14.733  19.935  0.00  0.00    +0.000 C 
ENDBRANCH   6   9
BRANCH   1  23
ATOM     18  C   UNL     1       3.439   4.811  19.806  0.00  0.00    +0.000 A 
ATOM     19  C   UNL     1       3.637   3.438  20.047  0.00  0.00    +0.000 A 
ATOM     20  C   UNL     1       2.597   2.626  20.500  0.00  0.00    +0.000 A 
ATOM     21  C   UNL     1       1.345   3.183  20.719  0.00  0.00    +0.000 A 
ATOM     22  C   UNL     1       1.154   4.553  20.522  0.00  0.00    +0.000 A 
ATOM     23  C   UNL     1       2.202   5.399  20.099  0.00  0.00    +0.000 A 
BRANCH  18  24
ATOM     24  O   UNL     1       4.553   5.449  19.345  0.00  0.00    +0.000 OA
BRANCH  24  26
ATOM     25  C   UNL     1       4.564   5.433  17.000  0.00  0.00    +0.000 C 
ATOM     26  C   UNL     1       5.249   4.860  18.239  0.00  0.00    +0.000 C 
ATOM     27  C   UNL     1       6.748   5.120  18.269  0.00  0.00    +0.000 C 
ENDBRANCH  24  26
ENDBRANCH  18  24
ENDBRANCH   1  23
TORSDOF 4
ENDMDL
