MODEL 1
REMARK VINA RESULT:     -10.0      0.000      0.000
REMARK  Name = 
REMARK  8 active torsions:
REMARK  status: ('A' for Active; 'I' for Inactive)
REMARK    1  A    between atoms: C_1  and  N_2
REMARK    2  A    between atoms: N_2  and  C_3
REMARK    3  A    between atoms: C_10  and  C_11
REMARK    4  A    between atoms: C_11  and  C_12
REMARK    5  A    between atoms: C_12  and  C_13
REMARK    6  A    between atoms: C_15  and  N_16
REMARK    7  A    between atoms: C_26  and  O_27
REMARK    8  A    between atoms: C_28  and  O_29
REMARK                            x       y       z     vdW  Elec       q    Type
REMARK                         _______ _______ _______ _____ _____    ______ ____
ROOT
ATOM      1  C   UNL     1       2.252   3.032  19.575  0.00  0.00    +0.000 C 
ATOM      2  C   UNL     1       2.593   3.225  18.083  0.00  0.00    +0.000 C 
ATOM      3  C   UNL     1       4.113   3.021  17.928  0.00  0.00    +0.000 C 
ATOM      4  C   UNL     1       4.597   2.502  19.289  0.00  0.00    +0.000 C 
ATOM      5  C   UNL     1       3.596   3.055  20.310  0.00  0.00    +0.000 C 
ENDROOT
BRANCH   3   6
ATOM      6  N   UNL     1       4.823   4.193  17.431  0.00  0.00    +0.000 N 
ATOM      7  C   UNL     1       4.510   4.834  16.251  0.00  0.00    +0.000 A 
ATOM      8  C   UNL     1       5.348   5.921  16.115  0.00  0.00    +0.000 A 
ATOM      9  C   UNL     1       6.203   5.950  17.248  0.00  0.00    +0.000 A 
ATOM     10  C   UNL     1       7.237   6.776  17.717  0.00  0.00    +0.000 A 
ATOM     11  N   UNL     1       7.681   7.908  17.052  0.00  0.00    +0.000 N 
ATOM     12  N   UNL     1       7.842   6.466  18.879  0.00  0.00    +0.000 NA
ATOM     13  C   UNL     1       7.402   5.391  19.557  0.00  0.00    +0.000 A 
ATOM     14  N   UNL     1       6.417   4.544  19.217  0.00  0.00    +0.000 NA
ATOM     15  C   UNL     1       5.854   4.867  18.044  0.00  0.00    +0.000 A 
ATOM     16  H   UNL     1       7.519   7.929  16.056  0.00  0.00    +0.000 HD
ATOM     17  H   UNL     1       8.597   8.193  17.379  0.00  0.00    +0.000 HD
ENDBRANCH   3   6
BRANCH   4  18
ATOM     18  O   UNL     1       4.550   1.059  19.326  0.00  0.00    +0.000 OA
ATOM     19  H   UNL     1       4.951   0.756  20.161  0.00  0.00    +0.000 HD
ENDBRANCH   4  18
BRANCH   5  20
ATOM     20  O   UNL     1       3.535   2.235  21.475  0.00  0.00    +0.000 OA
ATOM     21  H   UNL     1       2.697   2.450  21.929  0.00  0.00    +0.000 HD
ENDBRANCH   5  20
BRANCH   1  22
ATOM     22  C   UNL     1       1.238   4.080  20.060  0.00  0.00    +0.000 C 
BRANCH  22  23
ATOM     23  C   UNL     1       1.863   5.209  20.885  0.00  0.00    +0.000 C 
BRANCH  23  33
ATOM     24  C   UNL     1      -0.359  12.076  21.833  0.00  0.00    +0.000 C 
ATOM     25  N   UNL     1       0.191  12.307  20.501  0.00  0.00    +0.000 N 
ATOM     26  C   UNL     1      -0.538  13.231  19.642  0.00  0.00    +0.000 C 
ATOM     27  C   UNL     1       0.751  11.174  19.890  0.00  0.00    +0.000 A 
ATOM     28  C   UNL     1       1.319  11.264  18.621  0.00  0.00    +0.000 A 
ATOM     29  C   UNL     1       1.881  10.139  18.024  0.00  0.00    +0.000 A 
ATOM     30  C   UNL     1       1.886   8.926  18.705  0.00  0.00    +0.000 A 
ATOM     31  C   UNL     1       2.445   7.770  18.139  0.00  0.00    +0.000 A 
ATOM     32  C   UNL     1       2.443   6.569  18.841  0.00  0.00    +0.000 A 
ATOM     33  C   UNL     1       1.879   6.511  20.119  0.00  0.00    +0.000 A 
ATOM     34  C   UNL     1       1.318   7.679  20.670  0.00  0.00    +0.000 A 
ATOM     35  C   UNL     1       1.310   8.896  19.990  0.00  0.00    +0.000 A 
ATOM     36  N   UNL     1       0.767   9.995  20.560  0.00  0.00    +0.000 NA
ENDBRANCH  23  33
ENDBRANCH  22  23
ENDBRANCH   1  22
TORSDOF 6
ENDMDL
MODEL 2
REMARK VINA RESULT:      -9.5      5.256      7.742
REMARK  Name = 
REMARK  8 active torsions:
REMARK  status: ('A' for Active; 'I' for Inactive)
REMARK    1  A    between atoms: C_1  and  N_2
REMARK    2  A    between atoms: N_2  and  C_3
REMARK    3  A    between atoms: C_10  and  C_11
REMARK    4  A    between atoms: C_11  and  C_12
REMARK    5  A    between atoms: C_12  and  C_13
REMARK    6  A    between atoms: C_15  and  N_16
REMARK    7  A    between atoms: C_26  and  O_27
REMARK    8  A    between atoms: C_28  and  O_29
REMARK                            x       y       z     vdW  Elec       q    Type
REMARK                         _______ _______ _______ _____ _____    ______ ____
ROOT
ATOM      1  C   UNL     1       7.623   6.818  17.884  0.00  0.00    +0.000 C 
ATOM      2  C   UNL     1       7.130   6.092  19.152  0.00  0.00    +0.000 C 
ATOM      3  C   UNL     1       6.386   4.822  18.695  0.00  0.00    +0.000 C 
ATOM      4  C   UNL     1       6.642   4.718  17.185  0.00  0.00    +0.000 C 
ATOM      5  C   UNL     1       6.881   6.158  16.717  0.00  0.00    +0.000 C 
ENDROOT
BRANCH   3   6
ATOM      6  N   UNL     1       4.980   4.784  19.082  0.00  0.00    +0.000 N 
ATOM      7  C   UNL     1       4.261   5.897  19.461  0.00  0.00    +0.000 A 
ATOM      8  C   UNL     1       2.962   5.506  19.713  0.00  0.00    +0.000 A 
ATOM      9  C   UNL     1       2.880   4.108  19.479  0.00  0.00    +0.000 A 
ATOM     10  C   UNL     1       1.877   3.127  19.534  0.00  0.00    +0.000 A 
ATOM     11  N   UNL     1       0.561   3.390  19.878  0.00  0.00    +0.000 N 
ATOM     12  N   UNL     1       2.195   1.853  19.238  0.00  0.00    +0.000 NA
ATOM     13  C   UNL     1       3.459   1.583  18.868  0.00  0.00    +0.000 A 
ATOM     14  N   UNL     1       4.491   2.436  18.764  0.00  0.00    +0.000 NA
ATOM     15  C   UNL     1       4.147   3.689  19.090  0.00  0.00    +0.000 A 
ATOM     16  H   UNL     1       0.406   4.210  20.446  0.00  0.00    +0.000 HD
ATOM     17  H   UNL     1       0.072   2.543  20.143  0.00  0.00    +0.000 HD
ENDBRANCH   3   6
BRANCH   4  18
ATOM     18  O   UNL     1       7.832   3.942  16.927  0.00  0.00    +0.000 OA
ATOM     19  H   UNL     1       8.557   4.550  16.696  0.00  0.00    +0.000 HD
ENDBRANCH   4  18
BRANCH   5  20
ATOM     20  O   UNL     1       7.683   6.195  15.539  0.00  0.00    +0.000 OA
ATOM     21  H   UNL     1       8.401   6.838  15.705  0.00  0.00    +0.000 HD
ENDBRANCH   5  20
BRANCH   1  22
ATOM     22  C   UNL     1       7.423   8.338  17.994  0.00  0.00    +0.000 C 
BRANCH  22  23
ATOM     23  C   UNL     1       8.589   9.156  17.433  0.00  0.00    +0.000 C 
BRANCH  23  33
ATOM     24  C   UNL     1      10.528  16.165  17.086  0.00  0.00    +0.000 C 
ATOM     25  N   UNL     1      10.662  16.071  18.536  0.00  0.00    +0.000 N 
ATOM     26  C   UNL     1      11.755  16.819  19.143  0.00  0.00    +0.000 C 
ATOM     27  C   UNL     1      10.377  14.806  19.074  0.00  0.00    +0.000 A 
ATOM     28  C   UNL     1      10.459  14.588  20.448  0.00  0.00    +0.000 A 
ATOM     29  C   UNL     1      10.167  13.334  20.977  0.00  0.00    +0.000 A 
ATOM     30  C   UNL     1       9.780  12.300  20.128  0.00  0.00    +0.000 A 
ATOM     31  C   UNL     1       9.476  11.022  20.622  0.00  0.00    +0.000 A 
ATOM     32  C   UNL     1       9.087  10.006  19.755  0.00  0.00    +0.000 A 
ATOM     33  C   UNL     1       9.001  10.257  18.383  0.00  0.00    +0.000 A 
ATOM     34  C   UNL     1       9.315  11.543  17.904  0.00  0.00    +0.000 A 
ATOM     35  C   UNL     1       9.703  12.581  18.750  0.00  0.00    +0.000 A 
ATOM     36  N   UNL     1       9.989  13.803  18.248  0.00  0.00    +0.000 NA
ENDBRANCH  23  33
ENDBRANCH  22  23
ENDBRANCH   1  22
TORSDOF 6
ENDMDL
MODEL 3
REMARK VINA RESULT:      -9.1      1.901      2.713
REMARK  Name = 
REMARK  8 active torsions:
REMARK  status: ('A' for Active; 'I' for Inactive)
REMARK    1  A    between atoms: C_1  and  N_2
REMARK    2  A    between atoms: N_2  and  C_3
REMARK    3  A    between atoms: C_10  and  C_11
REMARK    4  A    between atoms: C_11  and  C_12
REMARK    5  A    between atoms: C_12  and  C_13
REMARK    6  A    between atoms: C_15  and  N_16
REMARK    7  A    between atoms: C_26  and  O_27
REMARK    8  A    between atoms: C_28  and  O_29
REMARK                            x       y       z     vdW  Elec       q    Type
REMARK                         _______ _______ _______ _____ _____    ______ ____
ROOT
ATOM      1  C   UNL     1       2.366   4.076  19.004  0.00  0.00    +0.000 C 
ATOM      2  C   UNL     1       2.593   4.325  17.500  0.00  0.00    +0.000 C 
ATOM      3  C   UNL     1       3.762   3.424  17.056  0.00  0.00    +0.000 C 
ATOM      4  C   UNL     1       4.054   2.510  18.255  0.00  0.00    +0.000 C 
ATOM      5  C   UNL     1       3.599   3.304  19.485  0.00  0.00    +0.000 C 
ENDROOT
BRANCH   3   6
ATOM      6  N   UNL     1       4.917   4.154  16.547  0.00  0.00    +0.000 N 
ATOM      7  C   UNL     1       5.703   4.980  17.322  0.00  0.00    +0.000 A 
ATOM      8  C   UNL     1       6.725   5.467  16.535  0.00  0.00    +0.000 A 
ATOM      9  C   UNL     1       6.563   4.923  15.233  0.00  0.00    +0.000 A 
ATOM     10  C   UNL     1       7.246   5.000  14.009  0.00  0.00    +0.000 A 
ATOM     11  N   UNL     1       8.401   5.742  13.817  0.00  0.00    +0.000 N 
ATOM     12  N   UNL     1       6.765   4.321  12.951  0.00  0.00    +0.000 NA
ATOM     13  C   UNL     1       5.665   3.568  13.126  0.00  0.00    +0.000 A 
ATOM     14  N   UNL     1       4.943   3.405  14.247  0.00  0.00    +0.000 NA
ATOM     15  C   UNL     1       5.434   4.114  15.272  0.00  0.00    +0.000 A 
ATOM     16  H   UNL     1       8.541   6.517  14.448  0.00  0.00    +0.000 HD
ATOM     17  H   UNL     1       8.572   5.909  12.833  0.00  0.00    +0.000 HD
ENDBRANCH   3   6
BRANCH   4  18
ATOM     18  O   UNL     1       3.273   1.299  18.168  0.00  0.00    +0.000 OA
ATOM     19  H   UNL     1       2.425   1.505  17.735  0.00  0.00    +0.000 HD
ENDBRANCH   4  18
BRANCH   5  20
ATOM     20  O   UNL     1       3.250   2.438  20.562  0.00  0.00    +0.000 OA
ATOM     21  H   UNL     1       2.718   1.711  20.180  0.00  0.00    +0.000 HD
ENDBRANCH   5  20
BRANCH   1  22
ATOM     22  C   UNL     1       2.097   5.389  19.757  0.00  0.00    +0.000 C 
BRANCH  22  23
ATOM     23  C   UNL     1       3.023   6.537  19.345  0.00  0.00    +0.000 C 
BRANCH  23  33
ATOM     24  C   UNL     1      -1.293  10.938  23.218  0.00  0.00    +0.000 C 
ATOM     25  N   UNL     1      -1.370  11.733  21.997  0.00  0.00    +0.000 N 
ATOM     26  C   UNL     1      -2.651  12.360  21.702  0.00  0.00    +0.000 C 
ATOM     27  C   UNL     1      -0.647  11.216  20.910  0.00  0.00    +0.000 A 
ATOM     28  C   UNL     1      -0.630  11.886  19.689  0.00  0.00    +0.000 A 
ATOM     29  C   UNL     1       0.096  11.373  18.617  0.00  0.00    +0.000 A 
ATOM     30  C   UNL     1       0.817  10.193  18.775  0.00  0.00    +0.000 A 
ATOM     31  C   UNL     1       1.562   9.645  17.720  0.00  0.00    +0.000 A 
ATOM     32  C   UNL     1       2.279   8.467  17.902  0.00  0.00    +0.000 A 
ATOM     33  C   UNL     1       2.256   7.822  19.142  0.00  0.00    +0.000 A 
ATOM     34  C   UNL     1       1.498   8.383  20.187  0.00  0.00    +0.000 A 
ATOM     35  C   UNL     1       0.774   9.565  20.034  0.00  0.00    +0.000 A 
ATOM     36  N   UNL     1       0.065  10.072  21.067  0.00  0.00    +0.000 NA
ENDBRANCH  23  33
ENDBRANCH  22  23
ENDBRANCH   1  22
TORSDOF 6
ENDMDL
MODEL 4
REMARK VINA RESULT:      -9.0      1.252      1.874
REMARK  Name = 
REMARK  8 active torsions:
REMARK  status: ('A' for Active; 'I' for Inactive)
REMARK    1  A    between atoms: C_1  and  N_2
REMARK    2  A    between atoms: N_2  and  C_3
REMARK    3  A    between atoms: C_10  and  C_11
REMARK    4  A    between atoms: C_11  and  C_12
REMARK    5  A    between atoms: C_12  and  C_13
REMARK    6  A    between atoms: C_15  and  N_16
REMARK    7  A    between atoms: C_26  and  O_27
REMARK    8  A    between atoms: C_28  and  O_29
REMARK                            x       y       z     vdW  Elec       q    Type
REMARK                         _______ _______ _______ _____ _____    ______ ____
ROOT
ATOM      1  C   UNL     1       1.401   3.501  19.623  0.00  0.00    +0.000 C 
ATOM      2  C   UNL     1       1.972   4.011  18.285  0.00  0.00    +0.000 C 
ATOM      3  C   UNL     1       3.347   3.344  18.087  0.00  0.00    +0.000 C 
ATOM      4  C   UNL     1       3.458   2.295  19.203  0.00  0.00    +0.000 C 
ATOM      5  C   UNL     1       2.573   2.822  20.339  0.00  0.00    +0.000 C 
ENDROOT
BRANCH   3   6
ATOM      6  N   UNL     1       4.461   4.283  18.016  0.00  0.00    +0.000 N 
ATOM      7  C   UNL     1       5.022   4.889  19.119  0.00  0.00    +0.000 A 
ATOM      8  C   UNL     1       6.074   5.673  18.693  0.00  0.00    +0.000 A 
ATOM      9  C   UNL     1       6.164   5.542  17.282  0.00  0.00    +0.000 A 
ATOM     10  C   UNL     1       6.994   6.044  16.268  0.00  0.00    +0.000 A 
ATOM     11  N   UNL     1       8.062   6.897  16.498  0.00  0.00    +0.000 N 
ATOM     12  N   UNL     1       6.754   5.687  14.992  0.00  0.00    +0.000 NA
ATOM     13  C   UNL     1       5.743   4.834  14.752  0.00  0.00    +0.000 A 
ATOM     14  N   UNL     1       4.899   4.279  15.637  0.00  0.00    +0.000 NA
ATOM     15  C   UNL     1       5.150   4.675  16.892  0.00  0.00    +0.000 A 
ATOM     16  H   UNL     1       8.015   7.449  17.341  0.00  0.00    +0.000 HD
ATOM     17  H   UNL     1       8.346   7.370  15.649  0.00  0.00    +0.000 HD
ENDBRANCH   3   6
BRANCH   4  18
ATOM     18  O   UNL     1       2.935   1.025  18.756  0.00  0.00    +0.000 OA
ATOM     19  H   UNL     1       3.678   0.405  18.642  0.00  0.00    +0.000 HD
ENDBRANCH   4  18
BRANCH   5  20
ATOM     20  O   UNL     1       2.098   1.759  21.163  0.00  0.00    +0.000 OA
ATOM     21  H   UNL     1       2.856   1.459  21.703  0.00  0.00    +0.000 HD
ENDBRANCH   5  20
BRANCH   1  22
ATOM     22  C   UNL     1       0.734   4.635  20.418  0.00  0.00    +0.000 C 
BRANCH  22  23
ATOM     23  C   UNL     1       1.727   5.631  21.024  0.00  0.00    +0.000 C 
BRANCH  23  33
ATOM     24  C   UNL     1      -1.639  11.864  22.702  0.00  0.00    +0.000 C 
ATOM     25  N   UNL     1      -1.083  12.358  21.446  0.00  0.00    +0.000 N 
ATOM     26  C   UNL     1      -1.920  13.263  20.669  0.00  0.00    +0.000 C 
ATOM     27  C   UNL     1      -0.318  11.423  20.732  0.00  0.00    +0.000 A 
ATOM     28  C   UNL     1       0.277  11.773  19.521  0.00  0.00    +0.000 A 
ATOM     29  C   UNL     1       1.041  10.844  18.821  0.00  0.00    +0.000 A 
ATOM     30  C   UNL     1       1.220   9.566  19.342  0.00  0.00    +0.000 A 
ATOM     31  C   UNL     1       1.985   8.601  18.668  0.00  0.00    +0.000 A 
ATOM     32  C   UNL     1       2.154   7.332  19.210  0.00  0.00    +0.000 A 
ATOM     33  C   UNL     1       1.557   7.012  20.433  0.00  0.00    +0.000 A 
ATOM     34  C   UNL     1       0.789   7.989  21.092  0.00  0.00    +0.000 A 
ATOM     35  C   UNL     1       0.606   9.271  20.574  0.00  0.00    +0.000 A 
ATOM     36  N   UNL     1      -0.134  10.181  21.245  0.00  0.00    +0.000 NA
ENDBRANCH  23  33
ENDBRANCH  22  23
ENDBRANCH   1  22
TORSDOF 6
ENDMDL
MODEL 5
REMARK VINA RESULT:      -8.9      1.277      1.598
REMARK  Name = 
REMARK  8 active torsions:
REMARK  status: ('A' for Active; 'I' for Inactive)
REMARK    1  A    between atoms: C_1  and  N_2
REMARK    2  A    between atoms: N_2  and  C_3
REMARK    3  A    between atoms: C_10  and  C_11
REMARK    4  A    between atoms: C_11  and  C_12
REMARK    5  A    between atoms: C_12  and  C_13
REMARK    6  A    between atoms: C_15  and  N_16
REMARK    7  A    between atoms: C_26  and  O_27
REMARK    8  A    between atoms: C_28  and  O_29
REMARK                            x       y       z     vdW  Elec       q    Type
REMARK                         _______ _______ _______ _____ _____    ______ ____
ROOT
ATOM      1  C   UNL     1       1.698   4.132  19.936  0.00  0.00    +0.000 C 
ATOM      2  C   UNL     1       1.765   4.300  18.405  0.00  0.00    +0.000 C 
ATOM      3  C   UNL     1       2.850   3.337  17.884  0.00  0.00    +0.000 C 
ATOM      4  C   UNL     1       3.243   2.471  19.090  0.00  0.00    +0.000 C 
ATOM      5  C   UNL     1       2.952   3.339  20.319  0.00  0.00    +0.000 C 
ENDROOT
BRANCH   3   6
ATOM      6  N   UNL     1       3.964   3.999  17.215  0.00  0.00    +0.000 N 
ATOM      7  C   UNL     1       4.085   4.095  15.846  0.00  0.00    +0.000 A 
ATOM      8  C   UNL     1       5.225   4.819  15.563  0.00  0.00    +0.000 A 
ATOM      9  C   UNL     1       5.822   5.182  16.799  0.00  0.00    +0.000 A 
ATOM     10  C   UNL     1       6.952   5.908  17.205  0.00  0.00    +0.000 A 
ATOM     11  N   UNL     1       7.836   6.513  16.326  0.00  0.00    +0.000 N 
ATOM     12  N   UNL     1       7.207   6.035  18.521  0.00  0.00    +0.000 NA
ATOM     13  C   UNL     1       6.343   5.485  19.391  0.00  0.00    +0.000 A 
ATOM     14  N   UNL     1       5.228   4.787  19.122  0.00  0.00    +0.000 NA
ATOM     15  C   UNL     1       5.018   4.658  17.805  0.00  0.00    +0.000 A 
ATOM     16  H   UNL     1       7.876   6.121  15.397  0.00  0.00    +0.000 HD
ATOM     17  H   UNL     1       8.717   6.728  16.777  0.00  0.00    +0.000 HD
ENDBRANCH   3   6
BRANCH   4  18
ATOM     18  O   UNL     1       2.421   1.286  19.151  0.00  0.00    +0.000 OA
ATOM     19  H   UNL     1       2.907   0.547  18.744  0.00  0.00    +0.000 HD
ENDBRANCH   4  18
BRANCH   5  20
ATOM     20  O   UNL     1       2.697   2.539  21.471  0.00  0.00    +0.000 OA
ATOM     21  H   UNL     1       2.408   1.662  21.149  0.00  0.00    +0.000 HD
ENDBRANCH   5  20
BRANCH   1  22
ATOM     22  C   UNL     1       1.555   5.488  20.644  0.00  0.00    +0.000 C 
BRANCH  22  23
ATOM     23  C   UNL     1       2.559   6.542  20.169  0.00  0.00    +0.000 C 
BRANCH  23  33
ATOM     24  C   UNL     1      -1.814  11.557  23.121  0.00  0.00    +0.000 C 
ATOM     25  N   UNL     1      -1.768  12.191  21.808  0.00  0.00    +0.000 N 
ATOM     26  C   UNL     1      -2.996  12.821  21.341  0.00  0.00    +0.000 C 
ATOM     27  C   UNL     1      -0.995  11.512  20.853  0.00  0.00    +0.000 A 
ATOM     28  C   UNL     1      -0.862  12.019  19.561  0.00  0.00    +0.000 A 
ATOM     29  C   UNL     1      -0.087  11.347  18.621  0.00  0.00    +0.000 A 
ATOM     30  C   UNL     1       0.567  10.172  18.979  0.00  0.00    +0.000 A 
ATOM     31  C   UNL     1       1.359   9.466  18.061  0.00  0.00    +0.000 A 
ATOM     32  C   UNL     1       2.007   8.296  18.443  0.00  0.00    +0.000 A 
ATOM     33  C   UNL     1       1.867   7.817  19.749  0.00  0.00    +0.000 A 
ATOM     34  C   UNL     1       1.064   8.535  20.655  0.00  0.00    +0.000 A 
ATOM     35  C   UNL     1       0.407   9.712  20.301  0.00  0.00    +0.000 A 
ATOM     36  N   UNL     1      -0.348  10.373  21.205  0.00  0.00    +0.000 NA
ENDBRANCH  23  33
ENDBRANCH  22  23
ENDBRANCH   1  22
TORSDOF 6
ENDMDL
MODEL 6
REMARK VINA RESULT:      -8.8      3.428      9.109
REMARK  Name = 
REMARK  8 active torsions:
REMARK  status: ('A' for Active; 'I' for Inactive)
REMARK    1  A    between atoms: C_1  and  N_2
REMARK    2  A    between atoms: N_2  and  C_3
REMARK    3  A    between atoms: C_10  and  C_11
REMARK    4  A    between atoms: C_11  and  C_12
REMARK    5  A    between atoms: C_12  and  C_13
REMARK    6  A    between atoms: C_15  and  N_16
REMARK    7  A    between atoms: C_26  and  O_27
REMARK    8  A    between atoms: C_28  and  O_29
REMARK                            x       y       z     vdW  Elec       q    Type
REMARK                         _______ _______ _______ _____ _____    ______ ____
ROOT
ATOM      1  C   UNL     1       1.130   9.745  21.696  0.00  0.00    +0.000 C 
ATOM      2  C   UNL     1       0.976  10.793  20.576  0.00  0.00    +0.000 C 
ATOM      3  C   UNL     1      -0.428  11.414  20.717  0.00  0.00    +0.000 C 
ATOM      4  C   UNL     1      -0.984  10.873  22.042  0.00  0.00    +0.000 C 
ATOM      5  C   UNL     1      -0.281   9.528  22.254  0.00  0.00    +0.000 C 
ENDROOT
BRANCH   3   6
ATOM      6  N   UNL     1      -1.290  11.206  19.560  0.00  0.00    +0.000 N 
ATOM      7  C   UNL     1      -0.938  10.435  18.473  0.00  0.00    +0.000 A 
ATOM      8  C   UNL     1      -2.000  10.420  17.592  0.00  0.00    +0.000 A 
ATOM      9  C   UNL     1      -3.040  11.205  18.158  0.00  0.00    +0.000 A 
ATOM     10  C   UNL     1      -4.345  11.571  17.796  0.00  0.00    +0.000 A 
ATOM     11  N   UNL     1      -4.966  11.159  16.627  0.00  0.00    +0.000 N 
ATOM     12  N   UNL     1      -5.050  12.369  18.620  0.00  0.00    +0.000 NA
ATOM     13  C   UNL     1      -4.479  12.752  19.775  0.00  0.00    +0.000 A 
ATOM     14  N   UNL     1      -3.252  12.452  20.232  0.00  0.00    +0.000 NA
ATOM     15  C   UNL     1      -2.569  11.679  19.377  0.00  0.00    +0.000 A 
ATOM     16  H   UNL     1      -4.354  10.904  15.866  0.00  0.00    +0.000 HD
ATOM     17  H   UNL     1      -5.763  11.744  16.406  0.00  0.00    +0.000 HD
ENDBRANCH   3   6
BRANCH   4  18
ATOM     18  O   UNL     1      -0.639  11.755  23.132  0.00  0.00    +0.000 OA
ATOM     19  H   UNL     1      -1.237  12.525  23.111  0.00  0.00    +0.000 HD
ENDBRANCH   4  18
BRANCH   5  20
ATOM     20  O   UNL     1      -0.217   9.187  23.637  0.00  0.00    +0.000 OA
ATOM     21  H   UNL     1      -0.358  10.014  24.139  0.00  0.00    +0.000 HD
ENDBRANCH   5  20
BRANCH   1  22
ATOM     22  C   UNL     1       1.819   8.471  21.182  0.00  0.00    +0.000 C 
BRANCH  22  23
ATOM     23  C   UNL     1       0.920   7.232  21.201  0.00  0.00    +0.000 C 
BRANCH  23  33
ATOM     24  C   UNL     1       6.492   6.163  16.639  0.00  0.00    +0.000 C 
ATOM     25  N   UNL     1       6.037   4.776  16.606  0.00  0.00    +0.000 N 
ATOM     26  C   UNL     1       6.142   4.082  15.329  0.00  0.00    +0.000 C 
ATOM     27  C   UNL     1       4.902   4.510  17.386  0.00  0.00    +0.000 A 
ATOM     28  C   UNL     1       4.373   3.221  17.448  0.00  0.00    +0.000 A 
ATOM     29  C   UNL     1       3.252   2.961  18.231  0.00  0.00    +0.000 A 
ATOM     30  C   UNL     1       2.668   3.990  18.964  0.00  0.00    +0.000 A 
ATOM     31  C   UNL     1       1.538   3.768  19.766  0.00  0.00    +0.000 A 
ATOM     32  C   UNL     1       0.974   4.811  20.493  0.00  0.00    +0.000 A 
ATOM     33  C   UNL     1       1.533   6.090  20.423  0.00  0.00    +0.000 A 
ATOM     34  C   UNL     1       2.662   6.297  19.608  0.00  0.00    +0.000 A 
ATOM     35  C   UNL     1       3.251   5.269  18.873  0.00  0.00    +0.000 A 
ATOM     36  N   UNL     1       4.339   5.510  18.109  0.00  0.00    +0.000 NA
ENDBRANCH  23  33
ENDBRANCH  22  23
ENDBRANCH   1  22
TORSDOF 6
ENDMDL
MODEL 7
REMARK VINA RESULT:      -8.8      4.920      7.185
REMARK  Name = 
REMARK  8 active torsions:
REMARK  status: ('A' for Active; 'I' for Inactive)
REMARK    1  A    between atoms: C_1  and  N_2
REMARK    2  A    between atoms: N_2  and  C_3
REMARK    3  A    between atoms: C_10  and  C_11
REMARK    4  A    between atoms: C_11  and  C_12
REMARK    5  A    between atoms: C_12  and  C_13
REMARK    6  A    between atoms: C_15  and  N_16
REMARK    7  A    between atoms: C_26  and  O_27
REMARK    8  A    between atoms: C_28  and  O_29
REMARK                            x       y       z     vdW  Elec       q    Type
REMARK                         _______ _______ _______ _____ _____    ______ ____
ROOT
ATOM      1  C   UNL     1       7.770   6.698  18.023  0.00  0.00    +0.000 C 
ATOM      2  C   UNL     1       7.241   5.894  19.227  0.00  0.00    +0.000 C 
ATOM      3  C   UNL     1       6.404   4.726  18.669  0.00  0.00    +0.000 C 
ATOM      4  C   UNL     1       6.638   4.744  17.152  0.00  0.00    +0.000 C 
ATOM      5  C   UNL     1       6.972   6.201  16.813  0.00  0.00    +0.000 C 
ENDROOT
BRANCH   3   6
ATOM      6  N   UNL     1       5.004   4.750  19.074  0.00  0.00    +0.000 N 
ATOM      7  C   UNL     1       4.342   5.891  19.472  0.00  0.00    +0.000 A 
ATOM      8  C   UNL     1       3.029   5.558  19.738  0.00  0.00    +0.000 A 
ATOM      9  C   UNL     1       2.880   4.168  19.492  0.00  0.00    +0.000 A 
ATOM     10  C   UNL     1       1.833   3.234  19.552  0.00  0.00    +0.000 A 
ATOM     11  N   UNL     1       0.535   3.554  19.916  0.00  0.00    +0.000 N 
ATOM     12  N   UNL     1       2.087   1.949  19.241  0.00  0.00    +0.000 NA
ATOM     13  C   UNL     1       3.333   1.625  18.852  0.00  0.00    +0.000 A 
ATOM     14  N   UNL     1       4.403   2.430  18.742  0.00  0.00    +0.000 NA
ATOM     15  C   UNL     1       4.121   3.694  19.083  0.00  0.00    +0.000 A 
ATOM     16  H   UNL     1       0.425   4.375  20.493  0.00  0.00    +0.000 HD
ATOM     17  H   UNL     1       0.011   2.729  20.179  0.00  0.00    +0.000 HD
ENDBRANCH   3   6
BRANCH   4  18
ATOM     18  O   UNL     1       7.768   3.914  16.805  0.00  0.00    +0.000 OA
ATOM     19  H   UNL     1       8.501   4.490  16.519  0.00  0.00    +0.000 HD
ENDBRANCH   4  18
BRANCH   5  20
ATOM     20  O   UNL     1       7.763   6.291  15.630  0.00  0.00    +0.000 OA
ATOM     21  H   UNL     1       7.208   5.970  14.893  0.00  0.00    +0.000 HD
ENDBRANCH   5  20
BRANCH   1  22
ATOM     22  C   UNL     1       7.678   8.212  18.274  0.00  0.00    +0.000 C 
BRANCH  22  23
ATOM     23  C   UNL     1       8.766   9.022  17.564  0.00  0.00    +0.000 C 
BRANCH  23  33
ATOM     24  C   UNL     1       7.793  11.627  24.292  0.00  0.00    +0.000 C 
ATOM     25  N   UNL     1       8.593  12.758  23.836  0.00  0.00    +0.000 N 
ATOM     26  C   UNL     1       8.213  14.074  24.335  0.00  0.00    +0.000 C 
ATOM     27  C   UNL     1       9.018  12.680  22.500  0.00  0.00    +0.000 A 
ATOM     28  C   UNL     1       9.797  13.693  21.946  0.00  0.00    +0.000 A 
ATOM     29  C   UNL     1      10.223  13.606  20.624  0.00  0.00    +0.000 A 
ATOM     30  C   UNL     1       9.878  12.495  19.860  0.00  0.00    +0.000 A 
ATOM     31  C   UNL     1      10.288  12.369  18.524  0.00  0.00    +0.000 A 
ATOM     32  C   UNL     1       9.935  11.247  17.781  0.00  0.00    +0.000 A 
ATOM     33  C   UNL     1       9.163  10.239  18.367  0.00  0.00    +0.000 A 
ATOM     34  C   UNL     1       8.755  10.385  19.706  0.00  0.00    +0.000 A 
ATOM     35  C   UNL     1       9.098  11.496  20.475  0.00  0.00    +0.000 A 
ATOM     36  N   UNL     1       8.691  11.592  21.760  0.00  0.00    +0.000 NA
ENDBRANCH  23  33
ENDBRANCH  22  23
ENDBRANCH   1  22
TORSDOF 6
ENDMDL
MODEL 8
REMARK VINA RESULT:      -8.6      4.060     10.361
REMARK  Name = 
REMARK  8 active torsions:
REMARK  status: ('A' for Active; 'I' for Inactive)
REMARK    1  A    between atoms: C_1  and  N_2
REMARK    2  A    between atoms: N_2  and  C_3
REMARK    3  A    between atoms: C_10  and  C_11
REMARK    4  A    between atoms: C_11  and  C_12
REMARK    5  A    between atoms: C_12  and  C_13
REMARK    6  A    between atoms: C_15  and  N_16
REMARK    7  A    between atoms: C_26  and  O_27
REMARK    8  A    between atoms: C_28  and  O_29
REMARK                            x       y       z     vdW  Elec       q    Type
REMARK                         _______ _______ _______ _____ _____    ______ ____
ROOT
ATOM      1  C   UNL     1      -0.381  11.189  18.811  0.00  0.00    +0.000 C 
ATOM      2  C   UNL     1      -1.102  10.714  20.089  0.00  0.00    +0.000 C 
ATOM      3  C   UNL     1      -2.266  11.690  20.350  0.00  0.00    +0.000 C 
ATOM      4  C   UNL     1      -2.337  12.586  19.105  0.00  0.00    +0.000 C 
ATOM      5  C   UNL     1      -0.912  12.601  18.540  0.00  0.00    +0.000 C 
ENDROOT
BRANCH   3   6
ATOM      6  N   UNL     1      -2.172  12.405  21.616  0.00  0.00    +0.000 N 
ATOM      7  C   UNL     1      -0.988  12.874  22.143  0.00  0.00    +0.000 A 
ATOM      8  C   UNL     1      -1.271  13.537  23.320  0.00  0.00    +0.000 A 
ATOM      9  C   UNL     1      -2.675  13.475  23.522  0.00  0.00    +0.000 A 
ATOM     10  C   UNL     1      -3.584  13.946  24.482  0.00  0.00    +0.000 A 
ATOM     11  N   UNL     1      -3.215  14.688  25.593  0.00  0.00    +0.000 N 
ATOM     12  N   UNL     1      -4.893  13.669  24.332  0.00  0.00    +0.000 NA
ATOM     13  C   UNL     1      -5.275  12.979  23.243  0.00  0.00    +0.000 A 
ATOM     14  N   UNL     1      -4.504  12.496  22.256  0.00  0.00    +0.000 NA
ATOM     15  C   UNL     1      -3.206  12.767  22.450  0.00  0.00    +0.000 A 
ATOM     16  H   UNL     1      -2.263  14.573  25.907  0.00  0.00    +0.000 HD
ATOM     17  H   UNL     1      -3.941  14.681  26.299  0.00  0.00    +0.000 HD
ENDBRANCH   3   6
BRANCH   4  18
ATOM     18  O   UNL     1      -3.223  12.015  18.119  0.00  0.00    +0.000 OA
ATOM     19  H   UNL     1      -2.991  12.376  17.245  0.00  0.00    +0.000 HD
ENDBRANCH   4  18
BRANCH   5  20
ATOM     20  O   UNL     1      -0.912  12.866  17.139  0.00  0.00    +0.000 OA
ATOM     21  H   UNL     1      -0.337  13.645  16.998  0.00  0.00    +0.000 HD
ENDBRANCH   5  20
BRANCH   1  22
ATOM     22  C   UNL     1       1.146  11.095  18.960  0.00  0.00    +0.000 C 
BRANCH  22  23
ATOM     23  C   UNL     1       1.788  10.033  18.063  0.00  0.00    +0.000 C 
BRANCH  23  33
ATOM     24  C   UNL     1       4.464   3.396  16.729  0.00  0.00    +0.000 C 
ATOM     25  N   UNL     1       4.010   3.077  18.079  0.00  0.00    +0.000 N 
ATOM     26  C   UNL     1       3.472   1.740  18.291  0.00  0.00    +0.000 C 
ATOM     27  C   UNL     1       3.380   4.134  18.753  0.00  0.00    +0.000 A 
ATOM     28  C   UNL     1       2.909   3.962  20.054  0.00  0.00    +0.000 A 
ATOM     29  C   UNL     1       2.293   5.016  20.722  0.00  0.00    +0.000 A 
ATOM     30  C   UNL     1       2.160   6.249  20.090  0.00  0.00    +0.000 A 
ATOM     31  C   UNL     1       1.546   7.337  20.729  0.00  0.00    +0.000 A 
ATOM     32  C   UNL     1       1.428   8.561  20.080  0.00  0.00    +0.000 A 
ATOM     33  C   UNL     1       1.922   8.710  18.780  0.00  0.00    +0.000 A 
ATOM     34  C   UNL     1       2.528   7.607  18.151  0.00  0.00    +0.000 A 
ATOM     35  C   UNL     1       2.664   6.370  18.780  0.00  0.00    +0.000 A 
ATOM     36  N   UNL     1       3.261   5.339  18.142  0.00  0.00    +0.000 NA
ENDBRANCH  23  33
ENDBRANCH  22  23
ENDBRANCH   1  22
TORSDOF 6
ENDMDL
MODEL 9
REMARK VINA RESULT:      -8.6      3.563      9.103
REMARK  Name = 
REMARK  8 active torsions:
REMARK  status: ('A' for Active; 'I' for Inactive)
REMARK    1  A    between atoms: C_1  and  N_2
REMARK    2  A    between atoms: N_2  and  C_3
REMARK    3  A    between atoms: C_10  and  C_11
REMARK    4  A    between atoms: C_11  and  C_12
REMARK    5  A    between atoms: C_12  and  C_13
REMARK    6  A    between atoms: C_15  and  N_16
REMARK    7  A    between atoms: C_26  and  O_27
REMARK    8  A    between atoms: C_28  and  O_29
REMARK                            x       y       z     vdW  Elec       q    Type
REMARK                         _______ _______ _______ _____ _____    ______ ____
ROOT
ATOM      1  C   UNL     1       0.652   9.379  20.776  0.00  0.00    +0.000 C 
ATOM      2  C   UNL     1       0.263  10.086  19.462  0.00  0.00    +0.000 C 
ATOM      3  C   UNL     1      -0.360  11.445  19.838  0.00  0.00    +0.000 C 
ATOM      4  C   UNL     1      -0.126  11.599  21.348  0.00  0.00    +0.000 C 
ATOM      5  C   UNL     1      -0.044  10.167  21.890  0.00  0.00    +0.000 C 
ENDROOT
BRANCH   3   6
ATOM      6  N   UNL     1      -1.745  11.603  19.413  0.00  0.00    +0.000 N 
ATOM      7  C   UNL     1      -2.704  12.256  20.158  0.00  0.00    +0.000 A 
ATOM      8  C   UNL     1      -3.881  12.259  19.439  0.00  0.00    +0.000 A 
ATOM      9  C   UNL     1      -3.638  11.588  18.211  0.00  0.00    +0.000 A 
ATOM     10  C   UNL     1      -4.382  11.269  17.065  0.00  0.00    +0.000 A 
ATOM     11  N   UNL     1      -5.712  11.616  16.889  0.00  0.00    +0.000 N 
ATOM     12  N   UNL     1      -3.785  10.588  16.069  0.00  0.00    +0.000 NA
ATOM     13  C   UNL     1      -2.486  10.272  16.206  0.00  0.00    +0.000 A 
ATOM     14  N   UNL     1      -1.673  10.537  17.243  0.00  0.00    +0.000 NA
ATOM     15  C   UNL     1      -2.306  11.192  18.225  0.00  0.00    +0.000 A 
ATOM     16  H   UNL     1      -6.247  11.768  17.731  0.00  0.00    +0.000 HD
ATOM     17  H   UNL     1      -6.145  11.062  16.159  0.00  0.00    +0.000 HD
ENDBRANCH   3   6
BRANCH   4  18
ATOM     18  O   UNL     1       1.130  12.264  21.599  0.00  0.00    +0.000 OA
ATOM     19  H   UNL     1       1.215  12.417  22.558  0.00  0.00    +0.000 HD
ENDBRANCH   4  18
BRANCH   5  20
ATOM     20  O   UNL     1       0.725  10.109  23.089  0.00  0.00    +0.000 OA
ATOM     21  H   UNL     1       1.356  10.855  23.057  0.00  0.00    +0.000 HD
ENDBRANCH   5  20
BRANCH   1  22
ATOM     22  C   UNL     1       0.302   7.883  20.734  0.00  0.00    +0.000 C 
BRANCH  22  23
ATOM     23  C   UNL     1       1.370   6.981  21.360  0.00  0.00    +0.000 C 
BRANCH  23  33
ATOM     24  C   UNL     1       6.735   5.823  16.578  0.00  0.00    +0.000 C 
ATOM     25  N   UNL     1       6.080   4.541  16.341  0.00  0.00    +0.000 N 
ATOM     26  C   UNL     1       6.085   4.045  14.971  0.00  0.00    +0.000 C 
ATOM     27  C   UNL     1       4.915   4.327  17.094  0.00  0.00    +0.000 A 
ATOM     28  C   UNL     1       4.201   3.136  16.968  0.00  0.00    +0.000 A 
ATOM     29  C   UNL     1       3.051   2.925  17.724  0.00  0.00    +0.000 A 
ATOM     30  C   UNL     1       2.624   3.904  18.617  0.00  0.00    +0.000 A 
ATOM     31  C   UNL     1       1.471   3.729  19.398  0.00  0.00    +0.000 A 
ATOM     32  C   UNL     1       1.066   4.718  20.287  0.00  0.00    +0.000 A 
ATOM     33  C   UNL     1       1.809   5.897  20.403  0.00  0.00    +0.000 A 
ATOM     34  C   UNL     1       2.959   6.058  19.608  0.00  0.00    +0.000 A 
ATOM     35  C   UNL     1       3.391   5.081  18.712  0.00  0.00    +0.000 A 
ATOM     36  N   UNL     1       4.505   5.275  17.973  0.00  0.00    +0.000 NA
ENDBRANCH  23  33
ENDBRANCH  22  23
ENDBRANCH   1  22
TORSDOF 6
ENDMDL
