MODEL 1
REMARK VINA RESULT:      -8.0      0.000      0.000
REMARK  Name = 
REMARK  6 active torsions:
REMARK  status: ('A' for Active; 'I' for Inactive)
REMARK    1  A    between atoms: C_1  and  O_2
REMARK    2  A    between atoms: O_2  and  C_3
REMARK    3  A    between atoms: C_6  and  N_7
REMARK    4  A    between atoms: N_10  and  C_11
REMARK    5  A    between atoms: C_16  and  C_17
REMARK    6  A    between atoms: C_19  and  N_20
REMARK                            x       y       z     vdW  Elec       q    Type
REMARK                         _______ _______ _______ _____ _____    ______ ____
ROOT
ATOM      1  N   UNL     1       9.033   8.757  18.971  0.00  0.00    +0.000 N 
ATOM      2  C   UNL     1       8.028   8.200  18.197  0.00  0.00    +0.000 C 
ATOM      3  O   UNL     1       7.370   8.815  17.366  0.00  0.00    +0.000 OA
ATOM      4  N   UNL     1       7.841   6.846  18.493  0.00  0.00    +0.000 N 
ATOM      5  H   UNL     1       9.779   8.121  19.216  0.00  0.00    +0.000 HD
ATOM      6  H   UNL     1       7.954   6.645  19.479  0.00  0.00    +0.000 HD
ENDROOT
BRANCH   4   7
ATOM      7  C   UNL     1       6.814   6.142  17.826  0.00  0.00    +0.000 A 
ATOM      8  C   UNL     1       7.138   5.252  16.811  0.00  0.00    +0.000 A 
ATOM      9  C   UNL     1       6.177   4.321  16.399  0.00  0.00    +0.000 A 
ATOM     10  C   UNL     1       4.894   4.307  16.935  0.00  0.00    +0.000 A 
ATOM     11  N   UNL     1       4.091   3.253  16.734  0.00  0.00    +0.000 NA
ATOM     12  C   UNL     1       2.855   3.298  17.286  0.00  0.00    +0.000 A 
ATOM     13  C   UNL     1       2.516   2.155  18.226  0.00  0.00    +0.000 C 
ATOM     14  C   UNL     1       2.262   4.486  17.658  0.00  0.00    +0.000 A 
ATOM     15  C   UNL     1       3.134   5.440  18.139  0.00  0.00    +0.000 A 
ATOM     16  C   UNL     1       4.508   5.373  17.766  0.00  0.00    +0.000 A 
ATOM     17  C   UNL     1       5.487   6.253  18.250  0.00  0.00    +0.000 A 
BRANCH  15  18
ATOM     18  N   UNL     1       2.603   6.491  18.916  0.00  0.00    +0.000 N 
ATOM     19  H   UNL     1       1.703   6.247  19.322  0.00  0.00    +0.000 HD
ATOM     20  H   UNL     1       3.251   6.761  19.651  0.00  0.00    +0.000 HD
ENDBRANCH  15  18
ENDBRANCH   4   7
BRANCH   1  24
ATOM     21  C   UNL     1       9.875  12.887  19.352  0.00  0.00    +0.000 A 
ATOM     22  C   UNL     1       9.858  12.301  18.088  0.00  0.00    +0.000 A 
ATOM     23  C   UNL     1       9.555  10.943  17.939  0.00  0.00    +0.000 A 
ATOM     24  C   UNL     1       9.307  10.144  19.058  0.00  0.00    +0.000 A 
ATOM     25  C   UNL     1       9.303  10.740  20.325  0.00  0.00    +0.000 A 
ATOM     26  C   UNL     1       9.595  12.105  20.472  0.00  0.00    +0.000 A 
BRANCH  21  28
ATOM     27  C   UNL     1      10.829  14.715  18.185  0.00  0.00    +0.000 C 
ATOM     28  O   UNL     1      10.212  14.212  19.362  0.00  0.00    +0.000 OA
ENDBRANCH  21  28
ENDBRANCH   1  24
TORSDOF 4
ENDMDL
MODEL 2
REMARK VINA RESULT:      -8.0      5.147      7.231
REMARK  Name = 
REMARK  6 active torsions:
REMARK  status: ('A' for Active; 'I' for Inactive)
REMARK    1  A    between atoms: C_1  and  O_2
REMARK    2  A    between atoms: O_2  and  C_3
REMARK    3  A    between atoms: C_6  and  N_7
REMARK    4  A    between atoms: N_10  and  C_11
REMARK    5  A    between atoms: C_16  and  C_17
REMARK    6  A    between atoms: C_19  and  N_20
REMARK                            x       y       z     vdW  Elec       q    Type
REMARK                         _______ _______ _______ _____ _____    ______ ____
ROOT
ATOM      1  N   UNL     1       1.513   7.577  21.204  0.00  0.00    +0.000 N 
ATOM      2  C   UNL     1       2.226   7.038  20.146  0.00  0.00    +0.000 C 
ATOM      3  O   UNL     1       2.428   7.610  19.081  0.00  0.00    +0.000 OA
ATOM      4  N   UNL     1       2.674   5.745  20.433  0.00  0.00    +0.000 N 
ATOM      5  H   UNL     1       1.818   7.272  22.118  0.00  0.00    +0.000 HD
ATOM      6  H   UNL     1       2.004   5.213  20.976  0.00  0.00    +0.000 HD
ENDROOT
BRANCH   4   7
ATOM      7  C   UNL     1       3.375   5.033  19.434  0.00  0.00    +0.000 A 
ATOM      8  C   UNL     1       2.672   4.259  18.520  0.00  0.00    +0.000 A 
ATOM      9  C   UNL     1       3.318   3.845  17.350  0.00  0.00    +0.000 A 
ATOM     10  C   UNL     1       4.657   4.136  17.110  0.00  0.00    +0.000 A 
ATOM     11  N   UNL     1       5.173   3.975  15.884  0.00  0.00    +0.000 NA
ATOM     12  C   UNL     1       6.481   4.280  15.714  0.00  0.00    +0.000 A 
ATOM     13  C   UNL     1       6.778   5.324  14.652  0.00  0.00    +0.000 C 
ATOM     14  C   UNL     1       7.364   4.332  16.772  0.00  0.00    +0.000 A 
ATOM     15  C   UNL     1       6.821   4.793  17.954  0.00  0.00    +0.000 A 
ATOM     16  C   UNL     1       5.414   4.691  18.156  0.00  0.00    +0.000 A 
ATOM     17  C   UNL     1       4.756   5.186  19.291  0.00  0.00    +0.000 A 
BRANCH  15  18
ATOM     18  N   UNL     1       7.704   5.271  18.944  0.00  0.00    +0.000 N 
ATOM     19  H   UNL     1       8.677   5.106  18.700  0.00  0.00    +0.000 HD
ATOM     20  H   UNL     1       7.554   6.263  19.115  0.00  0.00    +0.000 HD
ENDBRANCH  15  18
ENDBRANCH   4   7
BRANCH   1  24
ATOM     21  C   UNL     1      -0.734  11.163  21.126  0.00  0.00    +0.000 A 
ATOM     22  C   UNL     1      -0.298  10.596  19.930  0.00  0.00    +0.000 A 
ATOM     23  C   UNL     1       0.422   9.397  19.933  0.00  0.00    +0.000 A 
ATOM     24  C   UNL     1       0.753   8.771  21.138  0.00  0.00    +0.000 A 
ATOM     25  C   UNL     1       0.295   9.330  22.337  0.00  0.00    +0.000 A 
ATOM     26  C   UNL     1      -0.438  10.526  22.332  0.00  0.00    +0.000 A 
BRANCH  21  28
ATOM     27  C   UNL     1      -2.254  12.460  19.855  0.00  0.00    +0.000 C 
ATOM     28  O   UNL     1      -1.403  12.347  20.987  0.00  0.00    +0.000 OA
ENDBRANCH  21  28
ENDBRANCH   1  24
TORSDOF 4
ENDMDL
MODEL 3
REMARK VINA RESULT:      -7.8      5.058      6.958
REMARK  Name = 
REMARK  6 active torsions:
REMARK  status: ('A' for Active; 'I' for Inactive)
REMARK    1  A    between atoms: C_1  and  O_2
REMARK    2  A    between atoms: O_2  and  C_3
REMARK    3  A    between atoms: C_6  and  N_7
REMARK    4  A    between atoms: N_10  and  C_11
REMARK    5  A    between atoms: C_16  and  C_17
REMARK    6  A    between atoms: C_19  and  N_20
REMARK                            x       y       z     vdW  Elec       q    Type
REMARK                         _______ _______ _______ _____ _____    ______ ____
ROOT
ATOM      1  N   UNL     1       1.209   8.432  20.693  0.00  0.00    +0.000 N 
ATOM      2  C   UNL     1       1.987   7.736  19.783  0.00  0.00    +0.000 C 
ATOM      3  O   UNL     1       2.367   8.183  18.707  0.00  0.00    +0.000 OA
ATOM      4  N   UNL     1       2.276   6.444  20.234  0.00  0.00    +0.000 N 
ATOM      5  H   UNL     1       1.375   8.192  21.661  0.00  0.00    +0.000 HD
ATOM      6  H   UNL     1       1.500   6.024  20.732  0.00  0.00    +0.000 HD
ENDROOT
BRANCH   4   7
ATOM      7  C   UNL     1       3.019   5.583  19.396  0.00  0.00    +0.000 A 
ATOM      8  C   UNL     1       2.356   4.760  18.495  0.00  0.00    +0.000 A 
ATOM      9  C   UNL     1       3.086   4.179  17.452  0.00  0.00    +0.000 A 
ATOM     10  C   UNL     1       4.460   4.356  17.331  0.00  0.00    +0.000 A 
ATOM     11  N   UNL     1       5.085   4.029  16.191  0.00  0.00    +0.000 NA
ATOM     12  C   UNL     1       6.423   4.229  16.136  0.00  0.00    +0.000 A 
ATOM     13  C   UNL     1       6.904   5.128  15.010  0.00  0.00    +0.000 C 
ATOM     14  C   UNL     1       7.195   4.341  17.272  0.00  0.00    +0.000 A 
ATOM     15  C   UNL     1       6.571   4.963  18.334  0.00  0.00    +0.000 A 
ATOM     16  C   UNL     1       5.147   4.973  18.391  0.00  0.00    +0.000 A 
ATOM     17  C   UNL     1       4.416   5.632  19.390  0.00  0.00    +0.000 A 
BRANCH  15  18
ATOM     18  N   UNL     1       7.381   5.490  19.361  0.00  0.00    +0.000 N 
ATOM     19  H   UNL     1       7.134   6.451  19.585  0.00  0.00    +0.000 HD
ATOM     20  H   UNL     1       7.326   4.915  20.198  0.00  0.00    +0.000 HD
ENDBRANCH  15  18
ENDBRANCH   4   7
BRANCH   1  24
ATOM     21  C   UNL     1      -0.590  12.195  19.972  0.00  0.00    +0.000 A 
ATOM     22  C   UNL     1      -0.928  11.104  19.173  0.00  0.00    +0.000 A 
ATOM     23  C   UNL     1      -0.365   9.846  19.413  0.00  0.00    +0.000 A 
ATOM     24  C   UNL     1       0.578   9.672  20.430  0.00  0.00    +0.000 A 
ATOM     25  C   UNL     1       0.899  10.764  21.245  0.00  0.00    +0.000 A 
ATOM     26  C   UNL     1       0.325  12.023  21.012  0.00  0.00    +0.000 A 
BRANCH  21  28
ATOM     27  C   UNL     1      -0.326  14.402  19.156  0.00  0.00    +0.000 C 
ATOM     28  O   UNL     1      -1.188  13.371  19.616  0.00  0.00    +0.000 OA
ENDBRANCH  21  28
ENDBRANCH   1  24
TORSDOF 4
ENDMDL
MODEL 4
REMARK VINA RESULT:      -7.7      5.067      7.236
REMARK  Name = 
REMARK  6 active torsions:
REMARK  status: ('A' for Active; 'I' for Inactive)
REMARK    1  A    between atoms: C_1  and  O_2
REMARK    2  A    between atoms: O_2  and  C_3
REMARK    3  A    between atoms: C_6  and  N_7
REMARK    4  A    between atoms: N_10  and  C_11
REMARK    5  A    between atoms: C_16  and  C_17
REMARK    6  A    between atoms: C_19  and  N_20
REMARK                            x       y       z     vdW  Elec       q    Type
REMARK                         _______ _______ _______ _____ _____    ______ ____
ROOT
ATOM      1  N   UNL     1       1.184   8.455  20.716  0.00  0.00    +0.000 N 
ATOM      2  C   UNL     1       1.957   7.758  19.803  0.00  0.00    +0.000 C 
ATOM      3  O   UNL     1       2.322   8.201  18.720  0.00  0.00    +0.000 OA
ATOM      4  N   UNL     1       2.259   6.471  20.259  0.00  0.00    +0.000 N 
ATOM      5  H   UNL     1       1.362   8.223  21.684  0.00  0.00    +0.000 HD
ATOM      6  H   UNL     1       1.491   6.050  20.768  0.00  0.00    +0.000 HD
ENDROOT
BRANCH   4   7
ATOM      7  C   UNL     1       2.999   5.610  19.419  0.00  0.00    +0.000 A 
ATOM      8  C   UNL     1       2.334   4.799  18.508  0.00  0.00    +0.000 A 
ATOM      9  C   UNL     1       3.064   4.219  17.465  0.00  0.00    +0.000 A 
ATOM     10  C   UNL     1       4.440   4.384  17.353  0.00  0.00    +0.000 A 
ATOM     11  N   UNL     1       5.068   4.059  16.214  0.00  0.00    +0.000 NA
ATOM     12  C   UNL     1       6.408   4.247  16.168  0.00  0.00    +0.000 A 
ATOM     13  C   UNL     1       6.904   5.151  15.052  0.00  0.00    +0.000 C 
ATOM     14  C   UNL     1       7.175   4.344  17.309  0.00  0.00    +0.000 A 
ATOM     15  C   UNL     1       6.551   4.964  18.372  0.00  0.00    +0.000 A 
ATOM     16  C   UNL     1       5.127   4.988  18.421  0.00  0.00    +0.000 A 
ATOM     17  C   UNL     1       4.396   5.645  19.421  0.00  0.00    +0.000 A 
BRANCH  15  18
ATOM     18  N   UNL     1       7.360   5.477  19.407  0.00  0.00    +0.000 N 
ATOM     19  H   UNL     1       7.548   6.470  19.288  0.00  0.00    +0.000 HD
ATOM     20  H   UNL     1       6.934   5.313  20.316  0.00  0.00    +0.000 HD
ENDBRANCH  15  18
ENDBRANCH   4   7
BRANCH   1  24
ATOM     21  C   UNL     1      -0.829  12.083  19.877  0.00  0.00    +0.000 A 
ATOM     22  C   UNL     1       0.235  12.077  20.776  0.00  0.00    +0.000 A 
ATOM     23  C   UNL     1       0.931  10.894  21.046  0.00  0.00    +0.000 A 
ATOM     24  C   UNL     1       0.542   9.690  20.451  0.00  0.00    +0.000 A 
ATOM     25  C   UNL     1      -0.513   9.702  19.531  0.00  0.00    +0.000 A 
ATOM     26  C   UNL     1      -1.203  10.892  19.252  0.00  0.00    +0.000 A 
BRANCH  21  28
ATOM     27  C   UNL     1      -2.444  13.620  20.674  0.00  0.00    +0.000 C 
ATOM     28  O   UNL     1      -1.441  13.295  19.723  0.00  0.00    +0.000 OA
ENDBRANCH  21  28
ENDBRANCH   1  24
TORSDOF 4
ENDMDL
MODEL 5
REMARK VINA RESULT:      -7.6      5.360      7.370
REMARK  Name = 
REMARK  6 active torsions:
REMARK  status: ('A' for Active; 'I' for Inactive)
REMARK    1  A    between atoms: C_1  and  O_2
REMARK    2  A    between atoms: O_2  and  C_3
REMARK    3  A    between atoms: C_6  and  N_7
REMARK    4  A    between atoms: N_10  and  C_11
REMARK    5  A    between atoms: C_16  and  C_17
REMARK    6  A    between atoms: C_19  and  N_20
REMARK                            x       y       z     vdW  Elec       q    Type
REMARK                         _______ _______ _______ _____ _____    ______ ____
ROOT
ATOM      1  N   UNL     1       0.662   9.744  19.157  0.00  0.00    +0.000 N 
ATOM      2  C   UNL     1       1.465   8.619  19.243  0.00  0.00    +0.000 C 
ATOM      3  O   UNL     1       1.754   8.050  20.289  0.00  0.00    +0.000 OA
ATOM      4  N   UNL     1       1.926   8.218  17.986  0.00  0.00    +0.000 N 
ATOM      5  H   UNL     1       0.121   9.813  18.306  0.00  0.00    +0.000 HD
ATOM      6  H   UNL     1       2.137   9.003  17.381  0.00  0.00    +0.000 HD
ENDROOT
BRANCH   4   7
ATOM      7  C   UNL     1       2.802   7.113  17.905  0.00  0.00    +0.000 A 
ATOM      8  C   UNL     1       2.308   5.828  18.085  0.00  0.00    +0.000 A 
ATOM      9  C   UNL     1       3.087   4.742  17.671  0.00  0.00    +0.000 A 
ATOM     10  C   UNL     1       4.363   4.915  17.144  0.00  0.00    +0.000 A 
ATOM     11  N   UNL     1       4.972   3.904  16.508  0.00  0.00    +0.000 NA
ATOM     12  C   UNL     1       6.211   4.137  16.014  0.00  0.00    +0.000 A 
ATOM     13  C   UNL     1       6.376   3.901  14.522  0.00  0.00    +0.000 C 
ATOM     14  C   UNL     1       7.005   5.163  16.480  0.00  0.00    +0.000 A 
ATOM     15  C   UNL     1       6.317   6.301  16.851  0.00  0.00    +0.000 A 
ATOM     16  C   UNL     1       4.943   6.193  17.211  0.00  0.00    +0.000 A 
ATOM     17  C   UNL     1       4.139   7.294  17.540  0.00  0.00    +0.000 A 
BRANCH  15  18
ATOM     18  N   UNL     1       7.037   7.511  16.933  0.00  0.00    +0.000 N 
ATOM     19  H   UNL     1       6.439   8.321  16.789  0.00  0.00    +0.000 HD
ATOM     20  H   UNL     1       7.514   7.589  17.828  0.00  0.00    +0.000 HD
ENDBRANCH  15  18
ENDBRANCH   4   7
BRANCH   1  24
ATOM     21  C   UNL     1      -0.646  12.130  22.400  0.00  0.00    +0.000 A 
ATOM     22  C   UNL     1      -0.694  10.742  22.502  0.00  0.00    +0.000 A 
ATOM     23  C   UNL     1      -0.241   9.936  21.452  0.00  0.00    +0.000 A 
ATOM     24  C   UNL     1       0.227  10.510  20.267  0.00  0.00    +0.000 A 
ATOM     25  C   UNL     1       0.295  11.905  20.175  0.00  0.00    +0.000 A 
ATOM     26  C   UNL     1      -0.148  12.713  21.233  0.00  0.00    +0.000 A 
BRANCH  21  28
ATOM     27  C   UNL     1      -1.094  14.219  23.421  0.00  0.00    +0.000 C 
ATOM     28  O   UNL     1      -1.143  12.801  23.482  0.00  0.00    +0.000 OA
ENDBRANCH  21  28
ENDBRANCH   1  24
TORSDOF 4
ENDMDL
MODEL 6
REMARK VINA RESULT:      -7.5      6.115      7.993
REMARK  Name = 
REMARK  6 active torsions:
REMARK  status: ('A' for Active; 'I' for Inactive)
REMARK    1  A    between atoms: C_1  and  O_2
REMARK    2  A    between atoms: O_2  and  C_3
REMARK    3  A    between atoms: C_6  and  N_7
REMARK    4  A    between atoms: N_10  and  C_11
REMARK    5  A    between atoms: C_16  and  C_17
REMARK    6  A    between atoms: C_19  and  N_20
REMARK                            x       y       z     vdW  Elec       q    Type
REMARK                         _______ _______ _______ _____ _____    ______ ____
ROOT
ATOM      1  N   UNL     1       1.147   9.660  21.803  0.00  0.00    +0.000 N 
ATOM      2  C   UNL     1       1.093   8.773  20.741  0.00  0.00    +0.000 C 
ATOM      3  O   UNL     1       0.264   8.817  19.839  0.00  0.00    +0.000 OA
ATOM      4  N   UNL     1       2.094   7.801  20.831  0.00  0.00    +0.000 N 
ATOM      5  H   UNL     1       2.075   9.834  22.161  0.00  0.00    +0.000 HD
ATOM      6  H   UNL     1       2.269   7.511  21.785  0.00  0.00    +0.000 HD
ENDROOT
BRANCH   4   7
ATOM      7  C   UNL     1       2.145   6.786  19.850  0.00  0.00    +0.000 A 
ATOM      8  C   UNL     1       2.843   7.004  18.669  0.00  0.00    +0.000 A 
ATOM      9  C   UNL     1       3.177   5.905  17.871  0.00  0.00    +0.000 A 
ATOM     10  C   UNL     1       2.776   4.613  18.198  0.00  0.00    +0.000 A 
ATOM     11  N   UNL     1       3.330   3.559  17.583  0.00  0.00    +0.000 NA
ATOM     12  C   UNL     1       2.900   2.329  17.948  0.00  0.00    +0.000 A 
ATOM     13  C   UNL     1       3.976   1.381  18.448  0.00  0.00    +0.000 C 
ATOM     14  C   UNL     1       1.687   2.132  18.574  0.00  0.00    +0.000 A 
ATOM     15  C   UNL     1       1.311   3.145  19.432  0.00  0.00    +0.000 A 
ATOM     16  C   UNL     1       1.857   4.448  19.248  0.00  0.00    +0.000 A 
ATOM     17  C   UNL     1       1.591   5.528  20.102  0.00  0.00    +0.000 A 
BRANCH  15  18
ATOM     18  N   UNL     1       0.333   2.856  20.407  0.00  0.00    +0.000 N 
ATOM     19  H   UNL     1      -0.601   3.112  20.098  0.00  0.00    +0.000 HD
ATOM     20  H   UNL     1       0.355   1.871  20.661  0.00  0.00    +0.000 HD
ENDBRANCH  15  18
ENDBRANCH   4   7
BRANCH   1  24
ATOM     21  C   UNL     1      -1.825  12.566  22.605  0.00  0.00    +0.000 A 
ATOM     22  C   UNL     1      -1.831  11.362  23.306  0.00  0.00    +0.000 A 
ATOM     23  C   UNL     1      -0.842  10.401  23.075  0.00  0.00    +0.000 A 
ATOM     24  C   UNL     1       0.143  10.614  22.106  0.00  0.00    +0.000 A 
ATOM     25  C   UNL     1       0.160  11.833  21.419  0.00  0.00    +0.000 A 
ATOM     26  C   UNL     1      -0.825  12.802  21.660  0.00  0.00    +0.000 A 
BRANCH  21  28
ATOM     27  C   UNL     1      -3.658  13.050  24.025  0.00  0.00    +0.000 C 
ATOM     28  O   UNL     1      -2.861  13.407  22.904  0.00  0.00    +0.000 OA
ENDBRANCH  21  28
ENDBRANCH   1  24
TORSDOF 4
ENDMDL
MODEL 7
REMARK VINA RESULT:      -7.5      5.292      7.370
REMARK  Name = 
REMARK  6 active torsions:
REMARK  status: ('A' for Active; 'I' for Inactive)
REMARK    1  A    between atoms: C_1  and  O_2
REMARK    2  A    between atoms: O_2  and  C_3
REMARK    3  A    between atoms: C_6  and  N_7
REMARK    4  A    between atoms: N_10  and  C_11
REMARK    5  A    between atoms: C_16  and  C_17
REMARK    6  A    between atoms: C_19  and  N_20
REMARK                            x       y       z     vdW  Elec       q    Type
REMARK                         _______ _______ _______ _____ _____    ______ ____
ROOT
ATOM      1  N   UNL     1       1.303   7.899  21.663  0.00  0.00    +0.000 N 
ATOM      2  C   UNL     1       1.915   7.316  20.566  0.00  0.00    +0.000 C 
ATOM      3  O   UNL     1       2.072   7.867  19.482  0.00  0.00    +0.000 OA
ATOM      4  N   UNL     1       2.321   6.006  20.838  0.00  0.00    +0.000 N 
ATOM      5  H   UNL     1       1.655   7.589  22.558  0.00  0.00    +0.000 HD
ATOM      6  H   UNL     1       1.665   5.512  21.433  0.00  0.00    +0.000 HD
ENDROOT
BRANCH   4   7
ATOM      7  C   UNL     1       2.917   5.251  19.804  0.00  0.00    +0.000 A 
ATOM      8  C   UNL     1       2.115   4.531  18.928  0.00  0.00    +0.000 A 
ATOM      9  C   UNL     1       2.669   4.078  17.726  0.00  0.00    +0.000 A 
ATOM     10  C   UNL     1       4.011   4.277  17.416  0.00  0.00    +0.000 A 
ATOM     11  N   UNL     1       4.449   4.085  16.164  0.00  0.00    +0.000 NA
ATOM     12  C   UNL     1       5.764   4.300  15.926  0.00  0.00    +0.000 A 
ATOM     13  C   UNL     1       6.076   5.325  14.849  0.00  0.00    +0.000 C 
ATOM     14  C   UNL     1       6.703   4.287  16.935  0.00  0.00    +0.000 A 
ATOM     15  C   UNL     1       6.256   4.780  18.144  0.00  0.00    +0.000 A 
ATOM     16  C   UNL     1       4.858   4.774  18.420  0.00  0.00    +0.000 A 
ATOM     17  C   UNL     1       4.297   5.310  19.588  0.00  0.00    +0.000 A 
BRANCH  15  18
ATOM     18  N   UNL     1       7.221   5.193  19.087  0.00  0.00    +0.000 N 
ATOM     19  H   UNL     1       8.134   4.786  18.901  0.00  0.00    +0.000 HD
ATOM     20  H   UNL     1       7.293   6.208  19.110  0.00  0.00    +0.000 HD
ENDBRANCH  15  18
ENDBRANCH   4   7
BRANCH   1  24
ATOM     21  C   UNL     1      -0.795  11.569  21.450  0.00  0.00    +0.000 A 
ATOM     22  C   UNL     1      -0.857  10.806  22.614  0.00  0.00    +0.000 A 
ATOM     23  C   UNL     1      -0.149   9.604  22.714  0.00  0.00    +0.000 A 
ATOM     24  C   UNL     1       0.598   9.127  21.632  0.00  0.00    +0.000 A 
ATOM     25  C   UNL     1       0.676   9.906  20.472  0.00  0.00    +0.000 A 
ATOM     26  C   UNL     1      -0.024  11.118  20.377  0.00  0.00    +0.000 A 
BRANCH  21  28
ATOM     27  C   UNL     1      -2.247  13.023  20.272  0.00  0.00    +0.000 C 
ATOM     28  O   UNL     1      -1.553  12.706  21.471  0.00  0.00    +0.000 OA
ENDBRANCH  21  28
ENDBRANCH   1  24
TORSDOF 4
ENDMDL
MODEL 8
REMARK VINA RESULT:      -7.5      5.347      7.247
REMARK  Name = 
REMARK  6 active torsions:
REMARK  status: ('A' for Active; 'I' for Inactive)
REMARK    1  A    between atoms: C_1  and  O_2
REMARK    2  A    between atoms: O_2  and  C_3
REMARK    3  A    between atoms: C_6  and  N_7
REMARK    4  A    between atoms: N_10  and  C_11
REMARK    5  A    between atoms: C_16  and  C_17
REMARK    6  A    between atoms: C_19  and  N_20
REMARK                            x       y       z     vdW  Elec       q    Type
REMARK                         _______ _______ _______ _____ _____    ______ ____
ROOT
ATOM      1  N   UNL     1       0.738   9.918  19.020  0.00  0.00    +0.000 N 
ATOM      2  C   UNL     1       1.535   8.793  19.144  0.00  0.00    +0.000 C 
ATOM      3  O   UNL     1       1.898   8.312  20.212  0.00  0.00    +0.000 OA
ATOM      4  N   UNL     1       1.896   8.277  17.896  0.00  0.00    +0.000 N 
ATOM      5  H   UNL     1       0.135   9.921  18.209  0.00  0.00    +0.000 HD
ATOM      6  H   UNL     1       2.068   9.003  17.211  0.00  0.00    +0.000 HD
ENDROOT
BRANCH   4   7
ATOM      7  C   UNL     1       2.755   7.156  17.848  0.00  0.00    +0.000 A 
ATOM      8  C   UNL     1       2.236   5.883  18.045  0.00  0.00    +0.000 A 
ATOM      9  C   UNL     1       3.002   4.777  17.662  0.00  0.00    +0.000 A 
ATOM     10  C   UNL     1       4.287   4.917  17.148  0.00  0.00    +0.000 A 
ATOM     11  N   UNL     1       4.886   3.884  16.539  0.00  0.00    +0.000 NA
ATOM     12  C   UNL     1       6.134   4.087  16.056  0.00  0.00    +0.000 A 
ATOM     13  C   UNL     1       6.313   3.819  14.571  0.00  0.00    +0.000 C 
ATOM     14  C   UNL     1       6.940   5.108  16.512  0.00  0.00    +0.000 A 
ATOM     15  C   UNL     1       6.268   6.264  16.852  0.00  0.00    +0.000 A 
ATOM     16  C   UNL     1       4.888   6.187  17.198  0.00  0.00    +0.000 A 
ATOM     17  C   UNL     1       4.099   7.307  17.495  0.00  0.00    +0.000 A 
BRANCH  15  18
ATOM     18  N   UNL     1       7.008   7.463  16.921  0.00  0.00    +0.000 N 
ATOM     19  H   UNL     1       6.697   8.060  17.684  0.00  0.00    +0.000 HD
ATOM     20  H   UNL     1       8.002   7.271  17.015  0.00  0.00    +0.000 HD
ENDBRANCH  15  18
ENDBRANCH   4   7
BRANCH   1  24
ATOM     21  C   UNL     1      -0.324  12.408  22.274  0.00  0.00    +0.000 A 
ATOM     22  C   UNL     1       0.533  12.891  21.288  0.00  0.00    +0.000 A 
ATOM     23  C   UNL     1       0.875  12.093  20.191  0.00  0.00    +0.000 A 
ATOM     24  C   UNL     1       0.395  10.784  20.088  0.00  0.00    +0.000 A 
ATOM     25  C   UNL     1      -0.484  10.309  21.068  0.00  0.00    +0.000 A 
ATOM     26  C   UNL     1      -0.836  11.114  22.162  0.00  0.00    +0.000 A 
BRANCH  21  28
ATOM     27  C   UNL     1      -1.897  13.716  23.468  0.00  0.00    +0.000 C 
ATOM     28  O   UNL     1      -0.556  13.275  23.305  0.00  0.00    +0.000 OA
ENDBRANCH  21  28
ENDBRANCH   1  24
TORSDOF 4
ENDMDL
MODEL 9
REMARK VINA RESULT:      -7.4      6.031      7.806
REMARK  Name = 
REMARK  6 active torsions:
REMARK  status: ('A' for Active; 'I' for Inactive)
REMARK    1  A    between atoms: C_1  and  O_2
REMARK    2  A    between atoms: O_2  and  C_3
REMARK    3  A    between atoms: C_6  and  N_7
REMARK    4  A    between atoms: N_10  and  C_11
REMARK    5  A    between atoms: C_16  and  C_17
REMARK    6  A    between atoms: C_19  and  N_20
REMARK                            x       y       z     vdW  Elec       q    Type
REMARK                         _______ _______ _______ _____ _____    ______ ____
ROOT
ATOM      1  N   UNL     1       1.210   9.715  21.676  0.00  0.00    +0.000 N 
ATOM      2  C   UNL     1       1.194   8.851  20.594  0.00  0.00    +0.000 C 
ATOM      3  O   UNL     1       0.460   8.969  19.620  0.00  0.00    +0.000 OA
ATOM      4  N   UNL     1       2.111   7.807  20.756  0.00  0.00    +0.000 N 
ATOM      5  H   UNL     1       2.110   9.815  22.124  0.00  0.00    +0.000 HD
ATOM      6  H   UNL     1       2.173   7.490  21.716  0.00  0.00    +0.000 HD
ENDROOT
BRANCH   4   7
ATOM      7  C   UNL     1       2.182   6.806  19.762  0.00  0.00    +0.000 A 
ATOM      8  C   UNL     1       2.921   7.033  18.608  0.00  0.00    +0.000 A 
ATOM      9  C   UNL     1       3.269   5.942  17.805  0.00  0.00    +0.000 A 
ATOM     10  C   UNL     1       2.843   4.651  18.099  0.00  0.00    +0.000 A 
ATOM     11  N   UNL     1       3.405   3.600  17.486  0.00  0.00    +0.000 NA
ATOM     12  C   UNL     1       2.950   2.369  17.819  0.00  0.00    +0.000 A 
ATOM     13  C   UNL     1       3.998   1.401  18.339  0.00  0.00    +0.000 C 
ATOM     14  C   UNL     1       1.715   2.177  18.401  0.00  0.00    +0.000 A 
ATOM     15  C   UNL     1       1.322   3.181  19.262  0.00  0.00    +0.000 A 
ATOM     16  C   UNL     1       1.888   4.481  19.116  0.00  0.00    +0.000 A 
ATOM     17  C   UNL     1       1.606   5.551  19.977  0.00  0.00    +0.000 A 
BRANCH  15  18
ATOM     18  N   UNL     1       0.310   2.889  20.200  0.00  0.00    +0.000 N 
ATOM     19  H   UNL     1       0.593   2.162  20.853  0.00  0.00    +0.000 HD
ATOM     20  H   UNL     1       0.038   3.725  20.712  0.00  0.00    +0.000 HD
ENDBRANCH  15  18
ENDBRANCH   4   7
BRANCH   1  24
ATOM     21  C   UNL     1      -1.680  12.706  22.465  0.00  0.00    +0.000 A 
ATOM     22  C   UNL     1      -0.684  12.942  21.520  0.00  0.00    +0.000 A 
ATOM     23  C   UNL     1       0.264  11.956  21.226  0.00  0.00    +0.000 A 
ATOM     24  C   UNL     1       0.253  10.735  21.905  0.00  0.00    +0.000 A 
ATOM     25  C   UNL     1      -0.762  10.491  22.838  0.00  0.00    +0.000 A 
ATOM     26  C   UNL     1      -1.720  11.476  23.124  0.00  0.00    +0.000 A 
BRANCH  21  28
ATOM     27  C   UNL     1      -3.913  13.455  22.711  0.00  0.00    +0.000 C 
ATOM     28  O   UNL     1      -2.525  13.758  22.680  0.00  0.00    +0.000 OA
ENDBRANCH  21  28
ENDBRANCH   1  24
TORSDOF 4
ENDMDL
