MODEL 1
REMARK VINA RESULT:      -6.2      0.000      0.000
REMARK  Name = 
REMARK  5 active torsions:
REMARK  status: ('A' for Active; 'I' for Inactive)
REMARK    1  A    between atoms: C_1  and  N_2
REMARK    2  A    between atoms: C_3  and  S_4
REMARK    3  A    between atoms: N_5  and  N_6
REMARK    4  A    between atoms: C_7  and  C_9
REMARK    5  A    between atoms: C_13  and  C_14
REMARK                            x       y       z     vdW  Elec       q    Type
REMARK                         _______ _______ _______ _____ _____    ______ ____
ROOT
ATOM      1  N   UNL     1       4.408   3.116  17.516  0.00  0.00    +0.000 N 
ATOM      2  C   UNL     1       4.439   3.446  18.861  0.00  0.00    +0.000 C 
ATOM      3  O   UNL     1       5.500   3.751  19.409  0.00  0.00    +0.000 OA
ATOM      4  H   UNL     1       3.539   2.968  17.006  0.00  0.00    +0.000 HD
ENDROOT
BRANCH   2   5
ATOM      5  C   UNL     1       3.148   3.403  19.553  0.00  0.00    +0.000 A 
ATOM      6  S   UNL     1       2.988   2.590  21.062  0.00  0.00    +0.000 S 
ATOM      7  C   UNL     1       1.339   2.983  21.191  0.00  0.00    +0.000 A 
ATOM      8  C   UNL     1       0.899   3.711  20.112  0.00  0.00    +0.000 A 
ATOM      9  C   UNL     1       1.935   3.957  19.148  0.00  0.00    +0.000 A 
ATOM     10  C   UNL     1       1.706   4.721  17.882  0.00  0.00    +0.000 C 
ENDBRANCH   2   5
BRANCH   1  14
ATOM     11  C   UNL     1       4.936   6.881  15.867  0.00  0.00    +0.000 C 
ATOM     12  N   UNL     1       4.873   5.577  16.499  0.00  0.00    +0.000 NA
ATOM     13  C   UNL     1       5.604   4.585  16.118  0.00  0.00    +0.000 C 
ATOM     14  N   UNL     1       5.540   3.355  16.729  0.00  0.00    +0.000 N 
ATOM     15  H   UNL     1       5.889   2.549  16.209  0.00  0.00    +0.000 HD
BRANCH  13  16
ATOM     16  S   UNL     1       6.778   4.615  14.814  0.00  0.00    +0.000 S 
ATOM     17  H   UNL     1       7.880   4.385  15.534  0.00  0.00    +0.000 HD
ENDBRANCH  13  16
ENDBRANCH   1  14
TORSDOF 3
ENDMDL
MODEL 2
REMARK VINA RESULT:      -5.8      4.286      5.557
REMARK  Name = 
REMARK  5 active torsions:
REMARK  status: ('A' for Active; 'I' for Inactive)
REMARK    1  A    between atoms: C_1  and  N_2
REMARK    2  A    between atoms: C_3  and  S_4
REMARK    3  A    between atoms: N_5  and  N_6
REMARK    4  A    between atoms: C_7  and  C_9
REMARK    5  A    between atoms: C_13  and  C_14
REMARK                            x       y       z     vdW  Elec       q    Type
REMARK                         _______ _______ _______ _____ _____    ______ ____
ROOT
ATOM      1  N   UNL     1       2.505   6.876  20.313  0.00  0.00    +0.000 N 
ATOM      2  C   UNL     1       2.585   5.497  20.211  0.00  0.00    +0.000 C 
ATOM      3  O   UNL     1       2.022   4.773  21.034  0.00  0.00    +0.000 OA
ATOM      4  H   UNL     1       2.861   7.502  19.593  0.00  0.00    +0.000 HD
ENDROOT
BRANCH   2   5
ATOM      5  C   UNL     1       3.367   4.990  19.080  0.00  0.00    +0.000 A 
ATOM      6  S   UNL     1       5.083   5.125  19.072  0.00  0.00    +0.000 S 
ATOM      7  C   UNL     1       5.217   4.356  17.561  0.00  0.00    +0.000 A 
ATOM      8  C   UNL     1       3.989   4.005  17.054  0.00  0.00    +0.000 A 
ATOM      9  C   UNL     1       2.904   4.372  17.920  0.00  0.00    +0.000 A 
ATOM     10  C   UNL     1       1.470   4.105  17.589  0.00  0.00    +0.000 C 
ENDBRANCH   2   5
BRANCH   1  14
ATOM     11  C   UNL     1       0.668  10.454  19.313  0.00  0.00    +0.000 C 
ATOM     12  N   UNL     1       1.188   9.151  19.680  0.00  0.00    +0.000 NA
ATOM     13  C   UNL     1       1.103   8.682  20.878  0.00  0.00    +0.000 C 
ATOM     14  N   UNL     1       1.594   7.443  21.213  0.00  0.00    +0.000 N 
ATOM     15  H   UNL     1       1.782   7.257  22.198  0.00  0.00    +0.000 HD
BRANCH  13  16
ATOM     16  S   UNL     1       0.367   9.493  22.249  0.00  0.00    +0.000 S 
ATOM     17  H   UNL     1      -0.547   8.569  22.558  0.00  0.00    +0.000 HD
ENDBRANCH  13  16
ENDBRANCH   1  14
TORSDOF 3
ENDMDL
MODEL 3
REMARK VINA RESULT:      -5.8      1.693      1.724
REMARK  Name = 
REMARK  5 active torsions:
REMARK  status: ('A' for Active; 'I' for Inactive)
REMARK    1  A    between atoms: C_1  and  N_2
REMARK    2  A    between atoms: C_3  and  S_4
REMARK    3  A    between atoms: N_5  and  N_6
REMARK    4  A    between atoms: C_7  and  C_9
REMARK    5  A    between atoms: C_13  and  C_14
REMARK                            x       y       z     vdW  Elec       q    Type
REMARK                         _______ _______ _______ _____ _____    ______ ____
ROOT
ATOM      1  N   UNL     1       4.866   3.664  18.067  0.00  0.00    +0.000 N 
ATOM      2  C   UNL     1       3.501   3.838  17.914  0.00  0.00    +0.000 C 
ATOM      3  O   UNL     1       3.026   4.152  16.821  0.00  0.00    +0.000 OA
ATOM      4  H   UNL     1       5.281   3.297  18.922  0.00  0.00    +0.000 HD
ENDROOT
BRANCH   2   5
ATOM      5  C   UNL     1       2.696   3.625  19.120  0.00  0.00    +0.000 A 
ATOM      6  S   UNL     1       2.233   2.036  19.595  0.00  0.00    +0.000 S 
ATOM      7  C   UNL     1       1.412   2.599  20.973  0.00  0.00    +0.000 A 
ATOM      8  C   UNL     1       1.472   3.968  21.082  0.00  0.00    +0.000 A 
ATOM      9  C   UNL     1       2.207   4.579  20.010  0.00  0.00    +0.000 A 
ATOM     10  C   UNL     1       2.407   6.058  19.898  0.00  0.00    +0.000 C 
ENDBRANCH   2   5
BRANCH   1  14
ATOM     11  C   UNL     1       7.389   6.855  17.274  0.00  0.00    +0.000 C 
ATOM     12  N   UNL     1       6.614   5.660  17.547  0.00  0.00    +0.000 NA
ATOM     13  C   UNL     1       6.410   4.748  16.658  0.00  0.00    +0.000 C 
ATOM     14  N   UNL     1       5.680   3.615  16.929  0.00  0.00    +0.000 N 
ATOM     15  H   UNL     1       5.293   3.099  16.138  0.00  0.00    +0.000 HD
BRANCH  13  16
ATOM     16  S   UNL     1       7.009   4.768  15.008  0.00  0.00    +0.000 S 
ATOM     17  H   UNL     1       6.350   3.702  14.545  0.00  0.00    +0.000 HD
ENDBRANCH  13  16
ENDBRANCH   1  14
TORSDOF 3
ENDMDL
MODEL 4
REMARK VINA RESULT:      -5.8      2.065      5.631
REMARK  Name = 
REMARK  5 active torsions:
REMARK  status: ('A' for Active; 'I' for Inactive)
REMARK    1  A    between atoms: C_1  and  N_2
REMARK    2  A    between atoms: C_3  and  S_4
REMARK    3  A    between atoms: N_5  and  N_6
REMARK    4  A    between atoms: C_7  and  C_9
REMARK    5  A    between atoms: C_13  and  C_14
REMARK                            x       y       z     vdW  Elec       q    Type
REMARK                         _______ _______ _______ _____ _____    ______ ____
ROOT
ATOM      1  N   UNL     1       4.635   3.089  18.939  0.00  0.00    +0.000 N 
ATOM      2  C   UNL     1       4.902   4.418  18.654  0.00  0.00    +0.000 C 
ATOM      3  O   UNL     1       4.405   5.318  19.333  0.00  0.00    +0.000 OA
ATOM      4  H   UNL     1       5.114   2.320  18.472  0.00  0.00    +0.000 HD
ENDROOT
BRANCH   2   5
ATOM      5  C   UNL     1       5.794   4.655  17.515  0.00  0.00    +0.000 A 
ATOM      6  S   UNL     1       5.371   4.100  15.941  0.00  0.00    +0.000 S 
ATOM      7  C   UNL     1       6.791   4.730  15.250  0.00  0.00    +0.000 A 
ATOM      8  C   UNL     1       7.587   5.346  16.185  0.00  0.00    +0.000 A 
ATOM      9  C   UNL     1       7.026   5.305  17.506  0.00  0.00    +0.000 A 
ATOM     10  C   UNL     1       7.705   5.900  18.700  0.00  0.00    +0.000 C 
ENDBRANCH   2   5
BRANCH   1  14
ATOM     11  C   UNL     1       0.572   2.277  18.874  0.00  0.00    +0.000 C 
ATOM     12  N   UNL     1       2.011   2.442  18.954  0.00  0.00    +0.000 NA
ATOM     13  C   UNL     1       2.627   2.616  20.074  0.00  0.00    +0.000 C 
ATOM     14  N   UNL     1       3.992   2.764  20.139  0.00  0.00    +0.000 N 
ATOM     15  H   UNL     1       4.382   3.200  20.975  0.00  0.00    +0.000 HD
BRANCH  13  16
ATOM     16  S   UNL     1       1.879   2.682  21.660  0.00  0.00    +0.000 S 
ATOM     17  H   UNL     1       0.683   2.181  21.336  0.00  0.00    +0.000 HD
ENDBRANCH  13  16
ENDBRANCH   1  14
TORSDOF 3
ENDMDL
MODEL 5
REMARK VINA RESULT:      -5.7      1.692      1.809
REMARK  Name = 
REMARK  5 active torsions:
REMARK  status: ('A' for Active; 'I' for Inactive)
REMARK    1  A    between atoms: C_1  and  N_2
REMARK    2  A    between atoms: C_3  and  S_4
REMARK    3  A    between atoms: N_5  and  N_6
REMARK    4  A    between atoms: C_7  and  C_9
REMARK    5  A    between atoms: C_13  and  C_14
REMARK                            x       y       z     vdW  Elec       q    Type
REMARK                         _______ _______ _______ _____ _____    ______ ____
ROOT
ATOM      1  N   UNL     1       3.868   4.389  16.902  0.00  0.00    +0.000 N 
ATOM      2  C   UNL     1       3.565   3.452  17.876  0.00  0.00    +0.000 C 
ATOM      3  O   UNL     1       4.029   2.312  17.817  0.00  0.00    +0.000 OA
ATOM      4  H   UNL     1       3.596   5.368  16.976  0.00  0.00    +0.000 HD
ENDROOT
BRANCH   2   5
ATOM      5  C   UNL     1       2.678   3.917  18.946  0.00  0.00    +0.000 A 
ATOM      6  S   UNL     1       3.110   5.271  19.917  0.00  0.00    +0.000 S 
ATOM      7  C   UNL     1       1.676   5.179  20.826  0.00  0.00    +0.000 A 
ATOM      8  C   UNL     1       0.876   4.140  20.418  0.00  0.00    +0.000 A 
ATOM      9  C   UNL     1       1.446   3.392  19.333  0.00  0.00    +0.000 A 
ATOM     10  C   UNL     1       0.772   2.207  18.716  0.00  0.00    +0.000 C 
ENDBRANCH   2   5
BRANCH   1  14
ATOM     11  C   UNL     1       7.395   6.556  17.101  0.00  0.00    +0.000 C 
ATOM     12  N   UNL     1       6.236   5.687  17.041  0.00  0.00    +0.000 NA
ATOM     13  C   UNL     1       5.984   4.936  16.023  0.00  0.00    +0.000 C 
ATOM     14  N   UNL     1       4.885   4.111  15.980  0.00  0.00    +0.000 N 
ATOM     15  H   UNL     1       4.568   3.791  15.065  0.00  0.00    +0.000 HD
BRANCH  13  16
ATOM     16  S   UNL     1       6.956   4.817  14.568  0.00  0.00    +0.000 S 
ATOM     17  H   UNL     1       6.115   4.091  13.826  0.00  0.00    +0.000 HD
ENDBRANCH  13  16
ENDBRANCH   1  14
TORSDOF 3
ENDMDL
MODEL 6
REMARK VINA RESULT:      -5.7      1.896      2.288
REMARK  Name = 
REMARK  5 active torsions:
REMARK  status: ('A' for Active; 'I' for Inactive)
REMARK    1  A    between atoms: C_1  and  N_2
REMARK    2  A    between atoms: C_3  and  S_4
REMARK    3  A    between atoms: N_5  and  N_6
REMARK    4  A    between atoms: C_7  and  C_9
REMARK    5  A    between atoms: C_13  and  C_14
REMARK                            x       y       z     vdW  Elec       q    Type
REMARK                         _______ _______ _______ _____ _____    ______ ____
ROOT
ATOM      1  N   UNL     1       3.940   5.583  17.781  0.00  0.00    +0.000 N 
ATOM      2  C   UNL     1       3.990   4.604  18.760  0.00  0.00    +0.000 C 
ATOM      3  O   UNL     1       5.016   4.429  19.421  0.00  0.00    +0.000 OA
ATOM      4  H   UNL     1       3.080   5.831  17.294  0.00  0.00    +0.000 HD
ENDROOT
BRANCH   2   5
ATOM      5  C   UNL     1       2.762   3.824  18.939  0.00  0.00    +0.000 A 
ATOM      6  S   UNL     1       2.480   2.408  18.002  0.00  0.00    +0.000 S 
ATOM      7  C   UNL     1       0.986   2.109  18.756  0.00  0.00    +0.000 A 
ATOM      8  C   UNL     1       0.688   3.063  19.699  0.00  0.00    +0.000 A 
ATOM      9  C   UNL     1       1.705   4.070  19.812  0.00  0.00    +0.000 A 
ATOM     10  C   UNL     1       1.610   5.221  20.764  0.00  0.00    +0.000 C 
ENDBRANCH   2   5
BRANCH   1  14
ATOM     11  C   UNL     1       7.045   4.925  15.115  0.00  0.00    +0.000 C 
ATOM     12  N   UNL     1       5.940   5.273  15.988  0.00  0.00    +0.000 NA
ATOM     13  C   UNL     1       6.030   6.196  16.884  0.00  0.00    +0.000 C 
ATOM     14  N   UNL     1       4.974   6.523  17.702  0.00  0.00    +0.000 N 
ATOM     15  H   UNL     1       5.182   7.016  18.571  0.00  0.00    +0.000 HD
BRANCH  13  16
ATOM     16  S   UNL     1       7.447   7.179  17.210  0.00  0.00    +0.000 S 
ATOM     17  H   UNL     1       7.492   7.026  18.537  0.00  0.00    +0.000 HD
ENDBRANCH  13  16
ENDBRANCH   1  14
TORSDOF 3
ENDMDL
MODEL 7
REMARK VINA RESULT:      -5.5      2.559      5.422
REMARK  Name = 
REMARK  5 active torsions:
REMARK  status: ('A' for Active; 'I' for Inactive)
REMARK    1  A    between atoms: C_1  and  N_2
REMARK    2  A    between atoms: C_3  and  S_4
REMARK    3  A    between atoms: N_5  and  N_6
REMARK    4  A    between atoms: C_7  and  C_9
REMARK    5  A    between atoms: C_13  and  C_14
REMARK                            x       y       z     vdW  Elec       q    Type
REMARK                         _______ _______ _______ _____ _____    ______ ____
ROOT
ATOM      1  N   UNL     1       3.459   5.008  18.464  0.00  0.00    +0.000 N 
ATOM      2  C   UNL     1       4.620   4.530  17.878  0.00  0.00    +0.000 C 
ATOM      3  O   UNL     1       4.663   3.391  17.410  0.00  0.00    +0.000 OA
ATOM      4  H   UNL     1       3.351   5.977  18.760  0.00  0.00    +0.000 HD
ENDROOT
BRANCH   2   5
ATOM      5  C   UNL     1       5.750   5.462  17.863  0.00  0.00    +0.000 A 
ATOM      6  S   UNL     1       6.902   5.464  19.142  0.00  0.00    +0.000 S 
ATOM      7  C   UNL     1       7.815   6.707  18.427  0.00  0.00    +0.000 A 
ATOM      8  C   UNL     1       7.265   7.130  17.241  0.00  0.00    +0.000 A 
ATOM      9  C   UNL     1       6.062   6.423  16.903  0.00  0.00    +0.000 A 
ATOM     10  C   UNL     1       5.271   6.705  15.664  0.00  0.00    +0.000 C 
ENDBRANCH   2   5
BRANCH   1  14
ATOM     11  C   UNL     1       1.959   2.932  21.723  0.00  0.00    +0.000 C 
ATOM     12  N   UNL     1       2.365   3.720  20.575  0.00  0.00    +0.000 NA
ATOM     13  C   UNL     1       1.883   3.526  19.395  0.00  0.00    +0.000 C 
ATOM     14  N   UNL     1       2.270   4.283  18.315  0.00  0.00    +0.000 N 
ATOM     15  H   UNL     1       2.108   3.899  17.384  0.00  0.00    +0.000 HD
BRANCH  13  16
ATOM     16  S   UNL     1       0.684   2.320  18.960  0.00  0.00    +0.000 S 
ATOM     17  H   UNL     1       0.096   2.979  17.957  0.00  0.00    +0.000 HD
ENDBRANCH  13  16
ENDBRANCH   1  14
TORSDOF 3
ENDMDL
MODEL 8
REMARK VINA RESULT:      -5.5      1.670      1.778
REMARK  Name = 
REMARK  5 active torsions:
REMARK  status: ('A' for Active; 'I' for Inactive)
REMARK    1  A    between atoms: C_1  and  N_2
REMARK    2  A    between atoms: C_3  and  S_4
REMARK    3  A    between atoms: N_5  and  N_6
REMARK    4  A    between atoms: C_7  and  C_9
REMARK    5  A    between atoms: C_13  and  C_14
REMARK                            x       y       z     vdW  Elec       q    Type
REMARK                         _______ _______ _______ _____ _____    ______ ____
ROOT
ATOM      1  N   UNL     1       3.995   3.597  17.663  0.00  0.00    +0.000 N 
ATOM      2  C   UNL     1       3.561   2.421  18.254  0.00  0.00    +0.000 C 
ATOM      3  O   UNL     1       3.798   1.331  17.731  0.00  0.00    +0.000 OA
ATOM      4  H   UNL     1       3.915   4.504  18.120  0.00  0.00    +0.000 HD
ENDROOT
BRANCH   2   5
ATOM      5  C   UNL     1       2.822   2.579  19.509  0.00  0.00    +0.000 A 
ATOM      6  S   UNL     1       3.656   2.652  21.013  0.00  0.00    +0.000 S 
ATOM      7  C   UNL     1       2.214   2.842  21.895  0.00  0.00    +0.000 A 
ATOM      8  C   UNL     1       1.110   2.844  21.078  0.00  0.00    +0.000 A 
ATOM      9  C   UNL     1       1.444   2.685  19.691  0.00  0.00    +0.000 A 
ATOM     10  C   UNL     1       0.417   2.646  18.604  0.00  0.00    +0.000 C 
ENDBRANCH   2   5
BRANCH   1  14
ATOM     11  C   UNL     1       7.501   5.795  17.885  0.00  0.00    +0.000 C 
ATOM     12  N   UNL     1       6.350   4.918  17.788  0.00  0.00    +0.000 NA
ATOM     13  C   UNL     1       5.991   4.367  16.679  0.00  0.00    +0.000 C 
ATOM     14  N   UNL     1       4.902   3.531  16.599  0.00  0.00    +0.000 N 
ATOM     15  H   UNL     1       4.486   3.381  15.680  0.00  0.00    +0.000 HD
BRANCH  13  16
ATOM     16  S   UNL     1       6.792   4.558  15.129  0.00  0.00    +0.000 S 
ATOM     17  H   UNL     1       7.153   5.838  15.249  0.00  0.00    +0.000 HD
ENDBRANCH  13  16
ENDBRANCH   1  14
TORSDOF 3
ENDMDL
MODEL 9
REMARK VINA RESULT:      -5.5      4.253      5.556
REMARK  Name = 
REMARK  5 active torsions:
REMARK  status: ('A' for Active; 'I' for Inactive)
REMARK    1  A    between atoms: C_1  and  N_2
REMARK    2  A    between atoms: C_3  and  S_4
REMARK    3  A    between atoms: N_5  and  N_6
REMARK    4  A    between atoms: C_7  and  C_9
REMARK    5  A    between atoms: C_13  and  C_14
REMARK                            x       y       z     vdW  Elec       q    Type
REMARK                         _______ _______ _______ _____ _____    ______ ____
ROOT
ATOM      1  N   UNL     1       2.251   6.625  20.190  0.00  0.00    +0.000 N 
ATOM      2  C   UNL     1       2.475   5.262  20.292  0.00  0.00    +0.000 C 
ATOM      3  O   UNL     1       2.268   4.669  21.352  0.00  0.00    +0.000 OA
ATOM      4  H   UNL     1       2.303   7.127  19.305  0.00  0.00    +0.000 HD
ENDROOT
BRANCH   2   5
ATOM      5  C   UNL     1       2.963   4.609  19.074  0.00  0.00    +0.000 A 
ATOM      6  S   UNL     1       1.881   3.747  18.049  0.00  0.00    +0.000 S 
ATOM      7  C   UNL     1       3.115   3.344  16.951  0.00  0.00    +0.000 A 
ATOM      8  C   UNL     1       4.334   3.840  17.344  0.00  0.00    +0.000 A 
ATOM      9  C   UNL     1       4.264   4.571  18.578  0.00  0.00    +0.000 A 
ATOM     10  C   UNL     1       5.460   5.203  19.220  0.00  0.00    +0.000 C 
ENDBRANCH   2   5
BRANCH   1  14
ATOM     11  C   UNL     1       0.785  10.440  19.502  0.00  0.00    +0.000 C 
ATOM     12  N   UNL     1       1.173   9.070  19.777  0.00  0.00    +0.000 NA
ATOM     13  C   UNL     1       1.205   8.585  20.972  0.00  0.00    +0.000 C 
ATOM     14  N   UNL     1       1.568   7.283  21.221  0.00  0.00    +0.000 N 
ATOM     15  H   UNL     1       1.873   7.048  22.165  0.00  0.00    +0.000 HD
BRANCH  13  16
ATOM     16  S   UNL     1       0.796   9.449  22.444  0.00  0.00    +0.000 S 
ATOM     17  H   UNL     1       0.853  10.695  21.964  0.00  0.00    +0.000 HD
ENDBRANCH  13  16
ENDBRANCH   1  14
TORSDOF 3
ENDMDL
