MODEL 1
REMARK VINA RESULT:      -8.3      0.000      0.000
REMARK  Name = 
REMARK  6 active torsions:
REMARK  status: ('A' for Active; 'I' for Inactive)
REMARK    1  A    between atoms: C_2  and  C_3
REMARK    2  A    between atoms: C_2  and  C_9
REMARK    3  A    between atoms: C_15  and  N_16
REMARK    4  A    between atoms: N_16  and  S_17
REMARK    5  A    between atoms: S_17  and  C_20
REMARK    6  A    between atoms: C_23  and  C_24
REMARK                            x       y       z     vdW  Elec       q    Type
REMARK                         _______ _______ _______ _____ _____    ______ ____
ROOT
ATOM      1  N   UNL     1       5.510   3.566  17.467  0.00  0.00    +0.000 N 
ATOM      2  H   UNL     1       6.042   2.753  17.157  0.00  0.00    +0.000 HD
ENDROOT
BRANCH   1   9
ATOM      3  C   UNL     1       6.313   5.875  16.801  0.00  0.00    +0.000 A 
ATOM      4  C   UNL     1       7.143   6.961  17.168  0.00  0.00    +0.000 A 
ATOM      5  C   UNL     1       7.775   7.002  18.405  0.00  0.00    +0.000 A 
ATOM      6 CL   UNL     1       8.828   8.304  18.791  0.00  0.00    +0.000 Cl
ATOM      7  C   UNL     1       7.576   5.982  19.322  0.00  0.00    +0.000 A 
ATOM      8  C   UNL     1       6.762   4.902  18.980  0.00  0.00    +0.000 A 
ATOM      9  C   UNL     1       6.154   4.815  17.716  0.00  0.00    +0.000 A 
BRANCH   3  11
ATOM     10  O   UNL     1       4.911   6.849  15.206  0.00  0.00    +0.000 OA
ATOM     11  C   UNL     1       5.769   5.989  15.417  0.00  0.00    +0.000 C 
BRANCH  11  12
ATOM     12  C   UNL     1       6.129   5.121  14.282  0.00  0.00    +0.000 A 
ATOM     13  C   UNL     1       5.238   4.110  13.903  0.00  0.00    +0.000 A 
ATOM     14  C   UNL     1       5.528   3.304  12.808  0.00  0.00    +0.000 A 
ATOM     15  C   UNL     1       6.716   3.528  12.135  0.00  0.00    +0.000 A 
ATOM     16  N   UNL     1       7.633   4.450  12.517  0.00  0.00    +0.000 NA
ATOM     17  C   UNL     1       7.333   5.202  13.607  0.00  0.00    +0.000 A 
ENDBRANCH  11  12
ENDBRANCH   3  11
ENDBRANCH   1   9
BRANCH   1  18
ATOM     18  S   UNL     1       4.231   3.085  18.467  0.00  0.00    +0.000 S 
ATOM     19  O   UNL     1       3.405   2.226  17.643  0.00  0.00    +0.000 OA
ATOM     20  O   UNL     1       4.800   2.599  19.703  0.00  0.00    +0.000 OA
BRANCH  18  21
ATOM     21  C   UNL     1       3.270   4.551  18.826  0.00  0.00    +0.000 A 
ATOM     22  C   UNL     1       2.985   4.913  20.149  0.00  0.00    +0.000 A 
ATOM     23  C   UNL     1       2.426   6.173  20.429  0.00  0.00    +0.000 A 
ATOM     24  C   UNL     1       2.150   7.082  19.397  0.00  0.00    +0.000 A 
ATOM     25  C   UNL     1       2.416   6.697  18.075  0.00  0.00    +0.000 A 
ATOM     26  C   UNL     1       2.981   5.445  17.789  0.00  0.00    +0.000 A 
BRANCH  24  27
ATOM     27  C   UNL     1       1.619   8.412  19.659  0.00  0.00    +0.000 A 
ATOM     28  C   UNL     1       1.462   9.433  18.747  0.00  0.00    +0.000 A 
ATOM     29  O   UNL     1       0.919  10.504  19.396  0.00  0.00    +0.000 OA
ATOM     30  C   UNL     1       0.767  10.065  20.677  0.00  0.00    +0.000 A 
ATOM     31  N   UNL     1       1.152   8.826  20.890  0.00  0.00    +0.000 NA
ENDBRANCH  24  27
ENDBRANCH  18  21
ENDBRANCH   1  18
TORSDOF 6
ENDMDL
MODEL 2
REMARK VINA RESULT:      -8.1      1.011      1.442
REMARK  Name = 
REMARK  6 active torsions:
REMARK  status: ('A' for Active; 'I' for Inactive)
REMARK    1  A    between atoms: C_2  and  C_3
REMARK    2  A    between atoms: C_2  and  C_9
REMARK    3  A    between atoms: C_15  and  N_16
REMARK    4  A    between atoms: N_16  and  S_17
REMARK    5  A    between atoms: S_17  and  C_20
REMARK    6  A    between atoms: C_23  and  C_24
REMARK                            x       y       z     vdW  Elec       q    Type
REMARK                         _______ _______ _______ _____ _____    ______ ____
ROOT
ATOM      1  N   UNL     1       4.531   3.595  17.176  0.00  0.00    +0.000 N 
ATOM      2  H   UNL     1       4.886   2.663  16.962  0.00  0.00    +0.000 HD
ENDROOT
BRANCH   1   9
ATOM      3  C   UNL     1       5.936   5.650  16.704  0.00  0.00    +0.000 A 
ATOM      4  C   UNL     1       6.945   6.502  17.211  0.00  0.00    +0.000 A 
ATOM      5  C   UNL     1       7.408   6.379  18.516  0.00  0.00    +0.000 A 
ATOM      6 CL   UNL     1       8.682   7.387  19.076  0.00  0.00    +0.000 Cl
ATOM      7  C   UNL     1       6.858   5.428  19.361  0.00  0.00    +0.000 A 
ATOM      8  C   UNL     1       5.862   4.578  18.881  0.00  0.00    +0.000 A 
ATOM      9  C   UNL     1       5.415   4.651  17.550  0.00  0.00    +0.000 A 
BRANCH   3  11
ATOM     10  O   UNL     1       4.918   6.885  15.002  0.00  0.00    +0.000 OA
ATOM     11  C   UNL     1       5.614   5.903  15.270  0.00  0.00    +0.000 C 
BRANCH  11  12
ATOM     12  C   UNL     1       6.012   5.046  14.139  0.00  0.00    +0.000 A 
ATOM     13  C   UNL     1       5.150   4.016  13.744  0.00  0.00    +0.000 A 
ATOM     14  C   UNL     1       5.475   3.219  12.653  0.00  0.00    +0.000 A 
ATOM     15  C   UNL     1       6.668   3.472  11.999  0.00  0.00    +0.000 A 
ATOM     16  N   UNL     1       7.558   4.413  12.397  0.00  0.00    +0.000 NA
ATOM     17  C   UNL     1       7.224   5.156  13.483  0.00  0.00    +0.000 A 
ENDBRANCH  11  12
ENDBRANCH   3  11
ENDBRANCH   1   9
BRANCH   1  18
ATOM     18  S   UNL     1       3.014   3.489  17.922  0.00  0.00    +0.000 S 
ATOM     19  O   UNL     1       2.061   3.404  16.834  0.00  0.00    +0.000 OA
ATOM     20  O   UNL     1       3.089   2.448  18.922  0.00  0.00    +0.000 OA
BRANCH  18  21
ATOM     21  C   UNL     1       2.730   5.049  18.750  0.00  0.00    +0.000 A 
ATOM     22  C   UNL     1       2.707   6.248  18.027  0.00  0.00    +0.000 A 
ATOM     23  C   UNL     1       2.267   7.434  18.643  0.00  0.00    +0.000 A 
ATOM     24  C   UNL     1       1.842   7.434  19.980  0.00  0.00    +0.000 A 
ATOM     25  C   UNL     1       1.894   6.231  20.700  0.00  0.00    +0.000 A 
ATOM     26  C   UNL     1       2.325   5.043  20.089  0.00  0.00    +0.000 A 
BRANCH  24  27
ATOM     27  C   UNL     1       1.333   8.632  20.630  0.00  0.00    +0.000 A 
ATOM     28  C   UNL     1       1.331   8.900  21.982  0.00  0.00    +0.000 A 
ATOM     29  O   UNL     1       0.779  10.134  22.170  0.00  0.00    +0.000 OA
ATOM     30  C   UNL     1       0.483  10.554  20.908  0.00  0.00    +0.000 A 
ATOM     31  N   UNL     1       0.802   9.710  19.952  0.00  0.00    +0.000 NA
ENDBRANCH  24  27
ENDBRANCH  18  21
ENDBRANCH   1  18
TORSDOF 6
ENDMDL
MODEL 3
REMARK VINA RESULT:      -8.0      3.744      6.976
REMARK  Name = 
REMARK  6 active torsions:
REMARK  status: ('A' for Active; 'I' for Inactive)
REMARK    1  A    between atoms: C_2  and  C_3
REMARK    2  A    between atoms: C_2  and  C_9
REMARK    3  A    between atoms: C_15  and  N_16
REMARK    4  A    between atoms: N_16  and  S_17
REMARK    5  A    between atoms: S_17  and  C_20
REMARK    6  A    between atoms: C_23  and  C_24
REMARK                            x       y       z     vdW  Elec       q    Type
REMARK                         _______ _______ _______ _____ _____    ______ ____
ROOT
ATOM      1  N   UNL     1       5.719   5.272  19.157  0.00  0.00    +0.000 N 
ATOM      2  H   UNL     1       6.156   5.168  20.072  0.00  0.00    +0.000 HD
ENDROOT
BRANCH   1   9
ATOM      3  C   UNL     1       3.286   5.352  18.454  0.00  0.00    +0.000 A 
ATOM      4  C   UNL     1       2.072   4.627  18.407  0.00  0.00    +0.000 A 
ATOM      5  C   UNL     1       2.020   3.281  18.750  0.00  0.00    +0.000 A 
ATOM      6 CL   UNL     1       0.515   2.450  18.745  0.00  0.00    +0.000 Cl
ATOM      7  C   UNL     1       3.176   2.612  19.117  0.00  0.00    +0.000 A 
ATOM      8  C   UNL     1       4.383   3.307  19.171  0.00  0.00    +0.000 A 
ATOM      9  C   UNL     1       4.451   4.681  18.877  0.00  0.00    +0.000 A 
BRANCH   3  11
ATOM     10  O   UNL     1       3.801   7.232  17.166  0.00  0.00    +0.000 OA
ATOM     11  C   UNL     1       3.128   6.792  18.102  0.00  0.00    +0.000 C 
BRANCH  11  12
ATOM     12  C   UNL     1       2.275   7.759  18.814  0.00  0.00    +0.000 A 
ATOM     13  C   UNL     1       1.979   7.525  20.162  0.00  0.00    +0.000 A 
ATOM     14  C   UNL     1       1.214   8.442  20.874  0.00  0.00    +0.000 A 
ATOM     15  C   UNL     1       0.754   9.561  20.204  0.00  0.00    +0.000 A 
ATOM     16  N   UNL     1       0.962   9.784  18.883  0.00  0.00    +0.000 NA
ATOM     17  C   UNL     1       1.689   8.856  18.209  0.00  0.00    +0.000 A 
ENDBRANCH  11  12
ENDBRANCH   3  11
ENDBRANCH   1   9
BRANCH   1  18
ATOM     18  S   UNL     1       6.898   5.305  17.942  0.00  0.00    +0.000 S 
ATOM     19  O   UNL     1       7.905   4.351  18.363  0.00  0.00    +0.000 OA
ATOM     20  O   UNL     1       6.224   5.157  16.673  0.00  0.00    +0.000 OA
BRANCH  18  21
ATOM     21  C   UNL     1       7.655   6.925  17.994  0.00  0.00    +0.000 A 
ATOM     22  C   UNL     1       7.235   7.939  17.123  0.00  0.00    +0.000 A 
ATOM     23  C   UNL     1       7.674   9.261  17.317  0.00  0.00    +0.000 A 
ATOM     24  C   UNL     1       8.531   9.585  18.380  0.00  0.00    +0.000 A 
ATOM     25  C   UNL     1       8.964   8.556  19.229  0.00  0.00    +0.000 A 
ATOM     26  C   UNL     1       8.523   7.237  19.047  0.00  0.00    +0.000 A 
BRANCH  24  27
ATOM     27  C   UNL     1       8.962  10.951  18.638  0.00  0.00    +0.000 A 
ATOM     28  C   UNL     1       8.769  12.045  17.823  0.00  0.00    +0.000 A 
ATOM     29  O   UNL     1       9.312  13.135  18.439  0.00  0.00    +0.000 OA
ATOM     30  C   UNL     1       9.801  12.638  19.609  0.00  0.00    +0.000 A 
ATOM     31  N   UNL     1       9.610  11.350  19.788  0.00  0.00    +0.000 NA
ENDBRANCH  24  27
ENDBRANCH  18  21
ENDBRANCH   1  18
TORSDOF 6
ENDMDL
MODEL 4
REMARK VINA RESULT:      -7.9      1.227      1.388
REMARK  Name = 
REMARK  6 active torsions:
REMARK  status: ('A' for Active; 'I' for Inactive)
REMARK    1  A    between atoms: C_2  and  C_3
REMARK    2  A    between atoms: C_2  and  C_9
REMARK    3  A    between atoms: C_15  and  N_16
REMARK    4  A    between atoms: N_16  and  S_17
REMARK    5  A    between atoms: S_17  and  C_20
REMARK    6  A    between atoms: C_23  and  C_24
REMARK                            x       y       z     vdW  Elec       q    Type
REMARK                         _______ _______ _______ _____ _____    ______ ____
ROOT
ATOM      1  N   UNL     1       4.970   2.922  18.510  0.00  0.00    +0.000 N 
ATOM      2  H   UNL     1       5.535   2.128  18.809  0.00  0.00    +0.000 HD
ENDROOT
BRANCH   1   9
ATOM      3  C   UNL     1       5.778   4.784  16.992  0.00  0.00    +0.000 A 
ATOM      4  C   UNL     1       6.553   5.965  16.924  0.00  0.00    +0.000 A 
ATOM      5  C   UNL     1       7.084   6.549  18.068  0.00  0.00    +0.000 A 
ATOM      6 CL   UNL     1       8.077   7.946  17.940  0.00  0.00    +0.000 Cl
ATOM      7  C   UNL     1       6.833   5.994  19.312  0.00  0.00    +0.000 A 
ATOM      8  C   UNL     1       6.071   4.829  19.402  0.00  0.00    +0.000 A 
ATOM      9  C   UNL     1       5.567   4.193  18.254  0.00  0.00    +0.000 A 
BRANCH   3  11
ATOM     10  O   UNL     1       4.267   3.685  15.589  0.00  0.00    +0.000 OA
ATOM     11  C   UNL     1       5.344   4.284  15.656  0.00  0.00    +0.000 C 
BRANCH  11  12
ATOM     12  C   UNL     1       6.119   4.393  14.408  0.00  0.00    +0.000 A 
ATOM     13  C   UNL     1       5.769   3.574  13.328  0.00  0.00    +0.000 A 
ATOM     14  C   UNL     1       6.452   3.686  12.122  0.00  0.00    +0.000 A 
ATOM     15  C   UNL     1       7.479   4.609  12.043  0.00  0.00    +0.000 A 
ATOM     16  N   UNL     1       7.890   5.367  13.088  0.00  0.00    +0.000 NA
ATOM     17  C   UNL     1       7.222   5.215  14.260  0.00  0.00    +0.000 A 
ENDBRANCH  11  12
ENDBRANCH   3  11
ENDBRANCH   1   9
BRANCH   1  18
ATOM     18  S   UNL     1       3.440   2.861  19.231  0.00  0.00    +0.000 S 
ATOM     19  O   UNL     1       2.641   2.023  18.360  0.00  0.00    +0.000 OA
ATOM     20  O   UNL     1       3.625   2.517  20.623  0.00  0.00    +0.000 OA
BRANCH  18  21
ATOM     21  C   UNL     1       2.756   4.513  19.144  0.00  0.00    +0.000 A 
ATOM     22  C   UNL     1       2.634   5.297  20.298  0.00  0.00    +0.000 A 
ATOM     23  C   UNL     1       2.306   6.661  20.190  0.00  0.00    +0.000 A 
ATOM     24  C   UNL     1       2.103   7.254  18.935  0.00  0.00    +0.000 A 
ATOM     25  C   UNL     1       2.203   6.451  17.790  0.00  0.00    +0.000 A 
ATOM     26  C   UNL     1       2.537   5.092  17.889  0.00  0.00    +0.000 A 
BRANCH  24  27
ATOM     27  C   UNL     1       1.813   8.673  18.788  0.00  0.00    +0.000 A 
ATOM     28  C   UNL     1       1.168   9.483  19.697  0.00  0.00    +0.000 A 
ATOM     29  O   UNL     1       1.115  10.745  19.179  0.00  0.00    +0.000 OA
ATOM     30  C   UNL     1       1.745  10.630  17.977  0.00  0.00    +0.000 A 
ATOM     31  N   UNL     1       2.194   9.428  17.697  0.00  0.00    +0.000 NA
ENDBRANCH  24  27
ENDBRANCH  18  21
ENDBRANCH   1  18
TORSDOF 6
ENDMDL
MODEL 5
REMARK VINA RESULT:      -7.9      3.151      5.354
REMARK  Name = 
REMARK  6 active torsions:
REMARK  status: ('A' for Active; 'I' for Inactive)
REMARK    1  A    between atoms: C_2  and  C_3
REMARK    2  A    between atoms: C_2  and  C_9
REMARK    3  A    between atoms: C_15  and  N_16
REMARK    4  A    between atoms: N_16  and  S_17
REMARK    5  A    between atoms: S_17  and  C_20
REMARK    6  A    between atoms: C_23  and  C_24
REMARK                            x       y       z     vdW  Elec       q    Type
REMARK                         _______ _______ _______ _____ _____    ______ ____
ROOT
ATOM      1  N   UNL     1       4.028   6.839  18.522  0.00  0.00    +0.000 N 
ATOM      2  H   UNL     1       4.409   7.777  18.645  0.00  0.00    +0.000 HD
ENDROOT
BRANCH   1   9
ATOM      3  C   UNL     1       4.697   4.604  17.532  0.00  0.00    +0.000 A 
ATOM      4  C   UNL     1       5.324   3.967  16.435  0.00  0.00    +0.000 A 
ATOM      5  C   UNL     1       5.702   4.681  15.304  0.00  0.00    +0.000 A 
ATOM      6 CL   UNL     1       6.521   3.885  14.019  0.00  0.00    +0.000 Cl
ATOM      7  C   UNL     1       5.441   6.039  15.219  0.00  0.00    +0.000 A 
ATOM      8  C   UNL     1       4.824   6.686  16.289  0.00  0.00    +0.000 A 
ATOM      9  C   UNL     1       4.479   5.995  17.463  0.00  0.00    +0.000 A 
BRANCH   3  11
ATOM     10  O   UNL     1       5.375   3.288  19.339  0.00  0.00    +0.000 OA
ATOM     11  C   UNL     1       4.417   3.682  18.670  0.00  0.00    +0.000 C 
BRANCH  11  12
ATOM     12  C   UNL     1       3.092   3.152  19.035  0.00  0.00    +0.000 A 
ATOM     13  C   UNL     1       2.767   3.038  20.392  0.00  0.00    +0.000 A 
ATOM     14  C   UNL     1       1.508   2.584  20.768  0.00  0.00    +0.000 A 
ATOM     15  C   UNL     1       0.617   2.242  19.767  0.00  0.00    +0.000 A 
ATOM     16  N   UNL     1       0.922   2.272  18.447  0.00  0.00    +0.000 NA
ATOM     17  C   UNL     1       2.169   2.693  18.113  0.00  0.00    +0.000 A 
ENDBRANCH  11  12
ENDBRANCH   3  11
ENDBRANCH   1   9
BRANCH   1  18
ATOM     18  S   UNL     1       2.393   6.807  18.962  0.00  0.00    +0.000 S 
ATOM     19  O   UNL     1       1.730   6.068  17.906  0.00  0.00    +0.000 OA
ATOM     20  O   UNL     1       2.317   6.364  20.335  0.00  0.00    +0.000 OA
BRANCH  18  21
ATOM     21  C   UNL     1       1.797   8.492  18.878  0.00  0.00    +0.000 A 
ATOM     22  C   UNL     1       1.086   9.053  19.947  0.00  0.00    +0.000 A 
ATOM     23  C   UNL     1       0.816  10.433  19.966  0.00  0.00    +0.000 A 
ATOM     24  C   UNL     1       1.256  11.266  18.926  0.00  0.00    +0.000 A 
ATOM     25  C   UNL     1       1.946  10.687  17.850  0.00  0.00    +0.000 A 
ATOM     26  C   UNL     1       2.224   9.313  17.828  0.00  0.00    +0.000 A 
BRANCH  24  27
ATOM     27  C   UNL     1       1.038  12.705  18.942  0.00  0.00    +0.000 A 
ATOM     28  C   UNL     1       1.997  13.683  19.090  0.00  0.00    +0.000 A 
ATOM     29  O   UNL     1       1.377  14.898  19.034  0.00  0.00    +0.000 OA
ATOM     30  C   UNL     1       0.064  14.585  18.845  0.00  0.00    +0.000 A 
ATOM     31  N   UNL     1      -0.195  13.299  18.768  0.00  0.00    +0.000 NA
ENDBRANCH  24  27
ENDBRANCH  18  21
ENDBRANCH   1  18
TORSDOF 6
ENDMDL
MODEL 6
REMARK VINA RESULT:      -7.8      4.490     10.514
REMARK  Name = 
REMARK  6 active torsions:
REMARK  status: ('A' for Active; 'I' for Inactive)
REMARK    1  A    between atoms: C_2  and  C_3
REMARK    2  A    between atoms: C_2  and  C_9
REMARK    3  A    between atoms: C_15  and  N_16
REMARK    4  A    between atoms: N_16  and  S_17
REMARK    5  A    between atoms: S_17  and  C_20
REMARK    6  A    between atoms: C_23  and  C_24
REMARK                            x       y       z     vdW  Elec       q    Type
REMARK                         _______ _______ _______ _____ _____    ______ ____
ROOT
ATOM      1  N   UNL     1       0.956  10.523  20.408  0.00  0.00    +0.000 N 
ATOM      2  H   UNL     1       1.693  11.164  20.701  0.00  0.00    +0.000 HD
ENDROOT
BRANCH   1   9
ATOM      3  C   UNL     1      -1.187  11.874  20.351  0.00  0.00    +0.000 A 
ATOM      4  C   UNL     1      -2.396  12.094  19.651  0.00  0.00    +0.000 A 
ATOM      5  C   UNL     1      -2.641  11.490  18.424  0.00  0.00    +0.000 A 
ATOM      6 CL   UNL     1      -4.149  11.727  17.633  0.00  0.00    +0.000 Cl
ATOM      7  C   UNL     1      -1.681  10.676  17.845  0.00  0.00    +0.000 A 
ATOM      8  C   UNL     1      -0.482  10.446  18.519  0.00  0.00    +0.000 A 
ATOM      9  C   UNL     1      -0.233  11.006  19.784  0.00  0.00    +0.000 A 
BRANCH   3  11
ATOM     10  O   UNL     1      -0.026  12.904  22.098  0.00  0.00    +0.000 OA
ATOM     11  C   UNL     1      -1.133  12.567  21.671  0.00  0.00    +0.000 C 
BRANCH  11  12
ATOM     12  C   UNL     1      -2.289  12.837  22.543  0.00  0.00    +0.000 A 
ATOM     13  C   UNL     1      -2.845  14.121  22.541  0.00  0.00    +0.000 A 
ATOM     14  C   UNL     1      -3.964  14.396  23.319  0.00  0.00    +0.000 A 
ATOM     15  C   UNL     1      -4.483  13.371  24.090  0.00  0.00    +0.000 A 
ATOM     16  N   UNL     1      -3.930  12.137  24.170  0.00  0.00    +0.000 NA
ATOM     17  C   UNL     1      -2.821  11.909  23.420  0.00  0.00    +0.000 A 
ENDBRANCH  11  12
ENDBRANCH   3  11
ENDBRANCH   1   9
BRANCH   1  18
ATOM     18  S   UNL     1       0.851   9.219  21.483  0.00  0.00    +0.000 S 
ATOM     19  O   UNL     1       1.721   9.565  22.589  0.00  0.00    +0.000 OA
ATOM     20  O   UNL     1      -0.551   8.944  21.703  0.00  0.00    +0.000 OA
BRANCH  18  21
ATOM     21  C   UNL     1       1.581   7.807  20.662  0.00  0.00    +0.000 A 
ATOM     22  C   UNL     1       1.432   6.517  21.190  0.00  0.00    +0.000 A 
ATOM     23  C   UNL     1       1.815   5.397  20.431  0.00  0.00    +0.000 A 
ATOM     24  C   UNL     1       2.343   5.551  19.140  0.00  0.00    +0.000 A 
ATOM     25  C   UNL     1       2.511   6.848  18.634  0.00  0.00    +0.000 A 
ATOM     26  C   UNL     1       2.124   7.970  19.383  0.00  0.00    +0.000 A 
BRANCH  24  27
ATOM     27  C   UNL     1       2.701   4.410  18.309  0.00  0.00    +0.000 A 
ATOM     28  C   UNL     1       1.835   3.569  17.646  0.00  0.00    +0.000 A 
ATOM     29  O   UNL     1       2.576   2.641  16.972  0.00  0.00    +0.000 OA
ATOM     30  C   UNL     1       3.863   2.981  17.260  0.00  0.00    +0.000 A 
ATOM     31  N   UNL     1       3.999   4.032  18.038  0.00  0.00    +0.000 NA
ENDBRANCH  24  27
ENDBRANCH  18  21
ENDBRANCH   1  18
TORSDOF 6
ENDMDL
MODEL 7
REMARK VINA RESULT:      -7.8      2.909      7.427
REMARK  Name = 
REMARK  6 active torsions:
REMARK  status: ('A' for Active; 'I' for Inactive)
REMARK    1  A    between atoms: C_2  and  C_3
REMARK    2  A    between atoms: C_2  and  C_9
REMARK    3  A    between atoms: C_15  and  N_16
REMARK    4  A    between atoms: N_16  and  S_17
REMARK    5  A    between atoms: S_17  and  C_20
REMARK    6  A    between atoms: C_23  and  C_24
REMARK                            x       y       z     vdW  Elec       q    Type
REMARK                         _______ _______ _______ _____ _____    ______ ____
ROOT
ATOM      1  N   UNL     1       5.887   5.578  19.430  0.00  0.00    +0.000 N 
ATOM      2  H   UNL     1       6.230   5.566  20.390  0.00  0.00    +0.000 HD
ENDROOT
BRANCH   1   9
ATOM      3  C   UNL     1       3.528   5.490  18.506  0.00  0.00    +0.000 A 
ATOM      4  C   UNL     1       2.360   4.701  18.394  0.00  0.00    +0.000 A 
ATOM      5  C   UNL     1       2.339   3.375  18.810  0.00  0.00    +0.000 A 
ATOM      6 CL   UNL     1       0.883   2.467  18.720  0.00  0.00    +0.000 Cl
ATOM      7  C   UNL     1       3.487   2.789  19.320  0.00  0.00    +0.000 A 
ATOM      8  C   UNL     1       4.649   3.549  19.440  0.00  0.00    +0.000 A 
ATOM      9  C   UNL     1       4.679   4.906  19.073  0.00  0.00    +0.000 A 
BRANCH   3  11
ATOM     10  O   UNL     1       4.070   7.320  17.158  0.00  0.00    +0.000 OA
ATOM     11  C   UNL     1       3.336   6.899  18.056  0.00  0.00    +0.000 C 
BRANCH  11  12
ATOM     12  C   UNL     1       2.377   7.858  18.631  0.00  0.00    +0.000 A 
ATOM     13  C   UNL     1       2.002   7.708  19.971  0.00  0.00    +0.000 A 
ATOM     14  C   UNL     1       1.134   8.623  20.556  0.00  0.00    +0.000 A 
ATOM     15  C   UNL     1       0.656   9.656  19.769  0.00  0.00    +0.000 A 
ATOM     16  N   UNL     1       0.942   9.791  18.452  0.00  0.00    +0.000 NA
ATOM     17  C   UNL     1       1.770   8.865  17.903  0.00  0.00    +0.000 A 
ENDBRANCH  11  12
ENDBRANCH   3  11
ENDBRANCH   1   9
BRANCH   1  18
ATOM     18  S   UNL     1       7.184   5.573  18.342  0.00  0.00    +0.000 S 
ATOM     19  O   UNL     1       7.579   6.961  18.214  0.00  0.00    +0.000 OA
ATOM     20  O   UNL     1       8.128   4.574  18.789  0.00  0.00    +0.000 OA
BRANCH  18  21
ATOM     21  C   UNL     1       6.532   5.064  16.755  0.00  0.00    +0.000 A 
ATOM     22  C   UNL     1       6.793   5.814  15.601  0.00  0.00    +0.000 A 
ATOM     23  C   UNL     1       6.468   5.294  14.335  0.00  0.00    +0.000 A 
ATOM     24  C   UNL     1       5.887   4.024  14.208  0.00  0.00    +0.000 A 
ATOM     25  C   UNL     1       5.608   3.294  15.373  0.00  0.00    +0.000 A 
ATOM     26  C   UNL     1       5.936   3.803  16.638  0.00  0.00    +0.000 A 
BRANCH  24  27
ATOM     27  C   UNL     1       5.587   3.437  12.910  0.00  0.00    +0.000 A 
ATOM     28  C   UNL     1       6.422   2.653  12.145  0.00  0.00    +0.000 A 
ATOM     29  O   UNL     1       5.752   2.297  11.011  0.00  0.00    +0.000 OA
ATOM     30  C   UNL     1       4.531   2.884  11.157  0.00  0.00    +0.000 A 
ATOM     31  N   UNL     1       4.370   3.561  12.271  0.00  0.00    +0.000 NA
ENDBRANCH  24  27
ENDBRANCH  18  21
ENDBRANCH   1  18
TORSDOF 6
ENDMDL
MODEL 8
REMARK VINA RESULT:      -7.8      3.104      5.336
REMARK  Name = 
REMARK  6 active torsions:
REMARK  status: ('A' for Active; 'I' for Inactive)
REMARK    1  A    between atoms: C_2  and  C_3
REMARK    2  A    between atoms: C_2  and  C_9
REMARK    3  A    between atoms: C_15  and  N_16
REMARK    4  A    between atoms: N_16  and  S_17
REMARK    5  A    between atoms: S_17  and  C_20
REMARK    6  A    between atoms: C_23  and  C_24
REMARK                            x       y       z     vdW  Elec       q    Type
REMARK                         _______ _______ _______ _____ _____    ______ ____
ROOT
ATOM      1  N   UNL     1       4.100   6.673  18.561  0.00  0.00    +0.000 N 
ATOM      2  H   UNL     1       4.521   7.585  18.734  0.00  0.00    +0.000 HD
ENDROOT
BRANCH   1   9
ATOM      3  C   UNL     1       4.707   4.469  17.466  0.00  0.00    +0.000 A 
ATOM      4  C   UNL     1       5.308   3.866  16.337  0.00  0.00    +0.000 A 
ATOM      5  C   UNL     1       5.693   4.620  15.234  0.00  0.00    +0.000 A 
ATOM      6 CL   UNL     1       6.481   3.863  13.907  0.00  0.00    +0.000 Cl
ATOM      7  C   UNL     1       5.464   5.986  15.211  0.00  0.00    +0.000 A 
ATOM      8  C   UNL     1       4.873   6.600  16.315  0.00  0.00    +0.000 A 
ATOM      9  C   UNL     1       4.521   5.866  17.461  0.00  0.00    +0.000 A 
BRANCH   3  11
ATOM     10  O   UNL     1       5.372   3.007  19.163  0.00  0.00    +0.000 OA
ATOM     11  C   UNL     1       4.414   3.504  18.565  0.00  0.00    +0.000 C 
BRANCH  11  12
ATOM     12  C   UNL     1       3.073   3.046  18.968  0.00  0.00    +0.000 A 
ATOM     13  C   UNL     1       2.807   2.867  20.330  0.00  0.00    +0.000 A 
ATOM     14  C   UNL     1       1.538   2.479  20.745  0.00  0.00    +0.000 A 
ATOM     15  C   UNL     1       0.576   2.267  19.773  0.00  0.00    +0.000 A 
ATOM     16  N   UNL     1       0.817   2.363  18.444  0.00  0.00    +0.000 NA
ATOM     17  C   UNL     1       2.074   2.716  18.070  0.00  0.00    +0.000 A 
ENDBRANCH  11  12
ENDBRANCH   3  11
ENDBRANCH   1   9
BRANCH   1  18
ATOM     18  S   UNL     1       2.463   6.689  18.991  0.00  0.00    +0.000 S 
ATOM     19  O   UNL     1       1.764   6.135  17.849  0.00  0.00    +0.000 OA
ATOM     20  O   UNL     1       2.346   6.080  20.296  0.00  0.00    +0.000 OA
BRANCH  18  21
ATOM     21  C   UNL     1       1.975   8.406  19.123  0.00  0.00    +0.000 A 
ATOM     22  C   UNL     1       2.069   9.262  18.018  0.00  0.00    +0.000 A 
ATOM     23  C   UNL     1       1.482  10.539  18.066  0.00  0.00    +0.000 A 
ATOM     24  C   UNL     1       0.794  10.972  19.210  0.00  0.00    +0.000 A 
ATOM     25  C   UNL     1       0.730  10.114  20.318  0.00  0.00    +0.000 A 
ATOM     26  C   UNL     1       1.307   8.836  20.274  0.00  0.00    +0.000 A 
BRANCH  24  27
ATOM     27  C   UNL     1       0.133  12.267  19.272  0.00  0.00    +0.000 A 
ATOM     28  C   UNL     1       0.450  13.392  18.543  0.00  0.00    +0.000 A 
ATOM     29  O   UNL     1      -0.422  14.383  18.889  0.00  0.00    +0.000 OA
ATOM     30  C   UNL     1      -1.233  13.795  19.812  0.00  0.00    +0.000 A 
ATOM     31  N   UNL     1      -0.961  12.536  20.069  0.00  0.00    +0.000 NA
ENDBRANCH  24  27
ENDBRANCH  18  21
ENDBRANCH   1  18
TORSDOF 6
ENDMDL
MODEL 9
REMARK VINA RESULT:      -7.8      4.551     10.605
REMARK  Name = 
REMARK  6 active torsions:
REMARK  status: ('A' for Active; 'I' for Inactive)
REMARK    1  A    between atoms: C_2  and  C_3
REMARK    2  A    between atoms: C_2  and  C_9
REMARK    3  A    between atoms: C_15  and  N_16
REMARK    4  A    between atoms: N_16  and  S_17
REMARK    5  A    between atoms: S_17  and  C_20
REMARK    6  A    between atoms: C_23  and  C_24
REMARK                            x       y       z     vdW  Elec       q    Type
REMARK                         _______ _______ _______ _____ _____    ______ ____
ROOT
ATOM      1  N   UNL     1       0.931  10.632  20.470  0.00  0.00    +0.000 N 
ATOM      2  H   UNL     1       1.621  11.290  20.832  0.00  0.00    +0.000 HD
ENDROOT
BRANCH   1   9
ATOM      3  C   UNL     1      -1.212  11.985  20.446  0.00  0.00    +0.000 A 
ATOM      4  C   UNL     1      -2.448  12.181  19.786  0.00  0.00    +0.000 A 
ATOM      5  C   UNL     1      -2.742  11.531  18.594  0.00  0.00    +0.000 A 
ATOM      6 CL   UNL     1      -4.280  11.741  17.856  0.00  0.00    +0.000 Cl
ATOM      7  C   UNL     1      -1.806  10.693  18.009  0.00  0.00    +0.000 A 
ATOM      8  C   UNL     1      -0.581  10.486  18.643  0.00  0.00    +0.000 A 
ATOM      9  C   UNL     1      -0.282  11.094  19.875  0.00  0.00    +0.000 A 
BRANCH   3  11
ATOM     10  O   UNL     1       0.024  12.984  22.158  0.00  0.00    +0.000 OA
ATOM     11  C   UNL     1      -1.106  12.728  21.735  0.00  0.00    +0.000 C 
BRANCH  11  12
ATOM     12  C   UNL     1      -2.239  13.137  22.583  0.00  0.00    +0.000 A 
ATOM     13  C   UNL     1      -2.902  12.159  23.333  0.00  0.00    +0.000 A 
ATOM     14  C   UNL     1      -3.945  12.520  24.177  0.00  0.00    +0.000 A 
ATOM     15  C   UNL     1      -4.303  13.856  24.230  0.00  0.00    +0.000 A 
ATOM     16  N   UNL     1      -3.731  14.817  23.466  0.00  0.00    +0.000 NA
ATOM     17  C   UNL     1      -2.733  14.428  22.631  0.00  0.00    +0.000 A 
ENDBRANCH  11  12
ENDBRANCH   3  11
ENDBRANCH   1   9
BRANCH   1  18
ATOM     18  S   UNL     1       0.902   9.229  21.416  0.00  0.00    +0.000 S 
ATOM     19  O   UNL     1       1.929   9.425  22.419  0.00  0.00    +0.000 OA
ATOM     20  O   UNL     1      -0.470   8.987  21.800  0.00  0.00    +0.000 OA
BRANCH  18  21
ATOM     21  C   UNL     1       1.440   7.882  20.368  0.00  0.00    +0.000 A 
ATOM     22  C   UNL     1       2.014   8.136  19.116  0.00  0.00    +0.000 A 
ATOM     23  C   UNL     1       2.632   7.095  18.400  0.00  0.00    +0.000 A 
ATOM     24  C   UNL     1       2.688   5.796  18.926  0.00  0.00    +0.000 A 
ATOM     25  C   UNL     1       2.087   5.550  20.170  0.00  0.00    +0.000 A 
ATOM     26  C   UNL     1       1.476   6.585  20.892  0.00  0.00    +0.000 A 
BRANCH  24  27
ATOM     27  C   UNL     1       3.365   4.709  18.234  0.00  0.00    +0.000 A 
ATOM     28  C   UNL     1       4.308   4.826  17.237  0.00  0.00    +0.000 A 
ATOM     29  O   UNL     1       4.699   3.570  16.872  0.00  0.00    +0.000 OA
ATOM     30  C   UNL     1       3.970   2.754  17.682  0.00  0.00    +0.000 A 
ATOM     31  N   UNL     1       3.171   3.374  18.522  0.00  0.00    +0.000 NA
ENDBRANCH  24  27
ENDBRANCH  18  21
ENDBRANCH   1  18
TORSDOF 6
ENDMDL
