MODEL 1
REMARK VINA RESULT:      -8.0      0.000      0.000
REMARK  Name = 
REMARK  9 active torsions:
REMARK  status: ('A' for Active; 'I' for Inactive)
REMARK    1  A    between atoms: C_1  and  C_2
REMARK    2  A    between atoms: C_2  and  N_3
REMARK    3  A    between atoms: C_4  and  C_6
REMARK    4  A    between atoms: C_9  and  C_10
REMARK    5  A    between atoms: C_10  and  C_25
REMARK    6  A    between atoms: N_18  and  C_19
REMARK    7  A    between atoms: C_19  and  C_20
REMARK    8  A    between atoms: C_29  and  C_30
REMARK    9  A    between atoms: C_30  and  C_31
REMARK                            x       y       z     vdW  Elec       q    Type
REMARK                         _______ _______ _______ _____ _____    ______ ____
ROOT
ATOM      1  C   UNL     1      -0.459  11.188  18.480  0.00  0.00    +0.000 C 
ATOM      2  C   UNL     1      -0.018  12.444  18.766  0.00  0.00    +0.000 C 
ATOM      3  C   UNL     1       1.351  12.846  19.321  0.00  0.00    +0.000 C 
ATOM      4  C   UNL     1       1.219  13.671  20.642  0.00  0.00    +0.000 C 
ATOM      5  C   UNL     1       1.227  15.200  20.419  0.00  0.00    +0.000 C 
ATOM      6  C   UNL     1      -0.249  15.598  20.289  0.00  0.00    +0.000 C 
ATOM      7  C   UNL     1      -0.966  14.251  20.266  0.00  0.00    +0.000 C 
ATOM      8  C   UNL     1      -0.912  13.683  18.795  0.00  0.00    +0.000 C 
ATOM      9  N   UNL     1      -0.128  13.426  21.194  0.00  0.00    +0.000 NA
ENDROOT
BRANCH   1  13
ATOM     10  C   UNL     1       1.835   7.691  19.561  0.00  0.00    +0.000 A 
ATOM     11  C   UNL     1       1.852   8.191  18.253  0.00  0.00    +0.000 A 
ATOM     12  C   UNL     1       1.109   9.331  17.922  0.00  0.00    +0.000 A 
ATOM     13  C   UNL     1       0.315   9.979  18.880  0.00  0.00    +0.000 A 
ATOM     14  C   UNL     1       0.321   9.493  20.185  0.00  0.00    +0.000 A 
ATOM     15  C   UNL     1       1.078   8.355  20.532  0.00  0.00    +0.000 A 
BRANCH  10  17
ATOM     16  N   UNL     1       2.043   5.504  20.664  0.00  0.00    +0.000 N 
ATOM     17  C   UNL     1       2.620   6.446  19.835  0.00  0.00    +0.000 C 
ATOM     18  O   UNL     1       3.737   6.312  19.345  0.00  0.00    +0.000 OA
ATOM     19  H   UNL     1       1.145   5.679  21.083  0.00  0.00    +0.000 HD
BRANCH  16  21
ATOM     20  C   UNL     1       1.774   3.263  21.618  0.00  0.00    +0.000 C 
ATOM     21  C   UNL     1       2.729   4.273  21.009  0.00  0.00    +0.000 C 
ENDBRANCH  16  21
ENDBRANCH  10  17
ENDBRANCH   1  13
BRANCH   1  22
ATOM     22  C   UNL     1      -1.796  11.061  17.851  0.00  0.00    +0.000 A 
ATOM     23  C   UNL     1      -1.877  10.805  16.475  0.00  0.00    +0.000 A 
ATOM     24  C   UNL     1      -3.108  10.812  15.824  0.00  0.00    +0.000 A 
ATOM     25  C   UNL     1      -4.278  11.064  16.544  0.00  0.00    +0.000 A 
ATOM     26  C   UNL     1      -4.214  11.293  17.920  0.00  0.00    +0.000 A 
ATOM     27  C   UNL     1      -2.972  11.299  18.574  0.00  0.00    +0.000 A 
BRANCH  26  28
ATOM     28  C   UNL     1      -5.430  11.595  18.728  0.00  0.00    +0.000 C 
ATOM     29  C   UNL     1      -6.680  10.778  18.525  0.00  0.00    +0.000 C 
ATOM     30  O   UNL     1      -5.389  12.490  19.571  0.00  0.00    +0.000 OA
ENDBRANCH  26  28
ENDBRANCH   1  22
BRANCH   9  31
ATOM     31  C   UNL     1      -0.268  13.787  22.612  0.00  0.00    +0.000 C 
BRANCH  31  32
ATOM     32  C   UNL     1      -1.547  13.229  23.156  0.00  0.00    +0.000 A 
ATOM     33  C   UNL     1      -2.604  13.919  23.817  0.00  0.00    +0.000 A 
ATOM     34  C   UNL     1      -3.583  12.991  24.069  0.00  0.00    +0.000 A 
ATOM     35  O   UNL     1      -3.195  11.763  23.643  0.00  0.00    +0.000 OA
ATOM     36  C   UNL     1      -1.962  11.912  23.095  0.00  0.00    +0.000 A 
ENDBRANCH  31  32
ENDBRANCH   9  31
TORSDOF 7
ENDMDL
MODEL 2
REMARK VINA RESULT:      -7.8      0.874      1.083
REMARK  Name = 
REMARK  9 active torsions:
REMARK  status: ('A' for Active; 'I' for Inactive)
REMARK    1  A    between atoms: C_1  and  C_2
REMARK    2  A    between atoms: C_2  and  N_3
REMARK    3  A    between atoms: C_4  and  C_6
REMARK    4  A    between atoms: C_9  and  C_10
REMARK    5  A    between atoms: C_10  and  C_25
REMARK    6  A    between atoms: N_18  and  C_19
REMARK    7  A    between atoms: C_19  and  C_20
REMARK    8  A    between atoms: C_29  and  C_30
REMARK    9  A    between atoms: C_30  and  C_31
REMARK                            x       y       z     vdW  Elec       q    Type
REMARK                         _______ _______ _______ _____ _____    ______ ____
ROOT
ATOM      1  C   UNL     1      -0.196  10.993  18.341  0.00  0.00    +0.000 C 
ATOM      2  C   UNL     1       0.370  12.231  18.364  0.00  0.00    +0.000 C 
ATOM      3  C   UNL     1       1.831  12.581  18.655  0.00  0.00    +0.000 C 
ATOM      4  C   UNL     1       1.957  13.596  19.838  0.00  0.00    +0.000 C 
ATOM      5  C   UNL     1       2.039  15.070  19.381  0.00  0.00    +0.000 C 
ATOM      6  C   UNL     1       0.592  15.579  19.396  0.00  0.00    +0.000 C 
ATOM      7  C   UNL     1      -0.214  14.314  19.681  0.00  0.00    +0.000 C 
ATOM      8  C   UNL     1      -0.420  13.539  18.324  0.00  0.00    +0.000 C 
ATOM      9  N   UNL     1       0.694  13.557  20.602  0.00  0.00    +0.000 NA
ENDROOT
BRANCH   1  13
ATOM     10  C   UNL     1       1.994   7.500  19.630  0.00  0.00    +0.000 A 
ATOM     11  C   UNL     1       2.008   7.909  18.291  0.00  0.00    +0.000 A 
ATOM     12  C   UNL     1       1.299   9.048  17.892  0.00  0.00    +0.000 A 
ATOM     13  C   UNL     1       0.542   9.788  18.812  0.00  0.00    +0.000 A 
ATOM     14  C   UNL     1       0.552   9.393  20.148  0.00  0.00    +0.000 A 
ATOM     15  C   UNL     1       1.275   8.255  20.562  0.00  0.00    +0.000 A 
BRANCH  10  17
ATOM     16  N   UNL     1       2.092   5.330  20.780  0.00  0.00    +0.000 N 
ATOM     17  C   UNL     1       2.740   6.250  19.979  0.00  0.00    +0.000 C 
ATOM     18  O   UNL     1       3.887   6.094  19.572  0.00  0.00    +0.000 OA
ATOM     19  H   UNL     1       1.170   5.523  21.132  0.00  0.00    +0.000 HD
BRANCH  16  21
ATOM     20  C   UNL     1       1.712   3.028  21.529  0.00  0.00    +0.000 C 
ATOM     21  C   UNL     1       2.736   4.097  21.193  0.00  0.00    +0.000 C 
ENDBRANCH  16  21
ENDBRANCH  10  17
ENDBRANCH   1  13
BRANCH   1  22
ATOM     22  C   UNL     1      -1.619  10.901  17.930  0.00  0.00    +0.000 A 
ATOM     23  C   UNL     1      -1.931  10.310  16.697  0.00  0.00    +0.000 A 
ATOM     24  C   UNL     1      -3.238  10.325  16.216  0.00  0.00    +0.000 A 
ATOM     25  C   UNL     1      -4.253  10.920  16.967  0.00  0.00    +0.000 A 
ATOM     26  C   UNL     1      -3.960  11.488  18.210  0.00  0.00    +0.000 A 
ATOM     27  C   UNL     1      -2.640  11.485  18.689  0.00  0.00    +0.000 A 
BRANCH  26  28
ATOM     28  C   UNL     1      -5.002  12.161  19.037  0.00  0.00    +0.000 C 
ATOM     29  C   UNL     1      -6.330  12.514  18.417  0.00  0.00    +0.000 C 
ATOM     30  O   UNL     1      -4.774  12.395  20.222  0.00  0.00    +0.000 OA
ENDBRANCH  26  28
ENDBRANCH   1  22
BRANCH   9  31
ATOM     31  C   UNL     1       0.795  14.130  21.952  0.00  0.00    +0.000 C 
BRANCH  31  32
ATOM     32  C   UNL     1      -0.495  13.932  22.686  0.00  0.00    +0.000 A 
ATOM     33  C   UNL     1      -1.400  12.834  22.606  0.00  0.00    +0.000 A 
ATOM     34  C   UNL     1      -2.402  13.083  23.512  0.00  0.00    +0.000 A 
ATOM     35  O   UNL     1      -2.201  14.276  24.127  0.00  0.00    +0.000 OA
ATOM     36  C   UNL     1      -1.050  14.786  23.621  0.00  0.00    +0.000 A 
ENDBRANCH  31  32
ENDBRANCH   9  31
TORSDOF 7
ENDMDL
MODEL 3
REMARK VINA RESULT:      -7.8      1.025      1.220
REMARK  Name = 
REMARK  9 active torsions:
REMARK  status: ('A' for Active; 'I' for Inactive)
REMARK    1  A    between atoms: C_1  and  C_2
REMARK    2  A    between atoms: C_2  and  N_3
REMARK    3  A    between atoms: C_4  and  C_6
REMARK    4  A    between atoms: C_9  and  C_10
REMARK    5  A    between atoms: C_10  and  C_25
REMARK    6  A    between atoms: N_18  and  C_19
REMARK    7  A    between atoms: C_19  and  C_20
REMARK    8  A    between atoms: C_29  and  C_30
REMARK    9  A    between atoms: C_30  and  C_31
REMARK                            x       y       z     vdW  Elec       q    Type
REMARK                         _______ _______ _______ _____ _____    ______ ____
ROOT
ATOM      1  C   UNL     1      -0.407  11.177  18.378  0.00  0.00    +0.000 C 
ATOM      2  C   UNL     1       0.068  12.434  18.593  0.00  0.00    +0.000 C 
ATOM      3  C   UNL     1       1.464  12.831  19.081  0.00  0.00    +0.000 C 
ATOM      4  C   UNL     1       1.396  13.713  20.369  0.00  0.00    +0.000 C 
ATOM      5  C   UNL     1       1.425  15.232  20.080  0.00  0.00    +0.000 C 
ATOM      6  C   UNL     1      -0.046  15.654  19.987  0.00  0.00    +0.000 C 
ATOM      7  C   UNL     1      -0.790  14.322  20.047  0.00  0.00    +0.000 C 
ATOM      8  C   UNL     1      -0.800  13.692  18.601  0.00  0.00    +0.000 C 
ATOM      9  N   UNL     1       0.065  13.520  20.980  0.00  0.00    +0.000 NA
ENDROOT
BRANCH   1  13
ATOM     10  C   UNL     1       1.861   7.684  19.528  0.00  0.00    +0.000 A 
ATOM     11  C   UNL     1       1.886   8.162  18.212  0.00  0.00    +0.000 A 
ATOM     12  C   UNL     1       1.151   9.300  17.858  0.00  0.00    +0.000 A 
ATOM     13  C   UNL     1       0.358   9.970  18.801  0.00  0.00    +0.000 A 
ATOM     14  C   UNL     1       0.355   9.506  20.115  0.00  0.00    +0.000 A 
ATOM     15  C   UNL     1       1.104   8.369  20.484  0.00  0.00    +0.000 A 
BRANCH  10  17
ATOM     16  N   UNL     1       3.771   6.205  19.073  0.00  0.00    +0.000 N 
ATOM     17  C   UNL     1       2.637   6.439  19.826  0.00  0.00    +0.000 C 
ATOM     18  O   UNL     1       2.239   5.669  20.694  0.00  0.00    +0.000 OA
ATOM     19  H   UNL     1       4.032   6.840  18.337  0.00  0.00    +0.000 HD
BRANCH  16  21
ATOM     20  C   UNL     1       4.320   3.989  18.185  0.00  0.00    +0.000 C 
ATOM     21  C   UNL     1       4.581   5.018  19.269  0.00  0.00    +0.000 C 
ENDBRANCH  16  21
ENDBRANCH  10  17
ENDBRANCH   1  13
BRANCH   1  22
ATOM     22  C   UNL     1      -1.769  11.051  17.803  0.00  0.00    +0.000 A 
ATOM     23  C   UNL     1      -1.904  10.781  16.434  0.00  0.00    +0.000 A 
ATOM     24  C   UNL     1      -3.161  10.789  15.832  0.00  0.00    +0.000 A 
ATOM     25  C   UNL     1      -4.299  11.054  16.594  0.00  0.00    +0.000 A 
ATOM     26  C   UNL     1      -4.181  11.297  17.965  0.00  0.00    +0.000 A 
ATOM     27  C   UNL     1      -2.913  11.302  18.569  0.00  0.00    +0.000 A 
BRANCH  26  28
ATOM     28  C   UNL     1      -5.362  11.613  18.817  0.00  0.00    +0.000 C 
ATOM     29  C   UNL     1      -6.735  11.170  18.380  0.00  0.00    +0.000 C 
ATOM     30  O   UNL     1      -5.199  12.208  19.881  0.00  0.00    +0.000 OA
ENDBRANCH  26  28
ENDBRANCH   1  22
BRANCH   9  31
ATOM     31  C   UNL     1      -0.015  13.944  22.384  0.00  0.00    +0.000 C 
BRANCH  31  32
ATOM     32  C   UNL     1      -1.304  13.474  22.985  0.00  0.00    +0.000 A 
ATOM     33  C   UNL     1      -1.948  12.213  22.823  0.00  0.00    +0.000 A 
ATOM     34  C   UNL     1      -3.067  12.238  23.620  0.00  0.00    +0.000 A 
ATOM     35  O   UNL     1      -3.182  13.440  24.239  0.00  0.00    +0.000 OA
ATOM     36  C   UNL     1      -2.117  14.183  23.849  0.00  0.00    +0.000 A 
ENDBRANCH  31  32
ENDBRANCH   9  31
TORSDOF 7
ENDMDL
MODEL 4
REMARK VINA RESULT:      -7.8      1.384      1.704
REMARK  Name = 
REMARK  9 active torsions:
REMARK  status: ('A' for Active; 'I' for Inactive)
REMARK    1  A    between atoms: C_1  and  C_2
REMARK    2  A    between atoms: C_2  and  N_3
REMARK    3  A    between atoms: C_4  and  C_6
REMARK    4  A    between atoms: C_9  and  C_10
REMARK    5  A    between atoms: C_10  and  C_25
REMARK    6  A    between atoms: N_18  and  C_19
REMARK    7  A    between atoms: C_19  and  C_20
REMARK    8  A    between atoms: C_29  and  C_30
REMARK    9  A    between atoms: C_30  and  C_31
REMARK                            x       y       z     vdW  Elec       q    Type
REMARK                         _______ _______ _______ _____ _____    ______ ____
ROOT
ATOM      1  C   UNL     1      -0.118  10.902  18.277  0.00  0.00    +0.000 C 
ATOM      2  C   UNL     1       0.448  12.139  18.245  0.00  0.00    +0.000 C 
ATOM      3  C   UNL     1       1.925  12.493  18.440  0.00  0.00    +0.000 C 
ATOM      4  C   UNL     1       2.122  13.527  19.596  0.00  0.00    +0.000 C 
ATOM      5  C   UNL     1       2.175  14.994  19.110  0.00  0.00    +0.000 C 
ATOM      6  C   UNL     1       0.732  15.504  19.205  0.00  0.00    +0.000 C 
ATOM      7  C   UNL     1      -0.054  14.245  19.560  0.00  0.00    +0.000 C 
ATOM      8  C   UNL     1      -0.343  13.447  18.231  0.00  0.00    +0.000 C 
ATOM      9  N   UNL     1       0.908  13.502  20.437  0.00  0.00    +0.000 NA
ENDROOT
BRANCH   1  13
ATOM     10  C   UNL     1       2.151   7.430  19.488  0.00  0.00    +0.000 A 
ATOM     11  C   UNL     1       2.111   7.838  18.149  0.00  0.00    +0.000 A 
ATOM     12  C   UNL     1       1.377   8.970  17.775  0.00  0.00    +0.000 A 
ATOM     13  C   UNL     1       0.649   9.704  18.722  0.00  0.00    +0.000 A 
ATOM     14  C   UNL     1       0.711   9.311  20.057  0.00  0.00    +0.000 A 
ATOM     15  C   UNL     1       1.460   8.181  20.446  0.00  0.00    +0.000 A 
BRANCH  10  17
ATOM     16  N   UNL     1       4.012   5.896  19.016  0.00  0.00    +0.000 N 
ATOM     17  C   UNL     1       2.920   6.188  19.811  0.00  0.00    +0.000 C 
ATOM     18  O   UNL     1       2.554   5.470  20.735  0.00  0.00    +0.000 OA
ATOM     19  H   UNL     1       4.245   6.488  18.237  0.00  0.00    +0.000 HD
BRANCH  16  21
ATOM     20  C   UNL     1       4.356   3.567  18.336  0.00  0.00    +0.000 C 
ATOM     21  C   UNL     1       4.811   4.705  19.232  0.00  0.00    +0.000 C 
ENDBRANCH  16  21
ENDBRANCH  10  17
ENDBRANCH   1  13
BRANCH   1  22
ATOM     22  C   UNL     1      -1.562  10.804  17.955  0.00  0.00    +0.000 A 
ATOM     23  C   UNL     1      -1.951  10.156  16.773  0.00  0.00    +0.000 A 
ATOM     24  C   UNL     1      -3.284  10.161  16.369  0.00  0.00    +0.000 A 
ATOM     25  C   UNL     1      -4.249  10.802  17.148  0.00  0.00    +0.000 A 
ATOM     26  C   UNL     1      -3.879  11.427  18.342  0.00  0.00    +0.000 A 
ATOM     27  C   UNL     1      -2.533  11.433  18.743  0.00  0.00    +0.000 A 
BRANCH  26  28
ATOM     28  C   UNL     1      -4.865  12.150  19.195  0.00  0.00    +0.000 C 
ATOM     29  C   UNL     1      -4.375  13.076  20.278  0.00  0.00    +0.000 C 
ATOM     30  O   UNL     1      -6.068  12.002  18.985  0.00  0.00    +0.000 OA
ENDBRANCH  26  28
ENDBRANCH   1  22
BRANCH   9  31
ATOM     31  C   UNL     1       1.091  14.097  21.768  0.00  0.00    +0.000 C 
BRANCH  31  32
ATOM     32  C   UNL     1      -0.189  14.017  22.541  0.00  0.00    +0.000 A 
ATOM     33  C   UNL     1      -1.052  12.896  22.712  0.00  0.00    +0.000 A 
ATOM     34  C   UNL     1      -2.060  13.300  23.552  0.00  0.00    +0.000 A 
ATOM     35  O   UNL     1      -1.904  14.605  23.889  0.00  0.00    +0.000 OA
ATOM     36  C   UNL     1      -0.774  15.034  23.273  0.00  0.00    +0.000 A 
ENDBRANCH  31  32
ENDBRANCH   9  31
TORSDOF 7
ENDMDL
MODEL 5
REMARK VINA RESULT:      -7.7      1.090      1.344
REMARK  Name = 
REMARK  9 active torsions:
REMARK  status: ('A' for Active; 'I' for Inactive)
REMARK    1  A    between atoms: C_1  and  C_2
REMARK    2  A    between atoms: C_2  and  N_3
REMARK    3  A    between atoms: C_4  and  C_6
REMARK    4  A    between atoms: C_9  and  C_10
REMARK    5  A    between atoms: C_10  and  C_25
REMARK    6  A    between atoms: N_18  and  C_19
REMARK    7  A    between atoms: C_19  and  C_20
REMARK    8  A    between atoms: C_29  and  C_30
REMARK    9  A    between atoms: C_30  and  C_31
REMARK                            x       y       z     vdW  Elec       q    Type
REMARK                         _______ _______ _______ _____ _____    ______ ____
ROOT
ATOM      1  C   UNL     1      -0.383  10.990  18.415  0.00  0.00    +0.000 C 
ATOM      2  C   UNL     1       0.027  12.259  18.685  0.00  0.00    +0.000 C 
ATOM      3  C   UNL     1       1.398  12.706  19.199  0.00  0.00    +0.000 C 
ATOM      4  C   UNL     1       1.278  13.530  20.521  0.00  0.00    +0.000 C 
ATOM      5  C   UNL     1       1.232  15.058  20.295  0.00  0.00    +0.000 C 
ATOM      6  C   UNL     1      -0.258  15.410  20.208  0.00  0.00    +0.000 C 
ATOM      7  C   UNL     1      -0.934  14.041  20.208  0.00  0.00    +0.000 C 
ATOM      8  C   UNL     1      -0.904  13.471  18.737  0.00  0.00    +0.000 C 
ATOM      9  N   UNL     1      -0.044  13.245  21.114  0.00  0.00    +0.000 NA
ENDROOT
BRANCH   1  13
ATOM     10  C   UNL     1       2.051   7.570  19.437  0.00  0.00    +0.000 A 
ATOM     11  C   UNL     1       2.031   8.081  18.133  0.00  0.00    +0.000 A 
ATOM     12  C   UNL     1       1.243   9.194  17.821  0.00  0.00    +0.000 A 
ATOM     13  C   UNL     1       0.440   9.807  18.794  0.00  0.00    +0.000 A 
ATOM     14  C   UNL     1       0.481   9.311  20.096  0.00  0.00    +0.000 A 
ATOM     15  C   UNL     1       1.284   8.199  20.423  0.00  0.00    +0.000 A 
BRANCH  10  17
ATOM     16  N   UNL     1       3.925   6.105  18.817  0.00  0.00    +0.000 N 
ATOM     17  C   UNL     1       2.884   6.352  19.690  0.00  0.00    +0.000 C 
ATOM     18  O   UNL     1       2.609   5.614  20.630  0.00  0.00    +0.000 OA
ATOM     19  H   UNL     1       4.082   6.712  18.030  0.00  0.00    +0.000 HD
BRANCH  16  21
ATOM     20  C   UNL     1       6.215   5.343  19.240  0.00  0.00    +0.000 C 
ATOM     21  C   UNL     1       4.778   4.941  18.963  0.00  0.00    +0.000 C 
ENDBRANCH  16  21
ENDBRANCH  10  17
ENDBRANCH   1  13
BRANCH   1  22
ATOM     22  C   UNL     1      -1.733  10.819  17.825  0.00  0.00    +0.000 A 
ATOM     23  C   UNL     1      -1.853  10.206  16.570  0.00  0.00    +0.000 A 
ATOM     24  C   UNL     1      -3.085  10.148  15.925  0.00  0.00    +0.000 A 
ATOM     25  C   UNL     1      -4.218  10.693  16.531  0.00  0.00    +0.000 A 
ATOM     26  C   UNL     1      -4.118  11.283  17.794  0.00  0.00    +0.000 A 
ATOM     27  C   UNL     1      -2.873  11.352  18.439  0.00  0.00    +0.000 A 
BRANCH  26  28
ATOM     28  C   UNL     1      -5.292  11.904  18.471  0.00  0.00    +0.000 C 
ATOM     29  C   UNL     1      -5.090  12.677  19.749  0.00  0.00    +0.000 C 
ATOM     30  O   UNL     1      -6.407  11.801  17.964  0.00  0.00    +0.000 OA
ENDBRANCH  26  28
ENDBRANCH   1  22
BRANCH   9  31
ATOM     31  C   UNL     1      -0.154  13.606  22.534  0.00  0.00    +0.000 C 
BRANCH  31  32
ATOM     32  C   UNL     1      -1.465  13.133  23.079  0.00  0.00    +0.000 A 
ATOM     33  C   UNL     1      -2.512  13.905  23.663  0.00  0.00    +0.000 A 
ATOM     34  C   UNL     1      -3.531  13.031  23.951  0.00  0.00    +0.000 A 
ATOM     35  O   UNL     1      -3.179  11.763  23.620  0.00  0.00    +0.000 OA
ATOM     36  C   UNL     1      -1.928  11.831  23.097  0.00  0.00    +0.000 A 
ENDBRANCH  31  32
ENDBRANCH   9  31
TORSDOF 7
ENDMDL
MODEL 6
REMARK VINA RESULT:      -7.6      1.354      1.993
REMARK  Name = 
REMARK  9 active torsions:
REMARK  status: ('A' for Active; 'I' for Inactive)
REMARK    1  A    between atoms: C_1  and  C_2
REMARK    2  A    between atoms: C_2  and  N_3
REMARK    3  A    between atoms: C_4  and  C_6
REMARK    4  A    between atoms: C_9  and  C_10
REMARK    5  A    between atoms: C_10  and  C_25
REMARK    6  A    between atoms: N_18  and  C_19
REMARK    7  A    between atoms: C_19  and  C_20
REMARK    8  A    between atoms: C_29  and  C_30
REMARK    9  A    between atoms: C_30  and  C_31
REMARK                            x       y       z     vdW  Elec       q    Type
REMARK                         _______ _______ _______ _____ _____    ______ ____
ROOT
ATOM      1  C   UNL     1      -0.345  11.322  18.430  0.00  0.00    +0.000 C 
ATOM      2  C   UNL     1       0.154  12.562  18.684  0.00  0.00    +0.000 C 
ATOM      3  C   UNL     1       1.537  12.915  19.237  0.00  0.00    +0.000 C 
ATOM      4  C   UNL     1       1.435  13.783  20.533  0.00  0.00    +0.000 C 
ATOM      5  C   UNL     1       1.517  15.303  20.267  0.00  0.00    +0.000 C 
ATOM      6  C   UNL     1       0.063  15.767  20.116  0.00  0.00    +0.000 C 
ATOM      7  C   UNL     1      -0.717  14.454  20.125  0.00  0.00    +0.000 C 
ATOM      8  C   UNL     1      -0.681  13.843  18.671  0.00  0.00    +0.000 C 
ATOM      9  N   UNL     1       0.075  13.617  21.083  0.00  0.00    +0.000 NA
ENDROOT
BRANCH   1  13
ATOM     10  C   UNL     1       1.777   7.754  19.628  0.00  0.00    +0.000 A 
ATOM     11  C   UNL     1       1.879   8.253  18.324  0.00  0.00    +0.000 A 
ATOM     12  C   UNL     1       1.191   9.415  17.955  0.00  0.00    +0.000 A 
ATOM     13  C   UNL     1       0.368  10.089  18.869  0.00  0.00    +0.000 A 
ATOM     14  C   UNL     1       0.290   9.604  20.173  0.00  0.00    +0.000 A 
ATOM     15  C   UNL     1       0.991   8.443  20.558  0.00  0.00    +0.000 A 
BRANCH  10  17
ATOM     16  N   UNL     1       1.867   5.574  20.759  0.00  0.00    +0.000 N 
ATOM     17  C   UNL     1       2.507   6.486  19.943  0.00  0.00    +0.000 C 
ATOM     18  O   UNL     1       3.635   6.308  19.496  0.00  0.00    +0.000 OA
ATOM     19  H   UNL     1       0.961   5.785  21.144  0.00  0.00    +0.000 HD
BRANCH  16  21
ATOM     20  C   UNL     1       1.472   3.212  21.278  0.00  0.00    +0.000 C 
ATOM     21  C   UNL     1       2.496   4.324  21.141  0.00  0.00    +0.000 C 
ENDBRANCH  16  21
ENDBRANCH  10  17
ENDBRANCH   1  13
BRANCH   1  22
ATOM     22  C   UNL     1      -1.683  11.240  17.795  0.00  0.00    +0.000 A 
ATOM     23  C   UNL     1      -2.820  11.506  18.571  0.00  0.00    +0.000 A 
ATOM     24  C   UNL     1      -4.096  11.310  18.048  0.00  0.00    +0.000 A 
ATOM     25  C   UNL     1      -4.252  10.856  16.737  0.00  0.00    +0.000 A 
ATOM     26  C   UNL     1      -3.128  10.614  15.944  0.00  0.00    +0.000 A 
ATOM     27  C   UNL     1      -1.842  10.799  16.475  0.00  0.00    +0.000 A 
BRANCH  26  28
ATOM     28  C   UNL     1      -3.240  10.102  14.549  0.00  0.00    +0.000 C 
ATOM     29  C   UNL     1      -4.602   9.948  13.920  0.00  0.00    +0.000 C 
ATOM     30  O   UNL     1      -2.219   9.837  13.918  0.00  0.00    +0.000 OA
ENDBRANCH  26  28
ENDBRANCH   1  22
BRANCH   9  31
ATOM     31  C   UNL     1      -0.056  14.025  22.488  0.00  0.00    +0.000 C 
BRANCH  31  32
ATOM     32  C   UNL     1      -1.353  13.524  23.045  0.00  0.00    +0.000 A 
ATOM     33  C   UNL     1      -1.961  12.249  22.862  0.00  0.00    +0.000 A 
ATOM     34  C   UNL     1      -3.106  12.246  23.620  0.00  0.00    +0.000 A 
ATOM     35  O   UNL     1      -3.271  13.444  24.236  0.00  0.00    +0.000 OA
ATOM     36  C   UNL     1      -2.211  14.213  23.882  0.00  0.00    +0.000 A 
ENDBRANCH  31  32
ENDBRANCH   9  31
TORSDOF 7
ENDMDL
MODEL 7
REMARK VINA RESULT:      -7.4      0.497      1.015
REMARK  Name = 
REMARK  9 active torsions:
REMARK  status: ('A' for Active; 'I' for Inactive)
REMARK    1  A    between atoms: C_1  and  C_2
REMARK    2  A    between atoms: C_2  and  N_3
REMARK    3  A    between atoms: C_4  and  C_6
REMARK    4  A    between atoms: C_9  and  C_10
REMARK    5  A    between atoms: C_10  and  C_25
REMARK    6  A    between atoms: N_18  and  C_19
REMARK    7  A    between atoms: C_19  and  C_20
REMARK    8  A    between atoms: C_29  and  C_30
REMARK    9  A    between atoms: C_30  and  C_31
REMARK                            x       y       z     vdW  Elec       q    Type
REMARK                         _______ _______ _______ _____ _____    ______ ____
ROOT
ATOM      1  C   UNL     1      -0.547  11.295  18.416  0.00  0.00    +0.000 C 
ATOM      2  C   UNL     1      -0.107  12.538  18.753  0.00  0.00    +0.000 C 
ATOM      3  C   UNL     1       1.270  12.921  19.303  0.00  0.00    +0.000 C 
ATOM      4  C   UNL     1       1.156  13.682  20.664  0.00  0.00    +0.000 C 
ATOM      5  C   UNL     1       1.153  15.221  20.513  0.00  0.00    +0.000 C 
ATOM      6  C   UNL     1      -0.327  15.616  20.428  0.00  0.00    +0.000 C 
ATOM      7  C   UNL     1      -1.038  14.267  20.353  0.00  0.00    +0.000 C 
ATOM      8  C   UNL     1      -1.006  13.769  18.856  0.00  0.00    +0.000 C 
ATOM      9  N   UNL     1      -0.180  13.403  21.227  0.00  0.00    +0.000 NA
ENDROOT
BRANCH   1  13
ATOM     10  C   UNL     1       1.683   7.740  19.443  0.00  0.00    +0.000 A 
ATOM     11  C   UNL     1       0.861   8.374  20.382  0.00  0.00    +0.000 A 
ATOM     12  C   UNL     1       0.139   9.521  20.031  0.00  0.00    +0.000 A 
ATOM     13  C   UNL     1       0.240  10.073  18.745  0.00  0.00    +0.000 A 
ATOM     14  C   UNL     1       1.040   9.424  17.806  0.00  0.00    +0.000 A 
ATOM     15  C   UNL     1       1.759   8.260  18.147  0.00  0.00    +0.000 A 
BRANCH  10  17
ATOM     16  N   UNL     1       1.857   5.718  20.830  0.00  0.00    +0.000 N 
ATOM     17  C   UNL     1       2.458   6.543  19.899  0.00  0.00    +0.000 C 
ATOM     18  O   UNL     1       3.587   6.348  19.461  0.00  0.00    +0.000 OA
ATOM     19  H   UNL     1       0.949   5.945  21.199  0.00  0.00    +0.000 HD
BRANCH  16  21
ATOM     20  C   UNL     1       1.967   3.271  20.748  0.00  0.00    +0.000 C 
ATOM     21  C   UNL     1       2.532   4.545  21.352  0.00  0.00    +0.000 C 
ENDBRANCH  16  21
ENDBRANCH  10  17
ENDBRANCH   1  13
BRANCH   1  22
ATOM     22  C   UNL     1      -1.894  11.190  17.805  0.00  0.00    +0.000 A 
ATOM     23  C   UNL     1      -1.997  10.989  16.421  0.00  0.00    +0.000 A 
ATOM     24  C   UNL     1      -3.239  11.020  15.791  0.00  0.00    +0.000 A 
ATOM     25  C   UNL     1      -4.397  11.239  16.540  0.00  0.00    +0.000 A 
ATOM     26  C   UNL     1      -4.311  11.413  17.923  0.00  0.00    +0.000 A 
ATOM     27  C   UNL     1      -3.057  11.395  18.556  0.00  0.00    +0.000 A 
BRANCH  26  28
ATOM     28  C   UNL     1      -5.514  11.679  18.763  0.00  0.00    +0.000 C 
ATOM     29  C   UNL     1      -5.354  12.360  20.097  0.00  0.00    +0.000 C 
ATOM     30  O   UNL     1      -6.625  11.363  18.343  0.00  0.00    +0.000 OA
ENDBRANCH  26  28
ENDBRANCH   1  22
BRANCH   9  31
ATOM     31  C   UNL     1      -0.297  13.697  22.662  0.00  0.00    +0.000 C 
BRANCH  31  32
ATOM     32  C   UNL     1      -1.601  13.177  23.184  0.00  0.00    +0.000 A 
ATOM     33  C   UNL     1      -2.660  13.902  23.801  0.00  0.00    +0.000 A 
ATOM     34  C   UNL     1      -3.665  12.999  24.047  0.00  0.00    +0.000 A 
ATOM     35  O   UNL     1      -3.291  11.754  23.657  0.00  0.00    +0.000 OA
ATOM     36  C   UNL     1      -2.042  11.867  23.140  0.00  0.00    +0.000 A 
ENDBRANCH  31  32
ENDBRANCH   9  31
TORSDOF 7
ENDMDL
MODEL 8
REMARK VINA RESULT:      -7.3      1.630      2.290
REMARK  Name = 
REMARK  9 active torsions:
REMARK  status: ('A' for Active; 'I' for Inactive)
REMARK    1  A    between atoms: C_1  and  C_2
REMARK    2  A    between atoms: C_2  and  N_3
REMARK    3  A    between atoms: C_4  and  C_6
REMARK    4  A    between atoms: C_9  and  C_10
REMARK    5  A    between atoms: C_10  and  C_25
REMARK    6  A    between atoms: N_18  and  C_19
REMARK    7  A    between atoms: C_19  and  C_20
REMARK    8  A    between atoms: C_29  and  C_30
REMARK    9  A    between atoms: C_30  and  C_31
REMARK                            x       y       z     vdW  Elec       q    Type
REMARK                         _______ _______ _______ _____ _____    ______ ____
ROOT
ATOM      1  C   UNL     1      -0.347  11.318  18.412  0.00  0.00    +0.000 C 
ATOM      2  C   UNL     1       0.148  12.560  18.663  0.00  0.00    +0.000 C 
ATOM      3  C   UNL     1       1.529  12.918  19.219  0.00  0.00    +0.000 C 
ATOM      4  C   UNL     1       1.423  13.789  20.512  0.00  0.00    +0.000 C 
ATOM      5  C   UNL     1       1.502  15.309  20.242  0.00  0.00    +0.000 C 
ATOM      6  C   UNL     1       0.047  15.769  20.085  0.00  0.00    +0.000 C 
ATOM      7  C   UNL     1      -0.730  14.455  20.096  0.00  0.00    +0.000 C 
ATOM      8  C   UNL     1      -0.689  13.839  18.645  0.00  0.00    +0.000 C 
ATOM      9  N   UNL     1       0.061  13.622  21.059  0.00  0.00    +0.000 NA
ENDROOT
BRANCH   1  13
ATOM     10  C   UNL     1       1.780   7.759  19.626  0.00  0.00    +0.000 A 
ATOM     11  C   UNL     1       1.879   8.250  18.318  0.00  0.00    +0.000 A 
ATOM     12  C   UNL     1       1.189   9.410  17.944  0.00  0.00    +0.000 A 
ATOM     13  C   UNL     1       0.368  10.089  18.856  0.00  0.00    +0.000 A 
ATOM     14  C   UNL     1       0.292   9.611  20.163  0.00  0.00    +0.000 A 
ATOM     15  C   UNL     1       0.995   8.452  20.553  0.00  0.00    +0.000 A 
BRANCH  10  17
ATOM     16  N   UNL     1       3.685   6.249  19.259  0.00  0.00    +0.000 N 
ATOM     17  C   UNL     1       2.511   6.492  19.945  0.00  0.00    +0.000 C 
ATOM     18  O   UNL     1       2.044   5.714  20.771  0.00  0.00    +0.000 OA
ATOM     19  H   UNL     1       4.003   6.892  18.554  0.00  0.00    +0.000 HD
BRANCH  16  21
ATOM     20  C   UNL     1       5.914   5.244  19.107  0.00  0.00    +0.000 C 
ATOM     21  C   UNL     1       4.457   5.041  19.480  0.00  0.00    +0.000 C 
ENDBRANCH  16  21
ENDBRANCH  10  17
ENDBRANCH   1  13
BRANCH   1  22
ATOM     22  C   UNL     1      -1.683  11.232  17.774  0.00  0.00    +0.000 A 
ATOM     23  C   UNL     1      -2.824  11.490  18.549  0.00  0.00    +0.000 A 
ATOM     24  C   UNL     1      -4.097  11.289  18.022  0.00  0.00    +0.000 A 
ATOM     25  C   UNL     1      -4.249  10.838  16.710  0.00  0.00    +0.000 A 
ATOM     26  C   UNL     1      -3.121  10.604  15.918  0.00  0.00    +0.000 A 
ATOM     27  C   UNL     1      -1.837  10.794  16.453  0.00  0.00    +0.000 A 
BRANCH  26  28
ATOM     28  C   UNL     1      -3.228  10.095  14.521  0.00  0.00    +0.000 C 
ATOM     29  C   UNL     1      -4.584   9.980  13.873  0.00  0.00    +0.000 C 
ATOM     30  O   UNL     1      -2.206   9.801  13.905  0.00  0.00    +0.000 OA
ENDBRANCH  26  28
ENDBRANCH   1  22
BRANCH   9  31
ATOM     31  C   UNL     1      -0.074  14.034  22.463  0.00  0.00    +0.000 C 
BRANCH  31  32
ATOM     32  C   UNL     1      -1.352  13.499  23.029  0.00  0.00    +0.000 A 
ATOM     33  C   UNL     1      -1.926  12.206  22.855  0.00  0.00    +0.000 A 
ATOM     34  C   UNL     1      -3.065  12.174  23.620  0.00  0.00    +0.000 A 
ATOM     35  O   UNL     1      -3.261  13.369  24.232  0.00  0.00    +0.000 OA
ATOM     36  C   UNL     1      -2.225  14.167  23.869  0.00  0.00    +0.000 A 
ENDBRANCH  31  32
ENDBRANCH   9  31
TORSDOF 7
ENDMDL
MODEL 9
REMARK VINA RESULT:      -7.2      1.307      2.059
REMARK  Name = 
REMARK  9 active torsions:
REMARK  status: ('A' for Active; 'I' for Inactive)
REMARK    1  A    between atoms: C_1  and  C_2
REMARK    2  A    between atoms: C_2  and  N_3
REMARK    3  A    between atoms: C_4  and  C_6
REMARK    4  A    between atoms: C_9  and  C_10
REMARK    5  A    between atoms: C_10  and  C_25
REMARK    6  A    between atoms: N_18  and  C_19
REMARK    7  A    between atoms: C_19  and  C_20
REMARK    8  A    between atoms: C_29  and  C_30
REMARK    9  A    between atoms: C_30  and  C_31
REMARK                            x       y       z     vdW  Elec       q    Type
REMARK                         _______ _______ _______ _____ _____    ______ ____
ROOT
ATOM      1  C   UNL     1      -0.440  11.369  18.469  0.00  0.00    +0.000 C 
ATOM      2  C   UNL     1      -0.001  12.595  18.865  0.00  0.00    +0.000 C 
ATOM      3  C   UNL     1       1.355  12.944  19.484  0.00  0.00    +0.000 C 
ATOM      4  C   UNL     1       1.191  13.662  20.863  0.00  0.00    +0.000 C 
ATOM      5  C   UNL     1       1.211  15.204  20.763  0.00  0.00    +0.000 C 
ATOM      6  C   UNL     1      -0.259  15.620  20.629  0.00  0.00    +0.000 C 
ATOM      7  C   UNL     1      -0.981  14.283  20.479  0.00  0.00    +0.000 C 
ATOM      8  C   UNL     1      -0.891  13.833  18.970  0.00  0.00    +0.000 C 
ATOM      9  N   UNL     1      -0.171  13.381  21.360  0.00  0.00    +0.000 NA
ENDROOT
BRANCH   1  13
ATOM     10  C   UNL     1       1.707   7.757  19.473  0.00  0.00    +0.000 A 
ATOM     11  C   UNL     1       0.870   8.383  20.404  0.00  0.00    +0.000 A 
ATOM     12  C   UNL     1       0.175   9.549  20.060  0.00  0.00    +0.000 A 
ATOM     13  C   UNL     1       0.319  10.128  18.790  0.00  0.00    +0.000 A 
ATOM     14  C   UNL     1       1.133   9.488  17.858  0.00  0.00    +0.000 A 
ATOM     15  C   UNL     1       1.825   8.305  18.191  0.00  0.00    +0.000 A 
BRANCH  10  17
ATOM     16  N   UNL     1       1.818   5.708  20.826  0.00  0.00    +0.000 N 
ATOM     17  C   UNL     1       2.451   6.538  19.921  0.00  0.00    +0.000 C 
ATOM     18  O   UNL     1       3.584   6.329  19.501  0.00  0.00    +0.000 OA
ATOM     19  H   UNL     1       0.907   5.946  21.182  0.00  0.00    +0.000 HD
BRANCH  16  21
ATOM     20  C   UNL     1       1.579   3.291  21.154  0.00  0.00    +0.000 C 
ATOM     21  C   UNL     1       2.461   4.513  21.339  0.00  0.00    +0.000 C 
ENDBRANCH  16  21
ENDBRANCH  10  17
ENDBRANCH   1  13
BRANCH   1  22
ATOM     22  C   UNL     1      -1.761  11.300  17.798  0.00  0.00    +0.000 A 
ATOM     23  C   UNL     1      -2.914  11.605  18.536  0.00  0.00    +0.000 A 
ATOM     24  C   UNL     1      -4.178  11.422  17.981  0.00  0.00    +0.000 A 
ATOM     25  C   UNL     1      -4.307  10.944  16.676  0.00  0.00    +0.000 A 
ATOM     26  C   UNL     1      -3.166  10.664  15.920  0.00  0.00    +0.000 A 
ATOM     27  C   UNL     1      -1.891  10.836  16.483  0.00  0.00    +0.000 A 
BRANCH  26  28
ATOM     28  C   UNL     1      -3.250  10.125  14.532  0.00  0.00    +0.000 C 
ATOM     29  C   UNL     1      -4.595   9.999  13.864  0.00  0.00    +0.000 C 
ATOM     30  O   UNL     1      -2.217   9.816  13.941  0.00  0.00    +0.000 OA
ENDBRANCH  26  28
ENDBRANCH   1  22
BRANCH   9  31
ATOM     31  C   UNL     1      -0.345  13.629  22.798  0.00  0.00    +0.000 C 
BRANCH  31  32
ATOM     32  C   UNL     1      -1.697  13.157  23.235  0.00  0.00    +0.000 A 
ATOM     33  C   UNL     1      -2.766  13.921  23.789  0.00  0.00    +0.000 A 
ATOM     34  C   UNL     1      -3.816  13.055  23.969  0.00  0.00    +0.000 A 
ATOM     35  O   UNL     1      -3.465  11.798  23.598  0.00  0.00    +0.000 OA
ATOM     36  C   UNL     1      -2.183  11.865  23.159  0.00  0.00    +0.000 A 
ENDBRANCH  31  32
ENDBRANCH   9  31
TORSDOF 7
ENDMDL
