MODEL 1
REMARK VINA RESULT:      -8.6      0.000      0.000
REMARK  Name = 
REMARK  14 active torsions:
REMARK  status: ('A' for Active; 'I' for Inactive)
REMARK    1  A    between atoms: C_1  and  C_2
REMARK    2  A    between atoms: C_5  and  C_6
REMARK    3  A    between atoms: C_6  and  N_7
REMARK    4  A    between atoms: N_7  and  C_8
REMARK    5  A    between atoms: N_7  and  C_25
REMARK    6  A    between atoms: C_8  and  C_9
REMARK    7  A    between atoms: C_11  and  C_12
REMARK    8  A    between atoms: N_14  and  C_15
REMARK    9  A    between atoms: C_15  and  C_16
REMARK   10  A    between atoms: C_25  and  C_26
REMARK   11  A    between atoms: C_25  and  C_27
REMARK   12  A    between atoms: C_27  and  C_28
REMARK   13  A    between atoms: C_27  and  C_29
REMARK   14  A    between atoms: C_30  and  C_31
REMARK                            x       y       z     vdW  Elec       q    Type
REMARK                         _______ _______ _______ _____ _____    ______ ____
ROOT
ATOM      1  C   UNL     1       3.047   6.776  19.244  0.00  0.00    +0.000 A 
ATOM      2  N   UNL     1       2.197   7.489  19.970  0.00  0.00    +0.000 NA
ATOM      3  C   UNL     1       1.732   8.455  19.090  0.00  0.00    +0.000 A 
ATOM      4  C   UNL     1       2.288   8.232  17.846  0.00  0.00    +0.000 A 
ATOM      5  O   UNL     1       3.119   7.169  17.929  0.00  0.00    +0.000 OA
ENDROOT
BRANCH   3   6
ATOM      6  C   UNL     1       0.821   9.529  19.432  0.00  0.00    +0.000 C 
ATOM      7  O   UNL     1       0.298   9.611  20.539  0.00  0.00    +0.000 OA
ATOM      8  N   UNL     1       0.616  10.432  18.421  0.00  0.00    +0.000 N 
ATOM      9  H   UNL     1       1.177  10.334  17.582  0.00  0.00    +0.000 HD
BRANCH   8  10
ATOM     10  C   UNL     1      -0.210  11.598  18.608  0.00  0.00    +0.000 C 
BRANCH  10  11
ATOM     11  C   UNL     1      -1.664  11.363  18.276  0.00  0.00    +0.000 A 
ATOM     12  C   UNL     1      -2.071  10.408  17.330  0.00  0.00    +0.000 A 
ATOM     13  C   UNL     1      -3.428  10.178  17.091  0.00  0.00    +0.000 A 
ATOM     14  C   UNL     1      -4.382  10.888  17.811  0.00  0.00    +0.000 A 
ATOM     15  F   UNL     1      -5.682  10.661  17.586  0.00  0.00    +0.000 F 
ATOM     16  C   UNL     1      -4.004  11.821  18.768  0.00  0.00    +0.000 A 
ATOM     17  C   UNL     1      -2.650  12.052  19.005  0.00  0.00    +0.000 A 
ENDBRANCH  10  11
ENDBRANCH   8  10
ENDBRANCH   3   6
BRANCH   1  18
ATOM     18  C   UNL     1       3.940   5.626  19.608  0.00  0.00    +0.000 C 
BRANCH  18  19
ATOM     19  N   UNL     1       3.737   4.308  18.935  0.00  0.00    +0.000 NA
BRANCH  19  20
ATOM     20  C   UNL     1       2.395   4.182  18.263  0.00  0.00    +0.000 C 
ATOM     21  C   UNL     1       2.551   3.581  16.845  0.00  0.00    +0.000 C 
BRANCH  20  22
ATOM     22  C   UNL     1       1.328   3.351  19.080  0.00  0.00    +0.000 C 
ATOM     23  C   UNL     1       1.761   1.901  19.377  0.00  0.00    +0.000 C 
ATOM     24  C   UNL     1       0.912   4.021  20.396  0.00  0.00    +0.000 C 
ENDBRANCH  20  22
ENDBRANCH  19  20
BRANCH  19  25
ATOM     25  C   UNL     1       4.866   4.010  18.003  0.00  0.00    +0.000 C 
BRANCH  25  30
ATOM     26  C   UNL     1       8.439   8.577  18.128  0.00  0.00    +0.000 C 
ATOM     27  C   UNL     1       7.688   7.289  17.978  0.00  0.00    +0.000 A 
ATOM     28  C   UNL     1       7.780   6.292  18.948  0.00  0.00    +0.000 A 
ATOM     29  C   UNL     1       6.937   5.183  18.891  0.00  0.00    +0.000 A 
ATOM     30  C   UNL     1       5.958   5.069  17.887  0.00  0.00    +0.000 A 
ATOM     31  C   UNL     1       6.021   5.953  16.789  0.00  0.00    +0.000 A 
ATOM     32  C   UNL     1       5.243   5.759  15.513  0.00  0.00    +0.000 C 
ATOM     33  C   UNL     1       6.874   7.070  16.862  0.00  0.00    +0.000 A 
ENDBRANCH  25  30
ENDBRANCH  19  25
ENDBRANCH  18  19
ENDBRANCH   1  18
TORSDOF 9
ENDMDL
MODEL 2
REMARK VINA RESULT:      -8.6      0.318      1.066
REMARK  Name = 
REMARK  14 active torsions:
REMARK  status: ('A' for Active; 'I' for Inactive)
REMARK    1  A    between atoms: C_1  and  C_2
REMARK    2  A    between atoms: C_5  and  C_6
REMARK    3  A    between atoms: C_6  and  N_7
REMARK    4  A    between atoms: N_7  and  C_8
REMARK    5  A    between atoms: N_7  and  C_25
REMARK    6  A    between atoms: C_8  and  C_9
REMARK    7  A    between atoms: C_11  and  C_12
REMARK    8  A    between atoms: N_14  and  C_15
REMARK    9  A    between atoms: C_15  and  C_16
REMARK   10  A    between atoms: C_25  and  C_26
REMARK   11  A    between atoms: C_25  and  C_27
REMARK   12  A    between atoms: C_27  and  C_28
REMARK   13  A    between atoms: C_27  and  C_29
REMARK   14  A    between atoms: C_30  and  C_31
REMARK                            x       y       z     vdW  Elec       q    Type
REMARK                         _______ _______ _______ _____ _____    ______ ____
ROOT
ATOM      1  C   UNL     1       3.162   6.685  19.262  0.00  0.00    +0.000 A 
ATOM      2  N   UNL     1       2.330   7.413  19.994  0.00  0.00    +0.000 NA
ATOM      3  C   UNL     1       1.810   8.332  19.096  0.00  0.00    +0.000 A 
ATOM      4  C   UNL     1       2.316   8.066  17.839  0.00  0.00    +0.000 A 
ATOM      5  O   UNL     1       3.171   7.022  17.930  0.00  0.00    +0.000 OA
ENDROOT
BRANCH   3   6
ATOM      6  C   UNL     1       0.893   9.403  19.431  0.00  0.00    +0.000 C 
ATOM      7  O   UNL     1       0.346   9.472  20.527  0.00  0.00    +0.000 OA
ATOM      8  N   UNL     1       0.713  10.320  18.429  0.00  0.00    +0.000 N 
ATOM      9  H   UNL     1       1.292  10.232  17.601  0.00  0.00    +0.000 HD
BRANCH   8  10
ATOM     10  C   UNL     1      -0.116  11.486  18.612  0.00  0.00    +0.000 C 
BRANCH  10  11
ATOM     11  C   UNL     1      -1.579  11.232  18.338  0.00  0.00    +0.000 A 
ATOM     12  C   UNL     1      -2.596  11.960  18.975  0.00  0.00    +0.000 A 
ATOM     13  C   UNL     1      -3.937  11.738  18.654  0.00  0.00    +0.000 A 
ATOM     14  C   UNL     1      -4.263  10.800  17.680  0.00  0.00    +0.000 A 
ATOM     15  F   UNL     1      -5.549  10.592  17.369  0.00  0.00    +0.000 F 
ATOM     16  C   UNL     1      -3.273  10.084  17.021  0.00  0.00    +0.000 A 
ATOM     17  C   UNL     1      -1.935  10.304  17.343  0.00  0.00    +0.000 A 
ENDBRANCH  10  11
ENDBRANCH   8  10
ENDBRANCH   3   6
BRANCH   1  18
ATOM     18  C   UNL     1       4.091   5.567  19.635  0.00  0.00    +0.000 C 
BRANCH  18  19
ATOM     19  N   UNL     1       3.946   4.244  18.956  0.00  0.00    +0.000 NA
BRANCH  19  20
ATOM     20  C   UNL     1       2.545   3.973  18.473  0.00  0.00    +0.000 C 
ATOM     21  C   UNL     1       2.570   3.355  17.054  0.00  0.00    +0.000 C 
BRANCH  20  22
ATOM     22  C   UNL     1       1.684   3.064  19.437  0.00  0.00    +0.000 C 
ATOM     23  C   UNL     1       1.066   3.827  20.626  0.00  0.00    +0.000 C 
ATOM     24  C   UNL     1       0.574   2.291  18.716  0.00  0.00    +0.000 C 
ENDBRANCH  20  22
ENDBRANCH  19  20
BRANCH  19  25
ATOM     25  C   UNL     1       4.957   4.095  17.867  0.00  0.00    +0.000 C 
BRANCH  25  30
ATOM     26  C   UNL     1       8.488   8.689  18.137  0.00  0.00    +0.000 C 
ATOM     27  C   UNL     1       7.747   7.401  17.942  0.00  0.00    +0.000 A 
ATOM     28  C   UNL     1       7.864   6.364  18.866  0.00  0.00    +0.000 A 
ATOM     29  C   UNL     1       7.031   5.250  18.773  0.00  0.00    +0.000 A 
ATOM     30  C   UNL     1       6.037   5.170  17.780  0.00  0.00    +0.000 A 
ATOM     31  C   UNL     1       6.075   6.101  16.721  0.00  0.00    +0.000 A 
ATOM     32  C   UNL     1       5.278   5.955  15.450  0.00  0.00    +0.000 C 
ATOM     33  C   UNL     1       6.918   7.223  16.830  0.00  0.00    +0.000 A 
ENDBRANCH  25  30
ENDBRANCH  19  25
ENDBRANCH  18  19
ENDBRANCH   1  18
TORSDOF 9
ENDMDL
MODEL 3
REMARK VINA RESULT:      -8.5      0.983      1.210
REMARK  Name = 
REMARK  14 active torsions:
REMARK  status: ('A' for Active; 'I' for Inactive)
REMARK    1  A    between atoms: C_1  and  C_2
REMARK    2  A    between atoms: C_5  and  C_6
REMARK    3  A    between atoms: C_6  and  N_7
REMARK    4  A    between atoms: N_7  and  C_8
REMARK    5  A    between atoms: N_7  and  C_25
REMARK    6  A    between atoms: C_8  and  C_9
REMARK    7  A    between atoms: C_11  and  C_12
REMARK    8  A    between atoms: N_14  and  C_15
REMARK    9  A    between atoms: C_15  and  C_16
REMARK   10  A    between atoms: C_25  and  C_26
REMARK   11  A    between atoms: C_25  and  C_27
REMARK   12  A    between atoms: C_27  and  C_28
REMARK   13  A    between atoms: C_27  and  C_29
REMARK   14  A    between atoms: C_30  and  C_31
REMARK                            x       y       z     vdW  Elec       q    Type
REMARK                         _______ _______ _______ _____ _____    ______ ____
ROOT
ATOM      1  C   UNL     1       2.540   6.422  18.830  0.00  0.00    +0.000 A 
ATOM      2  N   UNL     1       2.022   7.580  18.444  0.00  0.00    +0.000 NA
ATOM      3  C   UNL     1       1.643   8.190  19.631  0.00  0.00    +0.000 A 
ATOM      4  C   UNL     1       2.014   7.382  20.688  0.00  0.00    +0.000 A 
ATOM      5  O   UNL     1       2.587   6.261  20.194  0.00  0.00    +0.000 OA
ENDROOT
BRANCH   3   6
ATOM      6  C   UNL     1       0.958   9.462  19.737  0.00  0.00    +0.000 C 
ATOM      7  O   UNL     1       0.801  10.029  20.814  0.00  0.00    +0.000 OA
ATOM      8  N   UNL     1       0.525   9.967  18.539  0.00  0.00    +0.000 N 
ATOM      9  H   UNL     1       0.798   9.474  17.695  0.00  0.00    +0.000 HD
BRANCH   8  10
ATOM     10  C   UNL     1      -0.119  11.253  18.449  0.00  0.00    +0.000 C 
BRANCH  10  11
ATOM     11  C   UNL     1      -1.598  11.165  18.163  0.00  0.00    +0.000 A 
ATOM     12  C   UNL     1      -2.126  10.270  17.219  0.00  0.00    +0.000 A 
ATOM     13  C   UNL     1      -3.506  10.176  17.021  0.00  0.00    +0.000 A 
ATOM     14  C   UNL     1      -4.363  10.964  17.782  0.00  0.00    +0.000 A 
ATOM     15  F   UNL     1      -5.685  10.868  17.597  0.00  0.00    +0.000 F 
ATOM     16  C   UNL     1      -3.866  11.840  18.738  0.00  0.00    +0.000 A 
ATOM     17  C   UNL     1      -2.488  11.936  18.933  0.00  0.00    +0.000 A 
ENDBRANCH  10  11
ENDBRANCH   8  10
ENDBRANCH   3   6
BRANCH   1  18
ATOM     18  C   UNL     1       3.075   5.264  18.040  0.00  0.00    +0.000 C 
BRANCH  18  19
ATOM     19  N   UNL     1       3.993   4.292  18.706  0.00  0.00    +0.000 NA
BRANCH  19  20
ATOM     20  C   UNL     1       3.316   3.005  19.097  0.00  0.00    +0.000 C 
ATOM     21  C   UNL     1       4.181   2.222  20.114  0.00  0.00    +0.000 C 
BRANCH  20  22
ATOM     22  C   UNL     1       1.852   3.181  19.665  0.00  0.00    +0.000 C 
ATOM     23  C   UNL     1       0.778   2.405  18.873  0.00  0.00    +0.000 C 
ATOM     24  C   UNL     1       1.726   2.820  21.150  0.00  0.00    +0.000 C 
ENDBRANCH  20  22
ENDBRANCH  19  20
BRANCH  19  25
ATOM     25  C   UNL     1       5.212   4.059  17.875  0.00  0.00    +0.000 C 
BRANCH  25  30
ATOM     26  C   UNL     1       8.386   8.908  18.101  0.00  0.00    +0.000 C 
ATOM     27  C   UNL     1       7.746   7.565  17.921  0.00  0.00    +0.000 A 
ATOM     28  C   UNL     1       7.927   6.556  18.866  0.00  0.00    +0.000 A 
ATOM     29  C   UNL     1       7.181   5.382  18.784  0.00  0.00    +0.000 A 
ATOM     30  C   UNL     1       6.210   5.210  17.781  0.00  0.00    +0.000 A 
ATOM     31  C   UNL     1       6.193   6.122  16.705  0.00  0.00    +0.000 A 
ATOM     32  C   UNL     1       5.427   5.894  15.427  0.00  0.00    +0.000 C 
ATOM     33  C   UNL     1       6.948   7.305  16.803  0.00  0.00    +0.000 A 
ENDBRANCH  25  30
ENDBRANCH  19  25
ENDBRANCH  18  19
ENDBRANCH   1  18
TORSDOF 9
ENDMDL
MODEL 4
REMARK VINA RESULT:      -8.4      4.157      7.948
REMARK  Name = 
REMARK  14 active torsions:
REMARK  status: ('A' for Active; 'I' for Inactive)
REMARK    1  A    between atoms: C_1  and  C_2
REMARK    2  A    between atoms: C_5  and  C_6
REMARK    3  A    between atoms: C_6  and  N_7
REMARK    4  A    between atoms: N_7  and  C_8
REMARK    5  A    between atoms: N_7  and  C_25
REMARK    6  A    between atoms: C_8  and  C_9
REMARK    7  A    between atoms: C_11  and  C_12
REMARK    8  A    between atoms: N_14  and  C_15
REMARK    9  A    between atoms: C_15  and  C_16
REMARK   10  A    between atoms: C_25  and  C_26
REMARK   11  A    between atoms: C_25  and  C_27
REMARK   12  A    between atoms: C_27  and  C_28
REMARK   13  A    between atoms: C_27  and  C_29
REMARK   14  A    between atoms: C_30  and  C_31
REMARK                            x       y       z     vdW  Elec       q    Type
REMARK                         _______ _______ _______ _____ _____    ______ ____
ROOT
ATOM      1  C   UNL     1       5.090   5.343  19.114  0.00  0.00    +0.000 A 
ATOM      2  N   UNL     1       5.430   6.449  18.466  0.00  0.00    +0.000 NA
ATOM      3  C   UNL     1       6.724   6.199  18.032  0.00  0.00    +0.000 A 
ATOM      4  C   UNL     1       7.076   4.913  18.392  0.00  0.00    +0.000 A 
ATOM      5  O   UNL     1       6.049   4.359  19.074  0.00  0.00    +0.000 OA
ENDROOT
BRANCH   3   6
ATOM      6  C   UNL     1       7.566   7.142  17.325  0.00  0.00    +0.000 C 
ATOM      7  O   UNL     1       8.043   6.891  16.223  0.00  0.00    +0.000 OA
ATOM      8  N   UNL     1       7.762   8.325  17.990  0.00  0.00    +0.000 N 
ATOM      9  H   UNL     1       7.238   8.476  18.845  0.00  0.00    +0.000 HD
BRANCH   8  10
ATOM     10  C   UNL     1       8.521   9.402  17.405  0.00  0.00    +0.000 C 
BRANCH  10  11
ATOM     11  C   UNL     1       8.880  10.488  18.391  0.00  0.00    +0.000 A 
ATOM     12  C   UNL     1       9.329  10.201  19.690  0.00  0.00    +0.000 A 
ATOM     13  C   UNL     1       9.708  11.229  20.556  0.00  0.00    +0.000 A 
ATOM     14  C   UNL     1       9.657  12.548  20.117  0.00  0.00    +0.000 A 
ATOM     15  F   UNL     1      10.026  13.533  20.945  0.00  0.00    +0.000 F 
ATOM     16  C   UNL     1       9.239  12.856  18.829  0.00  0.00    +0.000 A 
ATOM     17  C   UNL     1       8.859  11.828  17.966  0.00  0.00    +0.000 A 
ENDBRANCH  10  11
ENDBRANCH   8  10
ENDBRANCH   3   6
BRANCH   1  18
ATOM     18  C   UNL     1       3.851   4.985  19.879  0.00  0.00    +0.000 C 
BRANCH  18  19
ATOM     19  N   UNL     1       2.528   5.485  19.396  0.00  0.00    +0.000 NA
BRANCH  19  20
ATOM     20  C   UNL     1       1.534   4.385  19.135  0.00  0.00    +0.000 C 
ATOM     21  C   UNL     1       1.365   4.153  17.613  0.00  0.00    +0.000 C 
BRANCH  20  22
ATOM     22  C   UNL     1       1.869   3.016  19.850  0.00  0.00    +0.000 C 
ATOM     23  C   UNL     1       1.240   2.874  21.251  0.00  0.00    +0.000 C 
ATOM     24  C   UNL     1       1.496   1.785  19.015  0.00  0.00    +0.000 C 
ENDBRANCH  20  22
ENDBRANCH  19  20
BRANCH  19  25
ATOM     25  C   UNL     1       1.988   6.527  20.319  0.00  0.00    +0.000 C 
BRANCH  25  30
ATOM     26  C   UNL     1       1.747  11.963  18.309  0.00  0.00    +0.000 C 
ATOM     27  C   UNL     1       1.599  10.531  18.725  0.00  0.00    +0.000 A 
ATOM     28  C   UNL     1       2.091   9.501  17.923  0.00  0.00    +0.000 A 
ATOM     29  C   UNL     1       2.116   8.193  18.405  0.00  0.00    +0.000 A 
ATOM     30  C   UNL     1       1.688   7.895  19.712  0.00  0.00    +0.000 A 
ATOM     31  C   UNL     1       0.986   8.888  20.427  0.00  0.00    +0.000 A 
ATOM     32  C   UNL     1       0.214   8.618  21.694  0.00  0.00    +0.000 C 
ATOM     33  C   UNL     1       0.973  10.204  19.931  0.00  0.00    +0.000 A 
ENDBRANCH  25  30
ENDBRANCH  19  25
ENDBRANCH  18  19
ENDBRANCH   1  18
TORSDOF 9
ENDMDL
MODEL 5
REMARK VINA RESULT:      -8.3      1.612      2.602
REMARK  Name = 
REMARK  14 active torsions:
REMARK  status: ('A' for Active; 'I' for Inactive)
REMARK    1  A    between atoms: C_1  and  C_2
REMARK    2  A    between atoms: C_5  and  C_6
REMARK    3  A    between atoms: C_6  and  N_7
REMARK    4  A    between atoms: N_7  and  C_8
REMARK    5  A    between atoms: N_7  and  C_25
REMARK    6  A    between atoms: C_8  and  C_9
REMARK    7  A    between atoms: C_11  and  C_12
REMARK    8  A    between atoms: N_14  and  C_15
REMARK    9  A    between atoms: C_15  and  C_16
REMARK   10  A    between atoms: C_25  and  C_26
REMARK   11  A    between atoms: C_25  and  C_27
REMARK   12  A    between atoms: C_27  and  C_28
REMARK   13  A    between atoms: C_27  and  C_29
REMARK   14  A    between atoms: C_30  and  C_31
REMARK                            x       y       z     vdW  Elec       q    Type
REMARK                         _______ _______ _______ _____ _____    ______ ____
ROOT
ATOM      1  C   UNL     1       2.523   6.932  19.145  0.00  0.00    +0.000 A 
ATOM      2  N   UNL     1       2.009   8.044  18.638  0.00  0.00    +0.000 NA
ATOM      3  C   UNL     1       1.405   8.660  19.724  0.00  0.00    +0.000 A 
ATOM      4  C   UNL     1       1.645   7.906  20.856  0.00  0.00    +0.000 A 
ATOM      5  O   UNL     1       2.355   6.811  20.504  0.00  0.00    +0.000 OA
ENDROOT
BRANCH   3   6
ATOM      6  C   UNL     1       0.640   9.889  19.670  0.00  0.00    +0.000 C 
ATOM      7  O   UNL     1       1.131  10.975  19.959  0.00  0.00    +0.000 OA
ATOM      8  N   UNL     1      -0.657   9.723  19.258  0.00  0.00    +0.000 N 
ATOM      9  H   UNL     1      -0.935   8.801  18.940  0.00  0.00    +0.000 HD
BRANCH   8  10
ATOM     10  C   UNL     1      -1.543  10.846  19.085  0.00  0.00    +0.000 C 
BRANCH  10  11
ATOM     11  C   UNL     1      -2.403  10.748  17.847  0.00  0.00    +0.000 A 
ATOM     12  C   UNL     1      -3.557  11.529  17.674  0.00  0.00    +0.000 A 
ATOM     13  C   UNL     1      -4.295  11.453  16.491  0.00  0.00    +0.000 A 
ATOM     14  C   UNL     1      -3.871  10.611  15.469  0.00  0.00    +0.000 A 
ATOM     15  F   UNL     1      -4.575  10.544  14.333  0.00  0.00    +0.000 F 
ATOM     16  C   UNL     1      -2.720   9.846  15.608  0.00  0.00    +0.000 A 
ATOM     17  C   UNL     1      -1.984   9.920  16.790  0.00  0.00    +0.000 A 
ENDBRANCH  10  11
ENDBRANCH   8  10
ENDBRANCH   3   6
BRANCH   1  18
ATOM     18  C   UNL     1       3.248   5.789  18.496  0.00  0.00    +0.000 C 
BRANCH  18  19
ATOM     19  N   UNL     1       3.946   4.788  19.358  0.00  0.00    +0.000 NA
BRANCH  19  20
ATOM     20  C   UNL     1       3.245   3.456  19.411  0.00  0.00    +0.000 C 
ATOM     21  C   UNL     1       4.144   2.395  20.092  0.00  0.00    +0.000 C 
BRANCH  20  22
ATOM     22  C   UNL     1       1.830   3.487  20.113  0.00  0.00    +0.000 C 
ATOM     23  C   UNL     1       0.737   2.713  19.347  0.00  0.00    +0.000 C 
ATOM     24  C   UNL     1       1.858   2.994  21.564  0.00  0.00    +0.000 C 
ENDBRANCH  20  22
ENDBRANCH  19  20
BRANCH  19  25
ATOM     25  C   UNL     1       5.380   4.656  18.961  0.00  0.00    +0.000 C 
BRANCH  25  30
ATOM     26  C   UNL     1       7.154   4.412  13.444  0.00  0.00    +0.000 C 
ATOM     27  C   UNL     1       6.554   4.648  14.797  0.00  0.00    +0.000 A 
ATOM     28  C   UNL     1       5.422   3.947  15.207  0.00  0.00    +0.000 A 
ATOM     29  C   UNL     1       4.986   4.037  16.529  0.00  0.00    +0.000 A 
ATOM     30  C   UNL     1       5.697   4.797  17.475  0.00  0.00    +0.000 A 
ATOM     31  C   UNL     1       6.696   5.679  17.009  0.00  0.00    +0.000 A 
ATOM     32  C   UNL     1       7.318   6.760  17.855  0.00  0.00    +0.000 C 
ATOM     33  C   UNL     1       7.128   5.573  15.674  0.00  0.00    +0.000 A 
ENDBRANCH  25  30
ENDBRANCH  19  25
ENDBRANCH  18  19
ENDBRANCH   1  18
TORSDOF 9
ENDMDL
MODEL 6
REMARK VINA RESULT:      -8.2      1.701      4.431
REMARK  Name = 
REMARK  14 active torsions:
REMARK  status: ('A' for Active; 'I' for Inactive)
REMARK    1  A    between atoms: C_1  and  C_2
REMARK    2  A    between atoms: C_5  and  C_6
REMARK    3  A    between atoms: C_6  and  N_7
REMARK    4  A    between atoms: N_7  and  C_8
REMARK    5  A    between atoms: N_7  and  C_25
REMARK    6  A    between atoms: C_8  and  C_9
REMARK    7  A    between atoms: C_11  and  C_12
REMARK    8  A    between atoms: N_14  and  C_15
REMARK    9  A    between atoms: C_15  and  C_16
REMARK   10  A    between atoms: C_25  and  C_26
REMARK   11  A    between atoms: C_25  and  C_27
REMARK   12  A    between atoms: C_27  and  C_28
REMARK   13  A    between atoms: C_27  and  C_29
REMARK   14  A    between atoms: C_30  and  C_31
REMARK                            x       y       z     vdW  Elec       q    Type
REMARK                         _______ _______ _______ _____ _____    ______ ____
ROOT
ATOM      1  C   UNL     1       2.744   7.139  19.151  0.00  0.00    +0.000 A 
ATOM      2  N   UNL     1       2.365   8.246  18.529  0.00  0.00    +0.000 NA
ATOM      3  C   UNL     1       1.471   8.836  19.410  0.00  0.00    +0.000 A 
ATOM      4  C   UNL     1       1.407   8.074  20.559  0.00  0.00    +0.000 A 
ATOM      5  O   UNL     1       2.212   6.998  20.410  0.00  0.00    +0.000 OA
ENDROOT
BRANCH   3   6
ATOM      6  C   UNL     1       0.721  10.050  19.154  0.00  0.00    +0.000 C 
ATOM      7  O   UNL     1       1.259  11.071  18.738  0.00  0.00    +0.000 OA
ATOM      8  N   UNL     1      -0.622   9.942  19.405  0.00  0.00    +0.000 N 
ATOM      9  H   UNL     1      -0.983   9.025  19.644  0.00  0.00    +0.000 HD
BRANCH   8  10
ATOM     10  C   UNL     1      -1.528  11.032  19.145  0.00  0.00    +0.000 C 
BRANCH  10  11
ATOM     11  C   UNL     1      -2.373  10.829  17.911  0.00  0.00    +0.000 A 
ATOM     12  C   UNL     1      -3.555  11.553  17.685  0.00  0.00    +0.000 A 
ATOM     13  C   UNL     1      -4.280  11.381  16.504  0.00  0.00    +0.000 A 
ATOM     14  C   UNL     1      -3.815  10.498  15.536  0.00  0.00    +0.000 A 
ATOM     15  F   UNL     1      -4.508  10.339  14.401  0.00  0.00    +0.000 F 
ATOM     16  C   UNL     1      -2.637   9.788  15.726  0.00  0.00    +0.000 A 
ATOM     17  C   UNL     1      -1.914   9.958  16.906  0.00  0.00    +0.000 A 
ENDBRANCH  10  11
ENDBRANCH   8  10
ENDBRANCH   3   6
BRANCH   1  18
ATOM     18  C   UNL     1       3.646   6.020  18.720  0.00  0.00    +0.000 C 
BRANCH  18  19
ATOM     19  N   UNL     1       3.631   5.584  17.291  0.00  0.00    +0.000 NA
BRANCH  19  20
ATOM     20  C   UNL     1       4.911   5.894  16.559  0.00  0.00    +0.000 C 
ATOM     21  C   UNL     1       5.835   6.778  17.432  0.00  0.00    +0.000 C 
BRANCH  20  22
ATOM     22  C   UNL     1       5.704   4.622  16.059  0.00  0.00    +0.000 C 
ATOM     23  C   UNL     1       5.754   4.483  14.523  0.00  0.00    +0.000 C 
ATOM     24  C   UNL     1       7.133   4.540  16.608  0.00  0.00    +0.000 C 
ENDBRANCH  20  22
ENDBRANCH  19  20
BRANCH  19  25
ATOM     25  C   UNL     1       3.253   4.143  17.181  0.00  0.00    +0.000 C 
BRANCH  25  30
ATOM     26  C   UNL     1       1.102   2.523  22.318  0.00  0.00    +0.000 C 
ATOM     27  C   UNL     1       1.641   2.714  20.933  0.00  0.00    +0.000 A 
ATOM     28  C   UNL     1       0.788   3.011  19.870  0.00  0.00    +0.000 A 
ATOM     29  C   UNL     1       1.316   3.370  18.631  0.00  0.00    +0.000 A 
ATOM     30  C   UNL     1       2.705   3.478  18.440  0.00  0.00    +0.000 A 
ATOM     31  C   UNL     1       3.559   2.960  19.437  0.00  0.00    +0.000 A 
ATOM     32  C   UNL     1       5.036   2.732  19.239  0.00  0.00    +0.000 C 
ATOM     33  C   UNL     1       3.012   2.606  20.685  0.00  0.00    +0.000 A 
ENDBRANCH  25  30
ENDBRANCH  19  25
ENDBRANCH  18  19
ENDBRANCH   1  18
TORSDOF 9
ENDMDL
MODEL 7
REMARK VINA RESULT:      -8.1      2.971      3.882
REMARK  Name = 
REMARK  14 active torsions:
REMARK  status: ('A' for Active; 'I' for Inactive)
REMARK    1  A    between atoms: C_1  and  C_2
REMARK    2  A    between atoms: C_5  and  C_6
REMARK    3  A    between atoms: C_6  and  N_7
REMARK    4  A    between atoms: N_7  and  C_8
REMARK    5  A    between atoms: N_7  and  C_25
REMARK    6  A    between atoms: C_8  and  C_9
REMARK    7  A    between atoms: C_11  and  C_12
REMARK    8  A    between atoms: N_14  and  C_15
REMARK    9  A    between atoms: C_15  and  C_16
REMARK   10  A    between atoms: C_25  and  C_26
REMARK   11  A    between atoms: C_25  and  C_27
REMARK   12  A    between atoms: C_27  and  C_28
REMARK   13  A    between atoms: C_27  and  C_29
REMARK   14  A    between atoms: C_30  and  C_31
REMARK                            x       y       z     vdW  Elec       q    Type
REMARK                         _______ _______ _______ _____ _____    ______ ____
ROOT
ATOM      1  C   UNL     1       2.541   6.520  18.379  0.00  0.00    +0.000 A 
ATOM      2  N   UNL     1       2.504   7.651  17.689  0.00  0.00    +0.000 NA
ATOM      3  C   UNL     1       2.044   8.587  18.604  0.00  0.00    +0.000 A 
ATOM      4  C   UNL     1       1.887   7.973  19.831  0.00  0.00    +0.000 A 
ATOM      5  O   UNL     1       2.203   6.665  19.703  0.00  0.00    +0.000 OA
ENDROOT
BRANCH   3   6
ATOM      6  C   UNL     1       1.766   9.978  18.310  0.00  0.00    +0.000 C 
ATOM      7  O   UNL     1       2.226  10.539  17.320  0.00  0.00    +0.000 OA
ATOM      8  N   UNL     1       0.944  10.589  19.221  0.00  0.00    +0.000 N 
ATOM      9  H   UNL     1       0.532  10.011  19.945  0.00  0.00    +0.000 HD
BRANCH   8  10
ATOM     10  C   UNL     1       0.511  11.953  19.051  0.00  0.00    +0.000 C 
BRANCH  10  11
ATOM     11  C   UNL     1       1.590  12.967  19.348  0.00  0.00    +0.000 A 
ATOM     12  C   UNL     1       2.087  13.841  18.368  0.00  0.00    +0.000 A 
ATOM     13  C   UNL     1       3.043  14.805  18.694  0.00  0.00    +0.000 A 
ATOM     14  C   UNL     1       3.491  14.911  20.006  0.00  0.00    +0.000 A 
ATOM     15  F   UNL     1       4.403  15.840  20.319  0.00  0.00    +0.000 F 
ATOM     16  C   UNL     1       2.998  14.073  20.998  0.00  0.00    +0.000 A 
ATOM     17  C   UNL     1       2.045  13.109  20.672  0.00  0.00    +0.000 A 
ENDBRANCH  10  11
ENDBRANCH   8  10
ENDBRANCH   3   6
BRANCH   1  18
ATOM     18  C   UNL     1       2.884   5.118  17.966  0.00  0.00    +0.000 C 
BRANCH  18  19
ATOM     19  N   UNL     1       3.877   4.346  18.772  0.00  0.00    +0.000 NA
BRANCH  19  20
ATOM     20  C   UNL     1       3.299   3.103  19.396  0.00  0.00    +0.000 C 
ATOM     21  C   UNL     1       4.406   2.286  20.107  0.00  0.00    +0.000 C 
BRANCH  20  22
ATOM     22  C   UNL     1       2.104   3.367  20.397  0.00  0.00    +0.000 C 
ATOM     23  C   UNL     1       0.719   3.005  19.822  0.00  0.00    +0.000 C 
ATOM     24  C   UNL     1       2.275   2.666  21.750  0.00  0.00    +0.000 C 
ENDBRANCH  20  22
ENDBRANCH  19  20
BRANCH  19  25
ATOM     25  C   UNL     1       5.102   4.056  17.967  0.00  0.00    +0.000 C 
BRANCH  25  30
ATOM     26  C   UNL     1       8.401   8.825  18.101  0.00  0.00    +0.000 C 
ATOM     27  C   UNL     1       7.723   7.498  17.940  0.00  0.00    +0.000 A 
ATOM     28  C   UNL     1       7.905   6.485  18.881  0.00  0.00    +0.000 A 
ATOM     29  C   UNL     1       7.128   5.329  18.821  0.00  0.00    +0.000 A 
ATOM     30  C   UNL     1       6.125   5.181  17.845  0.00  0.00    +0.000 A 
ATOM     31  C   UNL     1       6.101   6.094  16.769  0.00  0.00    +0.000 A 
ATOM     32  C   UNL     1       5.294   5.885  15.513  0.00  0.00    +0.000 C 
ATOM     33  C   UNL     1       6.888   7.258  16.845  0.00  0.00    +0.000 A 
ENDBRANCH  25  30
ENDBRANCH  19  25
ENDBRANCH  18  19
ENDBRANCH   1  18
TORSDOF 9
ENDMDL
MODEL 8
REMARK VINA RESULT:      -8.1      2.433      3.341
REMARK  Name = 
REMARK  14 active torsions:
REMARK  status: ('A' for Active; 'I' for Inactive)
REMARK    1  A    between atoms: C_1  and  C_2
REMARK    2  A    between atoms: C_5  and  C_6
REMARK    3  A    between atoms: C_6  and  N_7
REMARK    4  A    between atoms: N_7  and  C_8
REMARK    5  A    between atoms: N_7  and  C_25
REMARK    6  A    between atoms: C_8  and  C_9
REMARK    7  A    between atoms: C_11  and  C_12
REMARK    8  A    between atoms: N_14  and  C_15
REMARK    9  A    between atoms: C_15  and  C_16
REMARK   10  A    between atoms: C_25  and  C_26
REMARK   11  A    between atoms: C_25  and  C_27
REMARK   12  A    between atoms: C_27  and  C_28
REMARK   13  A    between atoms: C_27  and  C_29
REMARK   14  A    between atoms: C_30  and  C_31
REMARK                            x       y       z     vdW  Elec       q    Type
REMARK                         _______ _______ _______ _____ _____    ______ ____
ROOT
ATOM      1  C   UNL     1       2.321   7.191  19.036  0.00  0.00    +0.000 A 
ATOM      2  N   UNL     1       2.072   8.374  18.490  0.00  0.00    +0.000 NA
ATOM      3  C   UNL     1       1.443   9.084  19.502  0.00  0.00    +0.000 A 
ATOM      4  C   UNL     1       1.402   8.301  20.639  0.00  0.00    +0.000 A 
ATOM      5  O   UNL     1       1.959   7.102  20.358  0.00  0.00    +0.000 OA
ENDROOT
BRANCH   3   6
ATOM      6  C   UNL     1       0.908  10.424  19.376  0.00  0.00    +0.000 C 
ATOM      7  O   UNL     1       1.539  11.329  18.838  0.00  0.00    +0.000 OA
ATOM      8  N   UNL     1      -0.352  10.575  19.893  0.00  0.00    +0.000 N 
ATOM      9  H   UNL     1      -0.830   9.742  20.219  0.00  0.00    +0.000 HD
BRANCH   8  10
ATOM     10  C   UNL     1      -1.062  11.826  19.796  0.00  0.00    +0.000 C 
BRANCH  10  11
ATOM     11  C   UNL     1      -1.919  12.125  21.003  0.00  0.00    +0.000 A 
ATOM     12  C   UNL     1      -3.171  12.750  20.896  0.00  0.00    +0.000 A 
ATOM     13  C   UNL     1      -3.962  12.959  22.028  0.00  0.00    +0.000 A 
ATOM     14  C   UNL     1      -3.510  12.524  23.269  0.00  0.00    +0.000 A 
ATOM     15  F   UNL     1      -4.271  12.719  24.353  0.00  0.00    +0.000 F 
ATOM     16  C   UNL     1      -2.285  11.883  23.398  0.00  0.00    +0.000 A 
ATOM     17  C   UNL     1      -1.495  11.677  22.267  0.00  0.00    +0.000 A 
ENDBRANCH  10  11
ENDBRANCH   8  10
ENDBRANCH   3   6
BRANCH   1  18
ATOM     18  C   UNL     1       2.923   5.942  18.461  0.00  0.00    +0.000 C 
BRANCH  18  19
ATOM     19  N   UNL     1       3.703   5.034  19.355  0.00  0.00    +0.000 NA
BRANCH  19  20
ATOM     20  C   UNL     1       3.138   3.640  19.428  0.00  0.00    +0.000 C 
ATOM     21  C   UNL     1       4.144   2.680  20.108  0.00  0.00    +0.000 C 
BRANCH  20  22
ATOM     22  C   UNL     1       1.734   3.539  20.148  0.00  0.00    +0.000 C 
ATOM     23  C   UNL     1       0.656   2.817  19.312  0.00  0.00    +0.000 C 
ATOM     24  C   UNL     1       1.804   2.885  21.533  0.00  0.00    +0.000 C 
ENDBRANCH  20  22
ENDBRANCH  19  20
BRANCH  19  25
ATOM     25  C   UNL     1       5.149   5.038  18.981  0.00  0.00    +0.000 C 
BRANCH  25  30
ATOM     26  C   UNL     1       6.861   4.217  13.500  0.00  0.00    +0.000 C 
ATOM     27  C   UNL     1       6.297   4.612  14.831  0.00  0.00    +0.000 A 
ATOM     28  C   UNL     1       5.096   4.067  15.286  0.00  0.00    +0.000 A 
ATOM     29  C   UNL     1       4.679   4.296  16.597  0.00  0.00    +0.000 A 
ATOM     30  C   UNL     1       5.473   5.039  17.489  0.00  0.00    +0.000 A 
ATOM     31  C   UNL     1       6.559   5.772  16.966  0.00  0.00    +0.000 A 
ATOM     32  C   UNL     1       7.299   6.836  17.736  0.00  0.00    +0.000 C 
ATOM     33  C   UNL     1       6.971   5.528  15.643  0.00  0.00    +0.000 A 
ENDBRANCH  25  30
ENDBRANCH  19  25
ENDBRANCH  18  19
ENDBRANCH   1  18
TORSDOF 9
ENDMDL
MODEL 9
REMARK VINA RESULT:      -8.0      1.711      2.176
REMARK  Name = 
REMARK  14 active torsions:
REMARK  status: ('A' for Active; 'I' for Inactive)
REMARK    1  A    between atoms: C_1  and  C_2
REMARK    2  A    between atoms: C_5  and  C_6
REMARK    3  A    between atoms: C_6  and  N_7
REMARK    4  A    between atoms: N_7  and  C_8
REMARK    5  A    between atoms: N_7  and  C_25
REMARK    6  A    between atoms: C_8  and  C_9
REMARK    7  A    between atoms: C_11  and  C_12
REMARK    8  A    between atoms: N_14  and  C_15
REMARK    9  A    between atoms: C_15  and  C_16
REMARK   10  A    between atoms: C_25  and  C_26
REMARK   11  A    between atoms: C_25  and  C_27
REMARK   12  A    between atoms: C_27  and  C_28
REMARK   13  A    between atoms: C_27  and  C_29
REMARK   14  A    between atoms: C_30  and  C_31
REMARK                            x       y       z     vdW  Elec       q    Type
REMARK                         _______ _______ _______ _____ _____    ______ ____
ROOT
ATOM      1  C   UNL     1       2.587   6.510  18.420  0.00  0.00    +0.000 A 
ATOM      2  N   UNL     1       2.137   6.712  19.651  0.00  0.00    +0.000 NA
ATOM      3  C   UNL     1       1.812   8.060  19.672  0.00  0.00    +0.000 A 
ATOM      4  C   UNL     1       2.027   8.592  18.417  0.00  0.00    +0.000 A 
ATOM      5  O   UNL     1       2.514   7.620  17.613  0.00  0.00    +0.000 OA
ENDROOT
BRANCH   3   6
ATOM      6  C   UNL     1       1.334   8.787  20.831  0.00  0.00    +0.000 C 
ATOM      7  O   UNL     1       1.363   8.305  21.959  0.00  0.00    +0.000 OA
ATOM      8  N   UNL     1       0.871  10.046  20.550  0.00  0.00    +0.000 N 
ATOM      9  H   UNL     1       0.989  10.390  19.603  0.00  0.00    +0.000 HD
BRANCH   8  10
ATOM     10  C   UNL     1       0.418  10.933  21.591  0.00  0.00    +0.000 C 
BRANCH  10  11
ATOM     11  C   UNL     1      -0.939  11.536  21.318  0.00  0.00    +0.000 A 
ATOM     12  C   UNL     1      -1.785  11.975  22.350  0.00  0.00    +0.000 A 
ATOM     13  C   UNL     1      -3.009  12.581  22.058  0.00  0.00    +0.000 A 
ATOM     14  C   UNL     1      -3.382  12.768  20.731  0.00  0.00    +0.000 A 
ATOM     15  F   UNL     1      -4.552  13.355  20.451  0.00  0.00    +0.000 F 
ATOM     16  C   UNL     1      -2.552  12.363  19.693  0.00  0.00    +0.000 A 
ATOM     17  C   UNL     1      -1.332  11.756  19.986  0.00  0.00    +0.000 A 
ENDBRANCH  10  11
ENDBRANCH   8  10
ENDBRANCH   3   6
BRANCH   1  18
ATOM     18  C   UNL     1       3.161   5.289  17.763  0.00  0.00    +0.000 C 
BRANCH  18  19
ATOM     19  N   UNL     1       3.608   4.147  18.616  0.00  0.00    +0.000 NA
BRANCH  19  20
ATOM     20  C   UNL     1       2.626   3.005  18.646  0.00  0.00    +0.000 C 
ATOM     21  C   UNL     1       3.304   1.692  18.187  0.00  0.00    +0.000 C 
BRANCH  20  22
ATOM     22  C   UNL     1       1.923   2.783  20.044  0.00  0.00    +0.000 C 
ATOM     23  C   UNL     1       2.886   2.867  21.247  0.00  0.00    +0.000 C 
ATOM     24  C   UNL     1       0.742   3.730  20.290  0.00  0.00    +0.000 C 
ENDBRANCH  20  22
ENDBRANCH  19  20
BRANCH  19  25
ATOM     25  C   UNL     1       4.980   3.701  18.227  0.00  0.00    +0.000 C 
BRANCH  25  30
ATOM     26  C   UNL     1       8.280   8.456  17.856  0.00  0.00    +0.000 C 
ATOM     27  C   UNL     1       7.626   7.109  17.907  0.00  0.00    +0.000 A 
ATOM     28  C   UNL     1       7.525   6.410  19.109  0.00  0.00    +0.000 A 
ATOM     29  C   UNL     1       6.754   5.250  19.179  0.00  0.00    +0.000 A 
ATOM     30  C   UNL     1       6.035   4.791  18.061  0.00  0.00    +0.000 A 
ATOM     31  C   UNL     1       6.320   5.363  16.803  0.00  0.00    +0.000 A 
ATOM     32  C   UNL     1       5.861   4.774  15.493  0.00  0.00    +0.000 C 
ATOM     33  C   UNL     1       7.096   6.535  16.748  0.00  0.00    +0.000 A 
ENDBRANCH  25  30
ENDBRANCH  19  25
ENDBRANCH  18  19
ENDBRANCH   1  18
TORSDOF 9
ENDMDL
