MODEL 1
REMARK VINA RESULT:      -9.0      0.000      0.000
REMARK  Name = 
REMARK  6 active torsions:
REMARK  status: ('A' for Active; 'I' for Inactive)
REMARK    1  A    between atoms: C_7  and  C_8
REMARK    2  A    between atoms: C_8  and  C_9
REMARK    3  A    between atoms: C_9  and  C_10
REMARK    4  A    between atoms: C_13  and  C_14
REMARK    5  A    between atoms: N_16  and  C_17
REMARK    6  A    between atoms: C_17  and  C_18
REMARK                            x       y       z     vdW  Elec       q    Type
REMARK                         _______ _______ _______ _____ _____    ______ ____
ROOT
ATOM      1  C   UNL     1       0.452  10.481  20.177  0.00  0.00    +0.000 C 
ENDROOT
BRANCH   1   2
ATOM      2  C   UNL     1       1.166   9.215  19.741  0.00  0.00    +0.000 A 
ATOM      3  C   UNL     1       1.430   8.147  20.610  0.00  0.00    +0.000 A 
ATOM      4  C   UNL     1       2.093   7.006  20.159  0.00  0.00    +0.000 A 
ATOM      5  C   UNL     1       2.513   6.913  18.829  0.00  0.00    +0.000 A 
ATOM      6  C   UNL     1       2.240   7.959  17.945  0.00  0.00    +0.000 A 
ATOM      7  C   UNL     1       1.577   9.104  18.402  0.00  0.00    +0.000 A 
BRANCH   5   8
ATOM      8  C   UNL     1       3.206   5.694  18.336  0.00  0.00    +0.000 C 
ATOM      9  O   UNL     1       2.606   4.873  17.654  0.00  0.00    +0.000 OA
ATOM     10  N   UNL     1       4.534   5.585  18.687  0.00  0.00    +0.000 N 
ATOM     11  H   UNL     1       5.014   6.400  19.044  0.00  0.00    +0.000 HD
BRANCH  10  12
ATOM     12  C   UNL     1       5.344   4.448  18.312  0.00  0.00    +0.000 C 
BRANCH  12  13
ATOM     13  C   UNL     1       5.923   4.596  16.937  0.00  0.00    +0.000 A 
ATOM     14  C   UNL     1       5.453   3.842  15.859  0.00  0.00    +0.000 A 
ATOM     15  C   UNL     1       6.025   3.998  14.600  0.00  0.00    +0.000 A 
ATOM     16  C   UNL     1       7.060   4.905  14.460  0.00  0.00    +0.000 A 
ATOM     17  N   UNL     1       7.548   5.650  15.476  0.00  0.00    +0.000 NA
ATOM     18  C   UNL     1       6.971   5.475  16.687  0.00  0.00    +0.000 A 
ENDBRANCH  12  13
ENDBRANCH  10  12
ENDBRANCH   5   8
ENDBRANCH   1   2
BRANCH   1  19
ATOM     19  C   UNL     1      -0.162  11.327  19.055  0.00  0.00    +0.000 C 
BRANCH  19  26
ATOM     20  N   UNL     1      -6.594  11.882  17.246  0.00  0.00    +0.000 N 
ATOM     21  C   UNL     1      -5.287  11.853  17.694  0.00  0.00    +0.000 A 
ATOM     22  N   UNL     1      -4.364  11.413  16.828  0.00  0.00    +0.000 NA
ATOM     23  C   UNL     1      -3.071  11.338  17.212  0.00  0.00    +0.000 A 
ATOM     24  N   UNL     1      -2.182  10.871  16.251  0.00  0.00    +0.000 N 
ATOM     25  C   UNL     1      -2.727  11.722  18.518  0.00  0.00    +0.000 A 
ATOM     26  C   UNL     1      -1.557  11.777  19.353  0.00  0.00    +0.000 A 
ATOM     27  C   UNL     1      -1.954  12.316  20.568  0.00  0.00    +0.000 A 
ATOM     28  N   UNL     1      -3.296  12.574  20.507  0.00  0.00    +0.000 N 
ATOM     29  C   UNL     1      -3.779  12.201  19.286  0.00  0.00    +0.000 A 
ATOM     30  N   UNL     1      -5.065  12.298  18.932  0.00  0.00    +0.000 NA
ATOM     31  H   UNL     1      -6.598  11.920  16.236  0.00  0.00    +0.000 HD
ATOM     32  H   UNL     1      -7.105  12.599  17.741  0.00  0.00    +0.000 HD
ATOM     33  H   UNL     1      -2.706  10.462  15.484  0.00  0.00    +0.000 HD
ATOM     34  H   UNL     1      -1.431  10.303  16.610  0.00  0.00    +0.000 HD
ATOM     35  H   UNL     1      -3.867  12.961  21.242  0.00  0.00    +0.000 HD
ENDBRANCH  19  26
ENDBRANCH   1  19
TORSDOF 6
ENDMDL
MODEL 2
REMARK VINA RESULT:      -9.0      7.091      9.968
REMARK  Name = 
REMARK  6 active torsions:
REMARK  status: ('A' for Active; 'I' for Inactive)
REMARK    1  A    between atoms: C_7  and  C_8
REMARK    2  A    between atoms: C_8  and  C_9
REMARK    3  A    between atoms: C_9  and  C_10
REMARK    4  A    between atoms: C_13  and  C_14
REMARK    5  A    between atoms: N_16  and  C_17
REMARK    6  A    between atoms: C_17  and  C_18
REMARK                            x       y       z     vdW  Elec       q    Type
REMARK                         _______ _______ _______ _____ _____    ______ ____
ROOT
ATOM      1  C   UNL     1       8.518   9.113  17.833  0.00  0.00    +0.000 C 
ENDROOT
BRANCH   1   2
ATOM      2  C   UNL     1       7.746   7.810  17.923  0.00  0.00    +0.000 A 
ATOM      3  C   UNL     1       8.132   6.748  18.752  0.00  0.00    +0.000 A 
ATOM      4  C   UNL     1       7.388   5.568  18.795  0.00  0.00    +0.000 A 
ATOM      5  C   UNL     1       6.245   5.426  18.003  0.00  0.00    +0.000 A 
ATOM      6  C   UNL     1       5.835   6.482  17.187  0.00  0.00    +0.000 A 
ATOM      7  C   UNL     1       6.586   7.663  17.144  0.00  0.00    +0.000 A 
BRANCH   5   8
ATOM      8  C   UNL     1       5.437   4.179  18.055  0.00  0.00    +0.000 C 
ATOM      9  O   UNL     1       4.922   3.732  17.038  0.00  0.00    +0.000 OA
ATOM     10  N   UNL     1       5.339   3.588  19.296  0.00  0.00    +0.000 N 
ATOM     11  H   UNL     1       5.973   3.878  20.028  0.00  0.00    +0.000 HD
BRANCH  10  12
ATOM     12  C   UNL     1       4.567   2.386  19.524  0.00  0.00    +0.000 C 
BRANCH  12  13
ATOM     13  C   UNL     1       3.094   2.664  19.572  0.00  0.00    +0.000 A 
ATOM     14  C   UNL     1       2.517   3.374  20.628  0.00  0.00    +0.000 A 
ATOM     15  C   UNL     1       1.144   3.600  20.644  0.00  0.00    +0.000 A 
ATOM     16  C   UNL     1       0.386   3.098  19.601  0.00  0.00    +0.000 A 
ATOM     17  N   UNL     1       0.903   2.402  18.565  0.00  0.00    +0.000 NA
ATOM     18  C   UNL     1       2.241   2.200  18.577  0.00  0.00    +0.000 A 
ENDBRANCH  12  13
ENDBRANCH  10  12
ENDBRANCH   5   8
ENDBRANCH   1   2
BRANCH   1  19
ATOM     19  C   UNL     1       9.006   9.699  19.163  0.00  0.00    +0.000 C 
BRANCH  19  26
ATOM     20  N   UNL     1      10.629  15.549  22.007  0.00  0.00    +0.000 N 
ATOM     21  C   UNL     1      10.284  14.401  21.320  0.00  0.00    +0.000 A 
ATOM     22  N   UNL     1       9.692  13.431  22.031  0.00  0.00    +0.000 NA
ATOM     23  C   UNL     1       9.351  12.273  21.425  0.00  0.00    +0.000 A 
ATOM     24  N   UNL     1       8.742  11.323  22.235  0.00  0.00    +0.000 N 
ATOM     25  C   UNL     1       9.632  12.114  20.057  0.00  0.00    +0.000 A 
ATOM     26  C   UNL     1       9.502  11.105  19.041  0.00  0.00    +0.000 A 
ATOM     27  C   UNL     1       9.971  11.661  17.859  0.00  0.00    +0.000 A 
ATOM     28  N   UNL     1      10.381  12.939  18.119  0.00  0.00    +0.000 N 
ATOM     29  C   UNL     1      10.204  13.218  19.442  0.00  0.00    +0.000 A 
ATOM     30  N   UNL     1      10.542  14.380  20.012  0.00  0.00    +0.000 NA
ATOM     31  H   UNL     1      10.056  15.626  22.835  0.00  0.00    +0.000 HD
ATOM     32  H   UNL     1      10.635  16.334  21.370  0.00  0.00    +0.000 HD
ATOM     33  H   UNL     1       8.854  11.594  23.207  0.00  0.00    +0.000 HD
ATOM     34  H   UNL     1       8.984  10.368  22.024  0.00  0.00    +0.000 HD
ATOM     35  H   UNL     1      10.777  13.589  17.456  0.00  0.00    +0.000 HD
ENDBRANCH  19  26
ENDBRANCH   1  19
TORSDOF 6
ENDMDL
MODEL 3
REMARK VINA RESULT:      -8.9      7.127      9.990
REMARK  Name = 
REMARK  6 active torsions:
REMARK  status: ('A' for Active; 'I' for Inactive)
REMARK    1  A    between atoms: C_7  and  C_8
REMARK    2  A    between atoms: C_8  and  C_9
REMARK    3  A    between atoms: C_9  and  C_10
REMARK    4  A    between atoms: C_13  and  C_14
REMARK    5  A    between atoms: N_16  and  C_17
REMARK    6  A    between atoms: C_17  and  C_18
REMARK                            x       y       z     vdW  Elec       q    Type
REMARK                         _______ _______ _______ _____ _____    ______ ____
ROOT
ATOM      1  C   UNL     1       8.383   9.198  17.730  0.00  0.00    +0.000 C 
ENDROOT
BRANCH   1   2
ATOM      2  C   UNL     1       7.599   7.900  17.791  0.00  0.00    +0.000 A 
ATOM      3  C   UNL     1       6.414   7.688  17.072  0.00  0.00    +0.000 A 
ATOM      4  C   UNL     1       5.728   6.477  17.166  0.00  0.00    +0.000 A 
ATOM      5  C   UNL     1       6.212   5.455  17.989  0.00  0.00    +0.000 A 
ATOM      6  C   UNL     1       7.402   5.642  18.696  0.00  0.00    +0.000 A 
ATOM      7  C   UNL     1       8.085   6.860  18.601  0.00  0.00    +0.000 A 
BRANCH   5   8
ATOM      8  C   UNL     1       5.497   4.155  18.083  0.00  0.00    +0.000 C 
ATOM      9  O   UNL     1       5.091   3.597  17.071  0.00  0.00    +0.000 OA
ATOM     10  N   UNL     1       5.353   3.649  19.356  0.00  0.00    +0.000 N 
ATOM     11  H   UNL     1       5.909   4.040  20.104  0.00  0.00    +0.000 HD
BRANCH  10  12
ATOM     12  C   UNL     1       4.657   2.410  19.623  0.00  0.00    +0.000 C 
BRANCH  12  13
ATOM     13  C   UNL     1       3.176   2.610  19.746  0.00  0.00    +0.000 A 
ATOM     14  C   UNL     1       2.300   2.247  18.720  0.00  0.00    +0.000 A 
ATOM     15  C   UNL     1       0.933   2.462  18.865  0.00  0.00    +0.000 A 
ATOM     16  C   UNL     1       0.483   3.044  20.037  0.00  0.00    +0.000 A 
ATOM     17  N   UNL     1       1.295   3.414  21.051  0.00  0.00    +0.000 NA
ATOM     18  C   UNL     1       2.619   3.192  20.880  0.00  0.00    +0.000 A 
ENDBRANCH  12  13
ENDBRANCH  10  12
ENDBRANCH   5   8
ENDBRANCH   1   2
BRANCH   1  19
ATOM     19  C   UNL     1       9.101   9.611  19.020  0.00  0.00    +0.000 C 
BRANCH  19  26
ATOM     20  N   UNL     1      10.537  15.375  22.129  0.00  0.00    +0.000 N 
ATOM     21  C   UNL     1      10.243  14.246  21.388  0.00  0.00    +0.000 A 
ATOM     22  N   UNL     1       9.563  13.276  22.016  0.00  0.00    +0.000 NA
ATOM     23  C   UNL     1       9.264  12.136  21.356  0.00  0.00    +0.000 A 
ATOM     24  N   UNL     1       8.557  11.185  22.082  0.00  0.00    +0.000 N 
ATOM     25  C   UNL     1       9.679  11.996  20.021  0.00  0.00    +0.000 A 
ATOM     26  C   UNL     1       9.634  11.007  18.977  0.00  0.00    +0.000 A 
ATOM     27  C   UNL     1      10.230  11.575  17.860  0.00  0.00    +0.000 A 
ATOM     28  N   UNL     1      10.636  12.840  18.185  0.00  0.00    +0.000 N 
ATOM     29  C   UNL     1      10.331  13.099  19.489  0.00  0.00    +0.000 A 
ATOM     30  N   UNL     1      10.632  14.243  20.112  0.00  0.00    +0.000 NA
ATOM     31  H   UNL     1       9.885  15.448  22.896  0.00  0.00    +0.000 HD
ATOM     32  H   UNL     1      10.622  16.170  21.511  0.00  0.00    +0.000 HD
ATOM     33  H   UNL     1       8.575  11.436  23.065  0.00  0.00    +0.000 HD
ATOM     34  H   UNL     1       8.801  10.229  21.877  0.00  0.00    +0.000 HD
ATOM     35  H   UNL     1      11.109  13.493  17.578  0.00  0.00    +0.000 HD
ENDBRANCH  19  26
ENDBRANCH   1  19
TORSDOF 6
ENDMDL
MODEL 4
REMARK VINA RESULT:      -8.8      2.718     10.681
REMARK  Name = 
REMARK  6 active torsions:
REMARK  status: ('A' for Active; 'I' for Inactive)
REMARK    1  A    between atoms: C_7  and  C_8
REMARK    2  A    between atoms: C_8  and  C_9
REMARK    3  A    between atoms: C_9  and  C_10
REMARK    4  A    between atoms: C_13  and  C_14
REMARK    5  A    between atoms: N_16  and  C_17
REMARK    6  A    between atoms: C_17  and  C_18
REMARK                            x       y       z     vdW  Elec       q    Type
REMARK                         _______ _______ _______ _____ _____    ______ ____
ROOT
ATOM      1  C   UNL     1       2.282   9.424  18.046  0.00  0.00    +0.000 C 
ENDROOT
BRANCH   1   2
ATOM      2  C   UNL     1       0.997  10.138  18.422  0.00  0.00    +0.000 A 
ATOM      3  C   UNL     1       0.949  11.191  19.347  0.00  0.00    +0.000 A 
ATOM      4  C   UNL     1      -0.260  11.812  19.661  0.00  0.00    +0.000 A 
ATOM      5  C   UNL     1      -1.448  11.387  19.059  0.00  0.00    +0.000 A 
ATOM      6  C   UNL     1      -1.415  10.354  18.120  0.00  0.00    +0.000 A 
ATOM      7  C   UNL     1      -0.201   9.731  17.811  0.00  0.00    +0.000 A 
BRANCH   5   8
ATOM      8  C   UNL     1      -2.738  12.054  19.375  0.00  0.00    +0.000 C 
ATOM      9  O   UNL     1      -2.851  12.739  20.385  0.00  0.00    +0.000 OA
ATOM     10  N   UNL     1      -3.748  11.856  18.459  0.00  0.00    +0.000 N 
ATOM     11  H   UNL     1      -3.516  11.482  17.549  0.00  0.00    +0.000 HD
BRANCH  10  12
ATOM     12  C   UNL     1      -5.072  12.411  18.632  0.00  0.00    +0.000 C 
BRANCH  12  13
ATOM     13  C   UNL     1      -5.986  11.472  19.361  0.00  0.00    +0.000 A 
ATOM     14  C   UNL     1      -6.382  10.254  18.802  0.00  0.00    +0.000 A 
ATOM     15  C   UNL     1      -7.242   9.415  19.503  0.00  0.00    +0.000 A 
ATOM     16  C   UNL     1      -7.688   9.827  20.747  0.00  0.00    +0.000 A 
ATOM     17  N   UNL     1      -7.334  10.997  21.321  0.00  0.00    +0.000 NA
ATOM     18  C   UNL     1      -6.496  11.791  20.615  0.00  0.00    +0.000 A 
ENDBRANCH  12  13
ENDBRANCH  10  12
ENDBRANCH   5   8
ENDBRANCH   1   2
BRANCH   1  19
ATOM     19  C   UNL     1       2.126   7.991  17.523  0.00  0.00    +0.000 C 
BRANCH  19  26
ATOM     20  N   UNL     1       7.673   4.269  18.087  0.00  0.00    +0.000 N 
ATOM     21  C   UNL     1       6.479   4.963  18.046  0.00  0.00    +0.000 A 
ATOM     22  N   UNL     1       6.223   5.650  16.924  0.00  0.00    +0.000 NA
ATOM     23  C   UNL     1       5.084   6.370  16.828  0.00  0.00    +0.000 A 
ATOM     24  N   UNL     1       4.898   7.051  15.631  0.00  0.00    +0.000 N 
ATOM     25  C   UNL     1       4.194   6.381  17.915  0.00  0.00    +0.000 A 
ATOM     26  C   UNL     1       2.946   6.995  18.280  0.00  0.00    +0.000 A 
ATOM     27  C   UNL     1       2.613   6.514  19.539  0.00  0.00    +0.000 A 
ATOM     28  N   UNL     1       3.599   5.659  19.947  0.00  0.00    +0.000 N 
ATOM     29  C   UNL     1       4.568   5.586  18.989  0.00  0.00    +0.000 A 
ATOM     30  N   UNL     1       5.682   4.855  19.109  0.00  0.00    +0.000 NA
ATOM     31  H   UNL     1       7.985   4.088  17.144  0.00  0.00    +0.000 HD
ATOM     32  H   UNL     1       7.581   3.477  18.707  0.00  0.00    +0.000 HD
ATOM     33  H   UNL     1       5.771   7.056  15.112  0.00  0.00    +0.000 HD
ATOM     34  H   UNL     1       4.445   7.947  15.720  0.00  0.00    +0.000 HD
ATOM     35  H   UNL     1       3.638   5.162  20.824  0.00  0.00    +0.000 HD
ENDBRANCH  19  26
ENDBRANCH   1  19
TORSDOF 6
ENDMDL
MODEL 5
REMARK VINA RESULT:      -8.8      2.069     10.147
REMARK  Name = 
REMARK  6 active torsions:
REMARK  status: ('A' for Active; 'I' for Inactive)
REMARK    1  A    between atoms: C_7  and  C_8
REMARK    2  A    between atoms: C_8  and  C_9
REMARK    3  A    between atoms: C_9  and  C_10
REMARK    4  A    between atoms: C_13  and  C_14
REMARK    5  A    between atoms: N_16  and  C_17
REMARK    6  A    between atoms: C_17  and  C_18
REMARK                            x       y       z     vdW  Elec       q    Type
REMARK                         _______ _______ _______ _____ _____    ______ ____
ROOT
ATOM      1  C   UNL     1       3.811   5.292  19.084  0.00  0.00    +0.000 C 
ENDROOT
BRANCH   1   2
ATOM      2  C   UNL     1       2.986   6.565  19.108  0.00  0.00    +0.000 A 
ATOM      3  C   UNL     1       2.230   6.967  20.218  0.00  0.00    +0.000 A 
ATOM      4  C   UNL     1       1.486   8.146  20.188  0.00  0.00    +0.000 A 
ATOM      5  C   UNL     1       1.478   8.945  19.041  0.00  0.00    +0.000 A 
ATOM      6  C   UNL     1       2.241   8.571  17.933  0.00  0.00    +0.000 A 
ATOM      7  C   UNL     1       2.984   7.385  17.967  0.00  0.00    +0.000 A 
BRANCH   5   8
ATOM      8  C   UNL     1       0.700  10.211  19.005  0.00  0.00    +0.000 C 
ATOM      9  O   UNL     1       1.251  11.269  18.725  0.00  0.00    +0.000 OA
ATOM     10  N   UNL     1      -0.643  10.090  19.287  0.00  0.00    +0.000 N 
ATOM     11  H   UNL     1      -1.064   9.171  19.276  0.00  0.00    +0.000 HD
BRANCH  10  12
ATOM     12  C   UNL     1      -1.534  11.229  19.322  0.00  0.00    +0.000 C 
BRANCH  12  13
ATOM     13  C   UNL     1      -2.501  11.223  18.175  0.00  0.00    +0.000 A 
ATOM     14  C   UNL     1      -3.817  11.668  18.325  0.00  0.00    +0.000 A 
ATOM     15  C   UNL     1      -4.688  11.635  17.241  0.00  0.00    +0.000 A 
ATOM     16  C   UNL     1      -4.215  11.148  16.035  0.00  0.00    +0.000 A 
ATOM     17  N   UNL     1      -2.953  10.704  15.849  0.00  0.00    +0.000 NA
ATOM     18  C   UNL     1      -2.129  10.749  16.922  0.00  0.00    +0.000 A 
ENDBRANCH  12  13
ENDBRANCH  10  12
ENDBRANCH   5   8
ENDBRANCH   1   2
BRANCH   1  19
ATOM     19  C   UNL     1       5.315   5.460  19.331  0.00  0.00    +0.000 C 
BRANCH  19  26
ATOM     20  N   UNL     1       6.701   3.740  13.001  0.00  0.00    +0.000 N 
ATOM     21  C   UNL     1       6.519   4.146  14.309  0.00  0.00    +0.000 A 
ATOM     22  N   UNL     1       5.701   3.398  15.062  0.00  0.00    +0.000 NA
ATOM     23  C   UNL     1       5.462   3.754  16.343  0.00  0.00    +0.000 A 
ATOM     24  N   UNL     1       4.602   2.922  17.051  0.00  0.00    +0.000 N 
ATOM     25  C   UNL     1       6.079   4.908  16.854  0.00  0.00    +0.000 A 
ATOM     26  C   UNL     1       6.098   5.669  18.074  0.00  0.00    +0.000 A 
ATOM     27  C   UNL     1       6.990   6.715  17.881  0.00  0.00    +0.000 A 
ATOM     28  N   UNL     1       7.492   6.625  16.613  0.00  0.00    +0.000 N 
ATOM     29  C   UNL     1       6.935   5.554  15.975  0.00  0.00    +0.000 A 
ATOM     30  N   UNL     1       7.201   5.221  14.707  0.00  0.00    +0.000 NA
ATOM     31  H   UNL     1       6.489   2.755  12.926  0.00  0.00    +0.000 HD
ATOM     32  H   UNL     1       7.606   4.047  12.675  0.00  0.00    +0.000 HD
ATOM     33  H   UNL     1       4.132   2.300  16.401  0.00  0.00    +0.000 HD
ATOM     34  H   UNL     1       4.000   3.395  17.706  0.00  0.00    +0.000 HD
ATOM     35  H   UNL     1       8.156   7.251  16.183  0.00  0.00    +0.000 HD
ENDBRANCH  19  26
ENDBRANCH   1  19
TORSDOF 6
ENDMDL
MODEL 6
REMARK VINA RESULT:      -8.7      1.916     10.223
REMARK  Name = 
REMARK  6 active torsions:
REMARK  status: ('A' for Active; 'I' for Inactive)
REMARK    1  A    between atoms: C_7  and  C_8
REMARK    2  A    between atoms: C_8  and  C_9
REMARK    3  A    between atoms: C_9  and  C_10
REMARK    4  A    between atoms: C_13  and  C_14
REMARK    5  A    between atoms: N_16  and  C_17
REMARK    6  A    between atoms: C_17  and  C_18
REMARK                            x       y       z     vdW  Elec       q    Type
REMARK                         _______ _______ _______ _____ _____    ______ ____
ROOT
ATOM      1  C   UNL     1       3.787   5.325  19.060  0.00  0.00    +0.000 C 
ENDROOT
BRANCH   1   2
ATOM      2  C   UNL     1       2.933   6.577  19.144  0.00  0.00    +0.000 A 
ATOM      3  C   UNL     1       2.782   7.474  18.077  0.00  0.00    +0.000 A 
ATOM      4  C   UNL     1       1.988   8.613  18.207  0.00  0.00    +0.000 A 
ATOM      5  C   UNL     1       1.333   8.881  19.413  0.00  0.00    +0.000 A 
ATOM      6  C   UNL     1       1.456   7.988  20.479  0.00  0.00    +0.000 A 
ATOM      7  C   UNL     1       2.257   6.848  20.345  0.00  0.00    +0.000 A 
BRANCH   5   8
ATOM      8  C   UNL     1       0.472  10.084  19.555  0.00  0.00    +0.000 C 
ATOM      9  O   UNL     1      -0.020  10.369  20.640  0.00  0.00    +0.000 OA
ATOM     10  N   UNL     1       0.298  10.828  18.408  0.00  0.00    +0.000 N 
ATOM     11  H   UNL     1       0.913  10.667  17.623  0.00  0.00    +0.000 HD
BRANCH  10  12
ATOM     12  C   UNL     1      -0.533  12.011  18.370  0.00  0.00    +0.000 C 
BRANCH  12  13
ATOM     13  C   UNL     1      -1.963  11.685  18.056  0.00  0.00    +0.000 A 
ATOM     14  C   UNL     1      -2.329  11.087  16.847  0.00  0.00    +0.000 A 
ATOM     15  C   UNL     1      -3.668  10.813  16.586  0.00  0.00    +0.000 A 
ATOM     16  C   UNL     1      -4.605  11.154  17.546  0.00  0.00    +0.000 A 
ATOM     17  N   UNL     1      -4.294  11.738  18.724  0.00  0.00    +0.000 NA
ATOM     18  C   UNL     1      -2.984  11.992  18.949  0.00  0.00    +0.000 A 
ENDBRANCH  12  13
ENDBRANCH  10  12
ENDBRANCH   5   8
ENDBRANCH   1   2
BRANCH   1  19
ATOM     19  C   UNL     1       5.287   5.516  19.315  0.00  0.00    +0.000 C 
BRANCH  19  26
ATOM     20  N   UNL     1       6.738   3.718  13.022  0.00  0.00    +0.000 N 
ATOM     21  C   UNL     1       6.542   4.141  14.323  0.00  0.00    +0.000 A 
ATOM     22  N   UNL     1       5.725   3.396  15.080  0.00  0.00    +0.000 NA
ATOM     23  C   UNL     1       5.473   3.768  16.354  0.00  0.00    +0.000 A 
ATOM     24  N   UNL     1       4.616   2.939  17.067  0.00  0.00    +0.000 N 
ATOM     25  C   UNL     1       6.075   4.936  16.853  0.00  0.00    +0.000 A 
ATOM     26  C   UNL     1       6.077   5.714  18.062  0.00  0.00    +0.000 A 
ATOM     27  C   UNL     1       6.960   6.766  17.860  0.00  0.00    +0.000 A 
ATOM     28  N   UNL     1       7.472   6.662  16.597  0.00  0.00    +0.000 N 
ATOM     29  C   UNL     1       6.932   5.578  15.971  0.00  0.00    +0.000 A 
ATOM     30  N   UNL     1       7.210   5.229  14.710  0.00  0.00    +0.000 NA
ATOM     31  H   UNL     1       6.536   2.730  12.960  0.00  0.00    +0.000 HD
ATOM     32  H   UNL     1       7.643   4.030  12.699  0.00  0.00    +0.000 HD
ATOM     33  H   UNL     1       4.157   2.302  16.424  0.00  0.00    +0.000 HD
ATOM     34  H   UNL     1       4.004   3.415  17.711  0.00  0.00    +0.000 HD
ATOM     35  H   UNL     1       8.134   7.289  16.164  0.00  0.00    +0.000 HD
ENDBRANCH  19  26
ENDBRANCH   1  19
TORSDOF 6
ENDMDL
MODEL 7
REMARK VINA RESULT:      -8.7      6.012      9.173
REMARK  Name = 
REMARK  6 active torsions:
REMARK  status: ('A' for Active; 'I' for Inactive)
REMARK    1  A    between atoms: C_7  and  C_8
REMARK    2  A    between atoms: C_8  and  C_9
REMARK    3  A    between atoms: C_9  and  C_10
REMARK    4  A    between atoms: C_13  and  C_14
REMARK    5  A    between atoms: N_16  and  C_17
REMARK    6  A    between atoms: C_17  and  C_18
REMARK                            x       y       z     vdW  Elec       q    Type
REMARK                         _______ _______ _______ _____ _____    ______ ____
ROOT
ATOM      1  C   UNL     1       6.169   5.186  17.190  0.00  0.00    +0.000 C 
ENDROOT
BRANCH   1   2
ATOM      2  C   UNL     1       6.957   6.398  17.650  0.00  0.00    +0.000 A 
ATOM      3  C   UNL     1       7.859   6.362  18.722  0.00  0.00    +0.000 A 
ATOM      4  C   UNL     1       8.557   7.507  19.108  0.00  0.00    +0.000 A 
ATOM      5  C   UNL     1       8.360   8.714  18.432  0.00  0.00    +0.000 A 
ATOM      6  C   UNL     1       7.479   8.763  17.349  0.00  0.00    +0.000 A 
ATOM      7  C   UNL     1       6.779   7.613  16.967  0.00  0.00    +0.000 A 
BRANCH   5   8
ATOM      8  C   UNL     1       9.111   9.935  18.826  0.00  0.00    +0.000 C 
ATOM      9  O   UNL     1       9.357  10.157  20.005  0.00  0.00    +0.000 OA
ATOM     10  N   UNL     1       9.504  10.750  17.787  0.00  0.00    +0.000 N 
ATOM     11  H   UNL     1       9.472  10.389  16.844  0.00  0.00    +0.000 HD
BRANCH  10  12
ATOM     12  C   UNL     1      10.217  11.989  18.002  0.00  0.00    +0.000 C 
BRANCH  12  13
ATOM     13  C   UNL     1       9.304  13.179  17.966  0.00  0.00    +0.000 A 
ATOM     14  C   UNL     1       7.961  13.060  17.597  0.00  0.00    +0.000 A 
ATOM     15  C   UNL     1       7.149  14.189  17.562  0.00  0.00    +0.000 A 
ATOM     16  C   UNL     1       7.710  15.410  17.894  0.00  0.00    +0.000 A 
ATOM     17  N   UNL     1       9.003  15.569  18.251  0.00  0.00    +0.000 NA
ATOM     18  C   UNL     1       9.768  14.453  18.275  0.00  0.00    +0.000 A 
ENDBRANCH  12  13
ENDBRANCH  10  12
ENDBRANCH   5   8
ENDBRANCH   1   2
BRANCH   1  19
ATOM     19  C   UNL     1       4.711   5.444  16.790  0.00  0.00    +0.000 C 
BRANCH  19  26
ATOM     20  N   UNL     1       1.800   2.723  22.182  0.00  0.00    +0.000 N 
ATOM     21  C   UNL     1       2.315   3.364  21.071  0.00  0.00    +0.000 A 
ATOM     22  N   UNL     1       3.039   2.614  20.228  0.00  0.00    +0.000 NA
ATOM     23  C   UNL     1       3.591   3.184  19.135  0.00  0.00    +0.000 A 
ATOM     24  N   UNL     1       4.325   2.334  18.316  0.00  0.00    +0.000 N 
ATOM     25  C   UNL     1       3.393   4.557  18.911  0.00  0.00    +0.000 A 
ATOM     26  C   UNL     1       3.791   5.562  17.963  0.00  0.00    +0.000 A 
ATOM     27  C   UNL     1       3.175   6.745  18.349  0.00  0.00    +0.000 A 
ATOM     28  N   UNL     1       2.444   6.501  19.478  0.00  0.00    +0.000 N 
ATOM     29  C   UNL     1       2.583   5.193  19.841  0.00  0.00    +0.000 A 
ATOM     30  N   UNL     1       2.014   4.655  20.926  0.00  0.00    +0.000 NA
ATOM     31  H   UNL     1       1.737   1.733  21.995  0.00  0.00    +0.000 HD
ATOM     32  H   UNL     1       0.959   3.196  22.483  0.00  0.00    +0.000 HD
ATOM     33  H   UNL     1       4.494   1.462  18.808  0.00  0.00    +0.000 HD
ATOM     34  H   UNL     1       5.137   2.753  17.891  0.00  0.00    +0.000 HD
ATOM     35  H   UNL     1       1.894   7.171  19.995  0.00  0.00    +0.000 HD
ENDBRANCH  19  26
ENDBRANCH   1  19
TORSDOF 6
ENDMDL
MODEL 8
REMARK VINA RESULT:      -8.6      7.001     10.165
REMARK  Name = 
REMARK  6 active torsions:
REMARK  status: ('A' for Active; 'I' for Inactive)
REMARK    1  A    between atoms: C_7  and  C_8
REMARK    2  A    between atoms: C_8  and  C_9
REMARK    3  A    between atoms: C_9  and  C_10
REMARK    4  A    between atoms: C_13  and  C_14
REMARK    5  A    between atoms: N_16  and  C_17
REMARK    6  A    between atoms: C_17  and  C_18
REMARK                            x       y       z     vdW  Elec       q    Type
REMARK                         _______ _______ _______ _____ _____    ______ ____
ROOT
ATOM      1  C   UNL     1       9.317   9.648  18.895  0.00  0.00    +0.000 C 
ENDROOT
BRANCH   1   2
ATOM      2  C   UNL     1       8.462   8.448  18.529  0.00  0.00    +0.000 A 
ATOM      3  C   UNL     1       8.551   7.215  19.189  0.00  0.00    +0.000 A 
ATOM      4  C   UNL     1       7.744   6.142  18.811  0.00  0.00    +0.000 A 
ATOM      5  C   UNL     1       6.836   6.279  17.757  0.00  0.00    +0.000 A 
ATOM      6  C   UNL     1       6.721   7.507  17.101  0.00  0.00    +0.000 A 
ATOM      7  C   UNL     1       7.534   8.581  17.482  0.00  0.00    +0.000 A 
BRANCH   5   8
ATOM      8  C   UNL     1       5.962   5.146  17.358  0.00  0.00    +0.000 C 
ATOM      9  O   UNL     1       6.395   4.251  16.642  0.00  0.00    +0.000 OA
ATOM     10  N   UNL     1       4.678   5.183  17.858  0.00  0.00    +0.000 N 
ATOM     11  H   UNL     1       4.468   5.815  18.618  0.00  0.00    +0.000 HD
BRANCH  10  12
ATOM     12  C   UNL     1       3.694   4.172  17.542  0.00  0.00    +0.000 C 
BRANCH  12  13
ATOM     13  C   UNL     1       2.913   3.748  18.751  0.00  0.00    +0.000 A 
ATOM     14  C   UNL     1       1.572   4.105  18.918  0.00  0.00    +0.000 A 
ATOM     15  C   UNL     1       0.885   3.704  20.060  0.00  0.00    +0.000 A 
ATOM     16  C   UNL     1       1.567   2.961  21.007  0.00  0.00    +0.000 A 
ATOM     17  N   UNL     1       2.863   2.601  20.887  0.00  0.00    +0.000 NA
ATOM     18  C   UNL     1       3.504   3.005  19.766  0.00  0.00    +0.000 A 
ENDBRANCH  12  13
ENDBRANCH  10  12
ENDBRANCH   5   8
ENDBRANCH   1   2
BRANCH   1  19
ATOM     19  C   UNL     1       8.807  11.010  18.409  0.00  0.00    +0.000 C 
BRANCH  19  26
ATOM     20  N   UNL     1      11.089  17.151  16.987  0.00  0.00    +0.000 N 
ATOM     21  C   UNL     1      10.701  15.844  17.209  0.00  0.00    +0.000 A 
ATOM     22  N   UNL     1       9.421  15.648  17.555  0.00  0.00    +0.000 NA
ATOM     23  C   UNL     1       8.982  14.396  17.809  0.00  0.00    +0.000 A 
ATOM     24  N   UNL     1       7.642  14.285  18.161  0.00  0.00    +0.000 N 
ATOM     25  C   UNL     1       9.886  13.326  17.706  0.00  0.00    +0.000 A 
ATOM     26  C   UNL     1       9.897  11.902  17.907  0.00  0.00    +0.000 A 
ATOM     27  C   UNL     1      11.169  11.459  17.573  0.00  0.00    +0.000 A 
ATOM     28  N   UNL     1      11.916  12.540  17.196  0.00  0.00    +0.000 N 
ATOM     29  C   UNL     1      11.163  13.673  17.292  0.00  0.00    +0.000 A 
ATOM     30  N   UNL     1      11.625  14.900  17.023  0.00  0.00    +0.000 NA
ATOM     31  H   UNL     1      10.276  17.706  16.761  0.00  0.00    +0.000 HD
ATOM     32  H   UNL     1      11.861  17.167  16.335  0.00  0.00    +0.000 HD
ATOM     33  H   UNL     1       7.276  15.208  18.374  0.00  0.00    +0.000 HD
ATOM     34  H   UNL     1       7.442  13.574  18.847  0.00  0.00    +0.000 HD
ATOM     35  H   UNL     1      12.883  12.530  16.907  0.00  0.00    +0.000 HD
ENDBRANCH  19  26
ENDBRANCH   1  19
TORSDOF 6
ENDMDL
MODEL 9
REMARK VINA RESULT:      -8.6      7.458     10.129
REMARK  Name = 
REMARK  6 active torsions:
REMARK  status: ('A' for Active; 'I' for Inactive)
REMARK    1  A    between atoms: C_7  and  C_8
REMARK    2  A    between atoms: C_8  and  C_9
REMARK    3  A    between atoms: C_9  and  C_10
REMARK    4  A    between atoms: C_13  and  C_14
REMARK    5  A    between atoms: N_16  and  C_17
REMARK    6  A    between atoms: C_17  and  C_18
REMARK                            x       y       z     vdW  Elec       q    Type
REMARK                         _______ _______ _______ _____ _____    ______ ____
ROOT
ATOM      1  C   UNL     1       9.127   9.146  18.594  0.00  0.00    +0.000 C 
ENDROOT
BRANCH   1   2
ATOM      2  C   UNL     1       8.130   8.034  18.325  0.00  0.00    +0.000 A 
ATOM      3  C   UNL     1       7.105   8.138  17.374  0.00  0.00    +0.000 A 
ATOM      4  C   UNL     1       6.212   7.087  17.168  0.00  0.00    +0.000 A 
ATOM      5  C   UNL     1       6.322   5.911  17.915  0.00  0.00    +0.000 A 
ATOM      6  C   UNL     1       7.350   5.782  18.852  0.00  0.00    +0.000 A 
ATOM      7  C   UNL     1       8.242   6.841  19.059  0.00  0.00    +0.000 A 
BRANCH   5   8
ATOM      8  C   UNL     1       5.384   4.780  17.691  0.00  0.00    +0.000 C 
ATOM      9  O   UNL     1       4.702   4.733  16.675  0.00  0.00    +0.000 OA
ATOM     10  N   UNL     1       5.366   3.820  18.679  0.00  0.00    +0.000 N 
ATOM     11  H   UNL     1       6.113   3.805  19.360  0.00  0.00    +0.000 HD
BRANCH  10  12
ATOM     12  C   UNL     1       4.490   2.671  18.628  0.00  0.00    +0.000 C 
BRANCH  12  13
ATOM     13  C   UNL     1       3.359   2.781  19.606  0.00  0.00    +0.000 A 
ATOM     14  C   UNL     1       2.087   3.204  19.210  0.00  0.00    +0.000 A 
ATOM     15  C   UNL     1       1.066   3.307  20.150  0.00  0.00    +0.000 A 
ATOM     16  C   UNL     1       1.353   2.988  21.465  0.00  0.00    +0.000 A 
ATOM     17  N   UNL     1       2.568   2.581  21.891  0.00  0.00    +0.000 NA
ATOM     18  C   UNL     1       3.540   2.490  20.954  0.00  0.00    +0.000 A 
ENDBRANCH  12  13
ENDBRANCH  10  12
ENDBRANCH   5   8
ENDBRANCH   1   2
BRANCH   1  19
ATOM     19  C   UNL     1       8.672  10.562  18.221  0.00  0.00    +0.000 C 
BRANCH  19  26
ATOM     20  N   UNL     1      11.045  16.794  17.532  0.00  0.00    +0.000 N 
ATOM     21  C   UNL     1      10.647  15.473  17.612  0.00  0.00    +0.000 A 
ATOM     22  N   UNL     1       9.334  15.249  17.765  0.00  0.00    +0.000 NA
ATOM     23  C   UNL     1       8.882  13.981  17.873  0.00  0.00    +0.000 A 
ATOM     24  N   UNL     1       7.508  13.841  18.028  0.00  0.00    +0.000 N 
ATOM     25  C   UNL     1       9.806  12.924  17.827  0.00  0.00    +0.000 A 
ATOM     26  C   UNL     1       9.809  11.490  17.934  0.00  0.00    +0.000 A 
ATOM     27  C   UNL     1      11.120  11.075  17.751  0.00  0.00    +0.000 A 
ATOM     28  N   UNL     1      11.898  12.182  17.553  0.00  0.00    +0.000 N 
ATOM     29  C   UNL     1      11.124  13.304  17.617  0.00  0.00    +0.000 A 
ATOM     30  N   UNL     1      11.601  14.548  17.496  0.00  0.00    +0.000 NA
ATOM     31  H   UNL     1      10.264  17.359  17.232  0.00  0.00    +0.000 HD
ATOM     32  H   UNL     1      11.899  16.856  16.996  0.00  0.00    +0.000 HD
ATOM     33  H   UNL     1       7.104  14.746  18.248  0.00  0.00    +0.000 HD
ATOM     34  H   UNL     1       7.225  13.085  18.632  0.00  0.00    +0.000 HD
ATOM     35  H   UNL     1      12.895  12.196  17.400  0.00  0.00    +0.000 HD
ENDBRANCH  19  26
ENDBRANCH   1  19
TORSDOF 6
ENDMDL
