MODEL 1
REMARK VINA RESULT:      -7.9      0.000      0.000
REMARK  Name = 
REMARK  11 active torsions:
REMARK  status: ('A' for Active; 'I' for Inactive)
REMARK    1  A    between atoms: C_1  and  C_2
REMARK    2  A    between atoms: C_3  and  N_4
REMARK    3  A    between atoms: N_4  and  C_5
REMARK    4  A    between atoms: N_4  and  S_13
REMARK    5  A    between atoms: C_5  and  C_6
REMARK    6  A    between atoms: C_6  and  C_7
REMARK    7  A    between atoms: C_7  and  C_8
REMARK    8  A    between atoms: C_8  and  C_9
REMARK    9  A    between atoms: S_13  and  C_16
REMARK   10  A    between atoms: N_20  and  C_21
REMARK   11  A    between atoms: N_20  and  C_22
REMARK                            x       y       z     vdW  Elec       q    Type
REMARK                         _______ _______ _______ _____ _____    ______ ____
ROOT
ATOM      1  N   UNL     1       3.487   4.823  18.462  0.00  0.00    +0.000 N 
ENDROOT
BRANCH   1   4
ATOM      2  C   UNL     1       3.605   7.274  16.596  0.00  0.00    +0.000 C 
ATOM      3  C   UNL     1       2.946   7.197  17.937  0.00  0.00    +0.000 A 
ATOM      4  C   UNL     1       2.904   6.099  18.782  0.00  0.00    +0.000 A 
ATOM      5  S   UNL     1       2.042   6.408  20.212  0.00  0.00    +0.000 S 
ATOM      6  C   UNL     1       1.723   8.044  19.770  0.00  0.00    +0.000 A 
ATOM      7  C   UNL     1       1.025   9.016  20.516  0.00  0.00    +0.000 A 
ATOM      8  C   UNL     1       0.851  10.298  19.986  0.00  0.00    +0.000 A 
ATOM      9  C   UNL     1       1.356  10.614  18.734  0.00  0.00    +0.000 A 
ATOM     10  C   UNL     1       2.048   9.648  17.997  0.00  0.00    +0.000 A 
ATOM     11  C   UNL     1       2.252   8.338  18.513  0.00  0.00    +0.000 A 
ENDBRANCH   1   4
BRANCH   1  12
ATOM     12  S   UNL     1       5.166   4.646  18.766  0.00  0.00    +0.000 S 
ATOM     13  O   UNL     1       5.616   5.857  19.423  0.00  0.00    +0.000 OA
ATOM     14  O   UNL     1       5.384   3.359  19.401  0.00  0.00    +0.000 OA
BRANCH  12  15
ATOM     15  C   UNL     1       6.008   4.584  17.200  0.00  0.00    +0.000 A 
ATOM     16  C   UNL     1       6.892   5.584  16.826  0.00  0.00    +0.000 A 
ATOM     17  C   UNL     1       7.342   5.658  15.495  0.00  0.00    +0.000 A 
ATOM     18  C   UNL     1       6.920   4.737  14.531  0.00  0.00    +0.000 A 
ATOM     19  N   UNL     1       7.299   4.812  13.202  0.00  0.00    +0.000 N 
ATOM     20  C   UNL     1       6.837   3.791  12.266  0.00  0.00    +0.000 C 
ATOM     21  C   UNL     1       8.349   5.679  12.682  0.00  0.00    +0.000 C 
ATOM     22  N   UNL     1       6.050   3.770  14.916  0.00  0.00    +0.000 NA
ATOM     23  C   UNL     1       5.590   3.726  16.205  0.00  0.00    +0.000 A 
ENDBRANCH  12  15
ENDBRANCH   1  12
BRANCH   1  24
ATOM     24  C   UNL     1       2.707   3.571  18.287  0.00  0.00    +0.000 C 
BRANCH  24  25
ATOM     25  C   UNL     1       1.185   3.751  18.294  0.00  0.00    +0.000 C 
BRANCH  25  26
ATOM     26  C   UNL     1       0.535   3.072  19.514  0.00  0.00    +0.000 C 
BRANCH  26  27
ATOM     27  C   UNL     1       1.529   2.156  20.235  0.00  0.00    +0.000 C 
BRANCH  27  28
ATOM     28  C   UNL     1       1.871   2.603  21.648  0.00  0.00    +0.000 C 
ATOM     29  F   UNL     1       3.065   2.136  22.068  0.00  0.00    +0.000 F 
ATOM     30  F   UNL     1       1.908   3.951  21.726  0.00  0.00    +0.000 F 
ATOM     31  F   UNL     1       0.933   2.175  22.524  0.00  0.00    +0.000 F 
ENDBRANCH  27  28
ENDBRANCH  26  27
ENDBRANCH  25  26
ENDBRANCH  24  25
ENDBRANCH   1  24
TORSDOF 8
ENDMDL
MODEL 2
REMARK VINA RESULT:      -7.8      4.574      6.688
REMARK  Name = 
REMARK  11 active torsions:
REMARK  status: ('A' for Active; 'I' for Inactive)
REMARK    1  A    between atoms: C_1  and  C_2
REMARK    2  A    between atoms: C_3  and  N_4
REMARK    3  A    between atoms: N_4  and  C_5
REMARK    4  A    between atoms: N_4  and  S_13
REMARK    5  A    between atoms: C_5  and  C_6
REMARK    6  A    between atoms: C_6  and  C_7
REMARK    7  A    between atoms: C_7  and  C_8
REMARK    8  A    between atoms: C_8  and  C_9
REMARK    9  A    between atoms: S_13  and  C_16
REMARK   10  A    between atoms: N_20  and  C_21
REMARK   11  A    between atoms: N_20  and  C_22
REMARK                            x       y       z     vdW  Elec       q    Type
REMARK                         _______ _______ _______ _____ _____    ______ ____
ROOT
ATOM      1  N   UNL     1       5.487   5.115  16.836  0.00  0.00    +0.000 N 
ENDROOT
BRANCH   1   4
ATOM      2  C   UNL     1       3.535   6.733  18.588  0.00  0.00    +0.000 C 
ATOM      3  C   UNL     1       3.523   5.254  18.362  0.00  0.00    +0.000 A 
ATOM      4  C   UNL     1       4.409   4.525  17.584  0.00  0.00    +0.000 A 
ATOM      5  S   UNL     1       4.049   2.865  17.568  0.00  0.00    +0.000 S 
ATOM      6  C   UNL     1       2.710   3.056  18.637  0.00  0.00    +0.000 A 
ATOM      7  C   UNL     1       1.862   2.048  19.141  0.00  0.00    +0.000 A 
ATOM      8  C   UNL     1       0.810   2.396  19.994  0.00  0.00    +0.000 A 
ATOM      9  C   UNL     1       0.595   3.721  20.339  0.00  0.00    +0.000 A 
ATOM     10  C   UNL     1       1.438   4.717  19.838  0.00  0.00    +0.000 A 
ATOM     11  C   UNL     1       2.525   4.395  18.978  0.00  0.00    +0.000 A 
ENDBRANCH   1   4
BRANCH   1  12
ATOM     12  S   UNL     1       7.029   5.127  17.588  0.00  0.00    +0.000 S 
ATOM     13  O   UNL     1       6.899   4.431  18.852  0.00  0.00    +0.000 OA
ATOM     14  O   UNL     1       8.015   4.684  16.620  0.00  0.00    +0.000 OA
BRANCH  12  15
ATOM     15  C   UNL     1       7.436   6.813  17.986  0.00  0.00    +0.000 A 
ATOM     16  C   UNL     1       7.048   7.855  17.156  0.00  0.00    +0.000 A 
ATOM     17  C   UNL     1       7.596   9.138  17.342  0.00  0.00    +0.000 A 
ATOM     18  C   UNL     1       8.527   9.392  18.354  0.00  0.00    +0.000 A 
ATOM     19  N   UNL     1       9.127  10.628  18.531  0.00  0.00    +0.000 N 
ATOM     20  C   UNL     1      10.066  10.817  19.633  0.00  0.00    +0.000 C 
ATOM     21  C   UNL     1       8.708  11.859  17.873  0.00  0.00    +0.000 C 
ATOM     22  N   UNL     1       8.898   8.358  19.151  0.00  0.00    +0.000 NA
ATOM     23  C   UNL     1       8.386   7.106  18.941  0.00  0.00    +0.000 A 
ENDBRANCH  12  15
ENDBRANCH   1  12
BRANCH   1  24
ATOM     24  C   UNL     1       5.463   5.328  15.367  0.00  0.00    +0.000 C 
BRANCH  24  25
ATOM     25  C   UNL     1       5.699   4.067  14.527  0.00  0.00    +0.000 C 
BRANCH  25  26
ATOM     26  C   UNL     1       6.449   4.383  13.220  0.00  0.00    +0.000 C 
BRANCH  26  27
ATOM     27  C   UNL     1       6.270   3.262  12.192  0.00  0.00    +0.000 C 
BRANCH  27  28
ATOM     28  C   UNL     1       4.858   3.146  11.638  0.00  0.00    +0.000 C 
ATOM     29  F   UNL     1       3.913   3.210  12.598  0.00  0.00    +0.000 F 
ATOM     30  F   UNL     1       4.611   4.138  10.753  0.00  0.00    +0.000 F 
ATOM     31  F   UNL     1       4.698   1.975  10.981  0.00  0.00    +0.000 F 
ENDBRANCH  27  28
ENDBRANCH  26  27
ENDBRANCH  25  26
ENDBRANCH  24  25
ENDBRANCH   1  24
TORSDOF 8
ENDMDL
MODEL 3
REMARK VINA RESULT:      -7.5      6.268     10.657
REMARK  Name = 
REMARK  11 active torsions:
REMARK  status: ('A' for Active; 'I' for Inactive)
REMARK    1  A    between atoms: C_1  and  C_2
REMARK    2  A    between atoms: C_3  and  N_4
REMARK    3  A    between atoms: N_4  and  C_5
REMARK    4  A    between atoms: N_4  and  S_13
REMARK    5  A    between atoms: C_5  and  C_6
REMARK    6  A    between atoms: C_6  and  C_7
REMARK    7  A    between atoms: C_7  and  C_8
REMARK    8  A    between atoms: C_8  and  C_9
REMARK    9  A    between atoms: S_13  and  C_16
REMARK   10  A    between atoms: N_20  and  C_21
REMARK   11  A    between atoms: N_20  and  C_22
REMARK                            x       y       z     vdW  Elec       q    Type
REMARK                         _______ _______ _______ _____ _____    ______ ____
ROOT
ATOM      1  N   UNL     1       0.023  11.230  19.324  0.00  0.00    +0.000 N 
ENDROOT
BRANCH   1   4
ATOM      2  C   UNL     1       0.042   8.835  21.263  0.00  0.00    +0.000 C 
ATOM      3  C   UNL     1       0.852   8.985  20.014  0.00  0.00    +0.000 A 
ATOM      4  C   UNL     1       0.853  10.068  19.149  0.00  0.00    +0.000 A 
ATOM      5  S   UNL     1       1.901   9.849  17.830  0.00  0.00    +0.000 S 
ATOM      6  C   UNL     1       2.425   8.305  18.391  0.00  0.00    +0.000 A 
ATOM      7  C   UNL     1       3.375   7.451  17.794  0.00  0.00    +0.000 A 
ATOM      8  C   UNL     1       3.665   6.219  18.390  0.00  0.00    +0.000 A 
ATOM      9  C   UNL     1       3.021   5.835  19.556  0.00  0.00    +0.000 A 
ATOM     10  C   UNL     1       2.080   6.685  20.145  0.00  0.00    +0.000 A 
ATOM     11  C   UNL     1       1.771   7.949  19.570  0.00  0.00    +0.000 A 
ENDBRANCH   1   4
BRANCH   1  12
ATOM     12  S   UNL     1       0.573  12.407  20.444  0.00  0.00    +0.000 S 
ATOM     13  O   UNL     1       1.653  11.809  21.204  0.00  0.00    +0.000 OA
ATOM     14  O   UNL     1       0.798  13.650  19.730  0.00  0.00    +0.000 OA
BRANCH  12  15
ATOM     15  C   UNL     1      -0.740  12.723  21.603  0.00  0.00    +0.000 A 
ATOM     16  C   UNL     1      -1.106  11.770  22.542  0.00  0.00    +0.000 A 
ATOM     17  C   UNL     1      -2.302  11.926  23.267  0.00  0.00    +0.000 A 
ATOM     18  C   UNL     1      -3.136  13.030  23.066  0.00  0.00    +0.000 A 
ATOM     19  N   UNL     1      -4.346  13.188  23.722  0.00  0.00    +0.000 N 
ATOM     20  C   UNL     1      -5.143  14.386  23.476  0.00  0.00    +0.000 C 
ATOM     21  C   UNL     1      -4.790  12.386  24.855  0.00  0.00    +0.000 C 
ATOM     22  N   UNL     1      -2.764  13.947  22.138  0.00  0.00    +0.000 NA
ATOM     23  C   UNL     1      -1.617  13.769  21.412  0.00  0.00    +0.000 A 
ENDBRANCH  12  15
ENDBRANCH   1  12
BRANCH   1  24
ATOM     24  C   UNL     1      -1.012  11.669  18.353  0.00  0.00    +0.000 C 
BRANCH  24  25
ATOM     25  C   UNL     1      -2.437  11.203  18.672  0.00  0.00    +0.000 C 
BRANCH  25  26
ATOM     26  C   UNL     1      -2.748   9.836  18.036  0.00  0.00    +0.000 C 
BRANCH  26  27
ATOM     27  C   UNL     1      -2.344   9.807  16.558  0.00  0.00    +0.000 C 
BRANCH  27  28
ATOM     28  C   UNL     1      -3.377  10.413  15.620  0.00  0.00    +0.000 C 
ATOM     29  F   UNL     1      -3.608   9.648  14.533  0.00  0.00    +0.000 F 
ATOM     30  F   UNL     1      -4.557  10.585  16.257  0.00  0.00    +0.000 F 
ATOM     31  F   UNL     1      -2.974  11.629  15.188  0.00  0.00    +0.000 F 
ENDBRANCH  27  28
ENDBRANCH  26  27
ENDBRANCH  25  26
ENDBRANCH  24  25
ENDBRANCH   1  24
TORSDOF 8
ENDMDL
MODEL 4
REMARK VINA RESULT:      -7.4      4.767      6.763
REMARK  Name = 
REMARK  11 active torsions:
REMARK  status: ('A' for Active; 'I' for Inactive)
REMARK    1  A    between atoms: C_1  and  C_2
REMARK    2  A    between atoms: C_3  and  N_4
REMARK    3  A    between atoms: N_4  and  C_5
REMARK    4  A    between atoms: N_4  and  S_13
REMARK    5  A    between atoms: C_5  and  C_6
REMARK    6  A    between atoms: C_6  and  C_7
REMARK    7  A    between atoms: C_7  and  C_8
REMARK    8  A    between atoms: C_8  and  C_9
REMARK    9  A    between atoms: S_13  and  C_16
REMARK   10  A    between atoms: N_20  and  C_21
REMARK   11  A    between atoms: N_20  and  C_22
REMARK                            x       y       z     vdW  Elec       q    Type
REMARK                         _______ _______ _______ _____ _____    ______ ____
ROOT
ATOM      1  N   UNL     1       5.573   5.853  17.499  0.00  0.00    +0.000 N 
ENDROOT
BRANCH   1   4
ATOM      2  C   UNL     1       3.068   7.034  18.850  0.00  0.00    +0.000 C 
ATOM      3  C   UNL     1       3.403   5.585  18.690  0.00  0.00    +0.000 A 
ATOM      4  C   UNL     1       4.536   5.054  18.094  0.00  0.00    +0.000 A 
ATOM      5  S   UNL     1       4.539   3.355  18.095  0.00  0.00    +0.000 S 
ATOM      6  C   UNL     1       3.034   3.266  18.932  0.00  0.00    +0.000 A 
ATOM      7  C   UNL     1       2.345   2.105  19.342  0.00  0.00    +0.000 A 
ATOM      8  C   UNL     1       1.120   2.228  20.003  0.00  0.00    +0.000 A 
ATOM      9  C   UNL     1       0.579   3.480  20.251  0.00  0.00    +0.000 A 
ATOM     10  C   UNL     1       1.265   4.629  19.845  0.00  0.00    +0.000 A 
ATOM     11  C   UNL     1       2.520   4.538  19.180  0.00  0.00    +0.000 A 
ENDBRANCH   1   4
BRANCH   1  12
ATOM     12  S   UNL     1       7.114   5.798  18.250  0.00  0.00    +0.000 S 
ATOM     13  O   UNL     1       6.899   5.529  19.658  0.00  0.00    +0.000 OA
ATOM     14  O   UNL     1       7.973   4.923  17.473  0.00  0.00    +0.000 OA
BRANCH  12  15
ATOM     15  C   UNL     1       7.833   7.423  18.156  0.00  0.00    +0.000 A 
ATOM     16  C   UNL     1       8.757   7.850  19.098  0.00  0.00    +0.000 A 
ATOM     17  C   UNL     1       9.112   9.211  19.162  0.00  0.00    +0.000 A 
ATOM     18  C   UNL     1       8.555  10.150  18.289  0.00  0.00    +0.000 A 
ATOM     19  N   UNL     1       8.840  11.504  18.360  0.00  0.00    +0.000 N 
ATOM     20  C   UNL     1       8.239  12.414  17.390  0.00  0.00    +0.000 C 
ATOM     21  C   UNL     1       9.909  12.090  19.160  0.00  0.00    +0.000 C 
ATOM     22  N   UNL     1       7.649   9.714  17.379  0.00  0.00    +0.000 NA
ATOM     23  C   UNL     1       7.283   8.395  17.347  0.00  0.00    +0.000 A 
ENDBRANCH  12  15
ENDBRANCH   1  12
BRANCH   1  24
ATOM     24  C   UNL     1       5.530   6.372  16.108  0.00  0.00    +0.000 C 
BRANCH  24  25
ATOM     25  C   UNL     1       5.228   5.320  15.034  0.00  0.00    +0.000 C 
BRANCH  25  26
ATOM     26  C   UNL     1       6.512   4.818  14.348  0.00  0.00    +0.000 C 
BRANCH  26  27
ATOM     27  C   UNL     1       6.296   3.446  13.703  0.00  0.00    +0.000 C 
BRANCH  27  28
ATOM     28  C   UNL     1       6.326   3.463  12.182  0.00  0.00    +0.000 C 
ATOM     29  F   UNL     1       6.797   2.314  11.656  0.00  0.00    +0.000 F 
ATOM     30  F   UNL     1       5.086   3.663  11.684  0.00  0.00    +0.000 F 
ATOM     31  F   UNL     1       7.106   4.471  11.732  0.00  0.00    +0.000 F 
ENDBRANCH  27  28
ENDBRANCH  26  27
ENDBRANCH  25  26
ENDBRANCH  24  25
ENDBRANCH   1  24
TORSDOF 8
ENDMDL
MODEL 5
REMARK VINA RESULT:      -7.4      1.752      2.566
REMARK  Name = 
REMARK  11 active torsions:
REMARK  status: ('A' for Active; 'I' for Inactive)
REMARK    1  A    between atoms: C_1  and  C_2
REMARK    2  A    between atoms: C_3  and  N_4
REMARK    3  A    between atoms: N_4  and  C_5
REMARK    4  A    between atoms: N_4  and  S_13
REMARK    5  A    between atoms: C_5  and  C_6
REMARK    6  A    between atoms: C_6  and  C_7
REMARK    7  A    between atoms: C_7  and  C_8
REMARK    8  A    between atoms: C_8  and  C_9
REMARK    9  A    between atoms: S_13  and  C_16
REMARK   10  A    between atoms: N_20  and  C_21
REMARK   11  A    between atoms: N_20  and  C_22
REMARK                            x       y       z     vdW  Elec       q    Type
REMARK                         _______ _______ _______ _____ _____    ______ ____
ROOT
ATOM      1  N   UNL     1       4.599   5.046  18.836  0.00  0.00    +0.000 N 
ENDROOT
BRANCH   1   4
ATOM      2  C   UNL     1       2.554   5.601  21.073  0.00  0.00    +0.000 C 
ATOM      3  C   UNL     1       2.777   6.416  19.838  0.00  0.00    +0.000 A 
ATOM      4  C   UNL     1       3.688   6.159  18.825  0.00  0.00    +0.000 A 
ATOM      5  S   UNL     1       3.647   7.332  17.598  0.00  0.00    +0.000 S 
ATOM      6  C   UNL     1       2.376   8.212  18.360  0.00  0.00    +0.000 A 
ATOM      7  C   UNL     1       1.742   9.383  17.896  0.00  0.00    +0.000 A 
ATOM      8  C   UNL     1       0.730   9.970  18.662  0.00  0.00    +0.000 A 
ATOM      9  C   UNL     1       0.353   9.410  19.873  0.00  0.00    +0.000 A 
ATOM     10  C   UNL     1       0.983   8.248  20.330  0.00  0.00    +0.000 A 
ATOM     11  C   UNL     1       2.008   7.620  19.568  0.00  0.00    +0.000 A 
ENDBRANCH   1   4
BRANCH   1  12
ATOM     12  S   UNL     1       6.143   5.308  18.134  0.00  0.00    +0.000 S 
ATOM     13  O   UNL     1       6.439   6.721  18.259  0.00  0.00    +0.000 OA
ATOM     14  O   UNL     1       7.066   4.328  18.677  0.00  0.00    +0.000 OA
BRANCH  12  15
ATOM     15  C   UNL     1       6.021   4.974  16.391  0.00  0.00    +0.000 A 
ATOM     16  C   UNL     1       5.066   4.098  15.897  0.00  0.00    +0.000 A 
ATOM     17  C   UNL     1       5.152   3.647  14.567  0.00  0.00    +0.000 A 
ATOM     18  C   UNL     1       6.181   4.068  13.720  0.00  0.00    +0.000 A 
ATOM     19  N   UNL     1       6.327   3.603  12.425  0.00  0.00    +0.000 N 
ATOM     20  C   UNL     1       7.414   4.118  11.597  0.00  0.00    +0.000 C 
ATOM     21  C   UNL     1       5.327   2.830  11.699  0.00  0.00    +0.000 C 
ATOM     22  N   UNL     1       7.109   4.921  14.224  0.00  0.00    +0.000 NA
ATOM     23  C   UNL     1       7.038   5.326  15.530  0.00  0.00    +0.000 A 
ENDBRANCH  12  15
ENDBRANCH   1  12
BRANCH   1  24
ATOM     24  C   UNL     1       4.469   3.871  19.735  0.00  0.00    +0.000 C 
BRANCH  24  25
ATOM     25  C   UNL     1       4.551   2.509  19.034  0.00  0.00    +0.000 C 
BRANCH  25  26
ATOM     26  C   UNL     1       3.197   2.096  18.427  0.00  0.00    +0.000 C 
BRANCH  26  27
ATOM     27  C   UNL     1       2.085   2.124  19.480  0.00  0.00    +0.000 C 
BRANCH  27  28
ATOM     28  C   UNL     1       0.874   2.955  19.082  0.00  0.00    +0.000 C 
ATOM     29  F   UNL     1       0.278   3.547  20.137  0.00  0.00    +0.000 F 
ATOM     30  F   UNL     1       1.228   3.927  18.213  0.00  0.00    +0.000 F 
ATOM     31  F   UNL     1      -0.051   2.183  18.467  0.00  0.00    +0.000 F 
ENDBRANCH  27  28
ENDBRANCH  26  27
ENDBRANCH  25  26
ENDBRANCH  24  25
ENDBRANCH   1  24
TORSDOF 8
ENDMDL
MODEL 6
REMARK VINA RESULT:      -7.2      4.828      6.871
REMARK  Name = 
REMARK  11 active torsions:
REMARK  status: ('A' for Active; 'I' for Inactive)
REMARK    1  A    between atoms: C_1  and  C_2
REMARK    2  A    between atoms: C_3  and  N_4
REMARK    3  A    between atoms: N_4  and  C_5
REMARK    4  A    between atoms: N_4  and  S_13
REMARK    5  A    between atoms: C_5  and  C_6
REMARK    6  A    between atoms: C_6  and  C_7
REMARK    7  A    between atoms: C_7  and  C_8
REMARK    8  A    between atoms: C_8  and  C_9
REMARK    9  A    between atoms: S_13  and  C_16
REMARK   10  A    between atoms: N_20  and  C_21
REMARK   11  A    between atoms: N_20  and  C_22
REMARK                            x       y       z     vdW  Elec       q    Type
REMARK                         _______ _______ _______ _____ _____    ______ ____
ROOT
ATOM      1  N   UNL     1       5.466   5.831  17.244  0.00  0.00    +0.000 N 
ENDROOT
BRANCH   1   4
ATOM      2  C   UNL     1       3.115   6.909  18.920  0.00  0.00    +0.000 C 
ATOM      3  C   UNL     1       3.394   5.478  18.580  0.00  0.00    +0.000 A 
ATOM      4  C   UNL     1       4.459   4.992  17.837  0.00  0.00    +0.000 A 
ATOM      5  S   UNL     1       4.413   3.304  17.658  0.00  0.00    +0.000 S 
ATOM      6  C   UNL     1       2.981   3.155  18.606  0.00  0.00    +0.000 A 
ATOM      7  C   UNL     1       2.295   1.970  18.948  0.00  0.00    +0.000 A 
ATOM      8  C   UNL     1       1.132   2.046  19.720  0.00  0.00    +0.000 A 
ATOM      9  C   UNL     1       0.650   3.274  20.144  0.00  0.00    +0.000 A 
ATOM     10  C   UNL     1       1.333   4.446  19.805  0.00  0.00    +0.000 A 
ATOM     11  C   UNL     1       2.525   4.403  19.030  0.00  0.00    +0.000 A 
ENDBRANCH   1   4
BRANCH   1  12
ATOM     12  S   UNL     1       7.022   5.793  17.964  0.00  0.00    +0.000 S 
ATOM     13  O   UNL     1       6.874   5.202  19.280  0.00  0.00    +0.000 OA
ATOM     14  O   UNL     1       7.954   5.213  17.015  0.00  0.00    +0.000 OA
BRANCH  12  15
ATOM     15  C   UNL     1       7.550   7.472  18.227  0.00  0.00    +0.000 A 
ATOM     16  C   UNL     1       7.125   8.493  17.390  0.00  0.00    +0.000 A 
ATOM     17  C   UNL     1       7.750   9.752  17.449  0.00  0.00    +0.000 A 
ATOM     18  C   UNL     1       8.796  10.004  18.342  0.00  0.00    +0.000 A 
ATOM     19  N   UNL     1       9.470  11.213  18.389  0.00  0.00    +0.000 N 
ATOM     20  C   UNL     1      10.531  11.403  19.373  0.00  0.00    +0.000 C 
ATOM     21  C   UNL     1       9.042  12.432  17.715  0.00  0.00    +0.000 C 
ATOM     22  N   UNL     1       9.202   8.990  19.148  0.00  0.00    +0.000 NA
ATOM     23  C   UNL     1       8.611   7.758  19.059  0.00  0.00    +0.000 A 
ENDBRANCH  12  15
ENDBRANCH   1  12
BRANCH   1  24
ATOM     24  C   UNL     1       5.385   6.384  15.867  0.00  0.00    +0.000 C 
BRANCH  24  25
ATOM     25  C   UNL     1       5.163   5.343  14.764  0.00  0.00    +0.000 C 
BRANCH  25  26
ATOM     26  C   UNL     1       6.493   4.773  14.240  0.00  0.00    +0.000 C 
BRANCH  26  27
ATOM     27  C   UNL     1       6.288   3.410  13.570  0.00  0.00    +0.000 C 
BRANCH  27  28
ATOM     28  C   UNL     1       6.415   3.438  12.054  0.00  0.00    +0.000 C 
ATOM     29  F   UNL     1       7.135   4.487  11.609  0.00  0.00    +0.000 F 
ATOM     30  F   UNL     1       7.012   2.311  11.606  0.00  0.00    +0.000 F 
ATOM     31  F   UNL     1       5.194   3.502  11.475  0.00  0.00    +0.000 F 
ENDBRANCH  27  28
ENDBRANCH  26  27
ENDBRANCH  25  26
ENDBRANCH  24  25
ENDBRANCH   1  24
TORSDOF 8
ENDMDL
MODEL 7
REMARK VINA RESULT:      -7.2      4.816      6.795
REMARK  Name = 
REMARK  11 active torsions:
REMARK  status: ('A' for Active; 'I' for Inactive)
REMARK    1  A    between atoms: C_1  and  C_2
REMARK    2  A    between atoms: C_3  and  N_4
REMARK    3  A    between atoms: N_4  and  C_5
REMARK    4  A    between atoms: N_4  and  S_13
REMARK    5  A    between atoms: C_5  and  C_6
REMARK    6  A    between atoms: C_6  and  C_7
REMARK    7  A    between atoms: C_7  and  C_8
REMARK    8  A    between atoms: C_8  and  C_9
REMARK    9  A    between atoms: S_13  and  C_16
REMARK   10  A    between atoms: N_20  and  C_21
REMARK   11  A    between atoms: N_20  and  C_22
REMARK                            x       y       z     vdW  Elec       q    Type
REMARK                         _______ _______ _______ _____ _____    ______ ____
ROOT
ATOM      1  N   UNL     1       5.448   5.926  17.401  0.00  0.00    +0.000 N 
ENDROOT
BRANCH   1   4
ATOM      2  C   UNL     1       4.787   2.925  17.165  0.00  0.00    +0.000 C 
ATOM      3  C   UNL     1       4.080   3.937  18.011  0.00  0.00    +0.000 A 
ATOM      4  C   UNL     1       4.369   5.289  18.107  0.00  0.00    +0.000 A 
ATOM      5  S   UNL     1       3.343   6.100  19.191  0.00  0.00    +0.000 S 
ATOM      6  C   UNL     1       2.444   4.672  19.545  0.00  0.00    +0.000 A 
ATOM      7  C   UNL     1       1.336   4.546  20.408  0.00  0.00    +0.000 A 
ATOM      8  C   UNL     1       0.738   3.294  20.584  0.00  0.00    +0.000 A 
ATOM      9  C   UNL     1       1.231   2.182  19.920  0.00  0.00    +0.000 A 
ATOM     10  C   UNL     1       2.329   2.311  19.064  0.00  0.00    +0.000 A 
ATOM     11  C   UNL     1       2.953   3.573  18.855  0.00  0.00    +0.000 A 
ENDBRANCH   1   4
BRANCH   1  12
ATOM     12  S   UNL     1       7.018   5.747  18.070  0.00  0.00    +0.000 S 
ATOM     13  O   UNL     1       6.854   5.373  19.461  0.00  0.00    +0.000 OA
ATOM     14  O   UNL     1       7.801   4.904  17.186  0.00  0.00    +0.000 OA
BRANCH  12  15
ATOM     15  C   UNL     1       7.803   7.344  18.070  0.00  0.00    +0.000 A 
ATOM     16  C   UNL     1       8.677   7.708  19.083  0.00  0.00    +0.000 A 
ATOM     17  C   UNL     1       9.079   9.051  19.211  0.00  0.00    +0.000 A 
ATOM     18  C   UNL     1       8.620  10.035  18.330  0.00  0.00    +0.000 A 
ATOM     19  N   UNL     1       8.952  11.373  18.459  0.00  0.00    +0.000 N 
ATOM     20  C   UNL     1       8.453  12.332  17.477  0.00  0.00    +0.000 C 
ATOM     21  C   UNL     1       9.985  11.895  19.344  0.00  0.00    +0.000 C 
ATOM     22  N   UNL     1       7.761   9.659  17.350  0.00  0.00    +0.000 NA
ATOM     23  C   UNL     1       7.347   8.357  17.255  0.00  0.00    +0.000 A 
ENDBRANCH  12  15
ENDBRANCH   1  12
BRANCH   1  24
ATOM     24  C   UNL     1       5.376   6.356  15.981  0.00  0.00    +0.000 C 
BRANCH  24  25
ATOM     25  C   UNL     1       5.155   5.221  14.973  0.00  0.00    +0.000 C 
BRANCH  25  26
ATOM     26  C   UNL     1       6.467   4.806  14.282  0.00  0.00    +0.000 C 
BRANCH  26  27
ATOM     27  C   UNL     1       6.318   3.456  13.574  0.00  0.00    +0.000 C 
BRANCH  27  28
ATOM     28  C   UNL     1       6.501   3.523  12.065  0.00  0.00    +0.000 C 
ATOM     29  F   UNL     1       7.231   4.586  11.674  0.00  0.00    +0.000 F 
ATOM     30  F   UNL     1       7.120   2.411  11.611  0.00  0.00    +0.000 F 
ATOM     31  F   UNL     1       5.302   3.597  11.443  0.00  0.00    +0.000 F 
ENDBRANCH  27  28
ENDBRANCH  26  27
ENDBRANCH  25  26
ENDBRANCH  24  25
ENDBRANCH   1  24
TORSDOF 8
ENDMDL
MODEL 8
REMARK VINA RESULT:      -7.2      1.003      1.951
REMARK  Name = 
REMARK  11 active torsions:
REMARK  status: ('A' for Active; 'I' for Inactive)
REMARK    1  A    between atoms: C_1  and  C_2
REMARK    2  A    between atoms: C_3  and  N_4
REMARK    3  A    between atoms: N_4  and  C_5
REMARK    4  A    between atoms: N_4  and  S_13
REMARK    5  A    between atoms: C_5  and  C_6
REMARK    6  A    between atoms: C_6  and  C_7
REMARK    7  A    between atoms: C_7  and  C_8
REMARK    8  A    between atoms: C_8  and  C_9
REMARK    9  A    between atoms: S_13  and  C_16
REMARK   10  A    between atoms: N_20  and  C_21
REMARK   11  A    between atoms: N_20  and  C_22
REMARK                            x       y       z     vdW  Elec       q    Type
REMARK                         _______ _______ _______ _____ _____    ______ ____
ROOT
ATOM      1  N   UNL     1       3.660   5.017  18.567  0.00  0.00    +0.000 N 
ENDROOT
BRANCH   1   4
ATOM      2  C   UNL     1       2.112   6.029  21.033  0.00  0.00    +0.000 C 
ATOM      3  C   UNL     1       2.357   6.774  19.759  0.00  0.00    +0.000 A 
ATOM      4  C   UNL     1       3.042   6.314  18.645  0.00  0.00    +0.000 A 
ATOM      5  S   UNL     1       3.118   7.469  17.402  0.00  0.00    +0.000 S 
ATOM      6  C   UNL     1       2.200   8.622  18.298  0.00  0.00    +0.000 A 
ATOM      7  C   UNL     1       1.804   9.912  17.888  0.00  0.00    +0.000 A 
ATOM      8  C   UNL     1       1.067  10.717  18.762  0.00  0.00    +0.000 A 
ATOM      9  C   UNL     1       0.731  10.256  20.025  0.00  0.00    +0.000 A 
ATOM     10  C   UNL     1       1.124   8.976  20.428  0.00  0.00    +0.000 A 
ATOM     11  C   UNL     1       1.865   8.128  19.558  0.00  0.00    +0.000 A 
ENDBRANCH   1   4
BRANCH   1  12
ATOM     12  S   UNL     1       5.373   4.984  18.490  0.00  0.00    +0.000 S 
ATOM     13  O   UNL     1       5.857   6.198  19.117  0.00  0.00    +0.000 OA
ATOM     14  O   UNL     1       5.829   3.693  18.974  0.00  0.00    +0.000 OA
BRANCH  12  15
ATOM     15  C   UNL     1       5.851   5.079  16.779  0.00  0.00    +0.000 A 
ATOM     16  C   UNL     1       5.330   4.198  15.843  0.00  0.00    +0.000 A 
ATOM     17  C   UNL     1       5.908   4.115  14.563  0.00  0.00    +0.000 A 
ATOM     18  C   UNL     1       7.002   4.910  14.205  0.00  0.00    +0.000 A 
ATOM     19  N   UNL     1       7.630   4.816  12.975  0.00  0.00    +0.000 N 
ATOM     20  C   UNL     1       8.747   5.705  12.671  0.00  0.00    +0.000 C 
ATOM     21  C   UNL     1       7.109   4.083  11.828  0.00  0.00    +0.000 C 
ATOM     22  N   UNL     1       7.501   5.760  15.137  0.00  0.00    +0.000 NA
ATOM     23  C   UNL     1       6.955   5.809  16.392  0.00  0.00    +0.000 A 
ENDBRANCH  12  15
ENDBRANCH   1  12
BRANCH   1  24
ATOM     24  C   UNL     1       2.987   3.750  18.951  0.00  0.00    +0.000 C 
BRANCH  24  25
ATOM     25  C   UNL     1       1.671   3.469  18.217  0.00  0.00    +0.000 C 
BRANCH  25  26
ATOM     26  C   UNL     1       0.729   2.581  19.051  0.00  0.00    +0.000 C 
BRANCH  26  27
ATOM     27  C   UNL     1       1.492   1.852  20.161  0.00  0.00    +0.000 C 
BRANCH  27  28
ATOM     28  C   UNL     1       1.487   2.577  21.499  0.00  0.00    +0.000 C 
ATOM     29  F   UNL     1       0.832   3.755  21.452  0.00  0.00    +0.000 F 
ATOM     30  F   UNL     1       0.898   1.818  22.450  0.00  0.00    +0.000 F 
ATOM     31  F   UNL     1       2.751   2.826  21.910  0.00  0.00    +0.000 F 
ENDBRANCH  27  28
ENDBRANCH  26  27
ENDBRANCH  25  26
ENDBRANCH  24  25
ENDBRANCH   1  24
TORSDOF 8
ENDMDL
MODEL 9
REMARK VINA RESULT:      -7.0      4.014      7.579
REMARK  Name = 
REMARK  11 active torsions:
REMARK  status: ('A' for Active; 'I' for Inactive)
REMARK    1  A    between atoms: C_1  and  C_2
REMARK    2  A    between atoms: C_3  and  N_4
REMARK    3  A    between atoms: N_4  and  C_5
REMARK    4  A    between atoms: N_4  and  S_13
REMARK    5  A    between atoms: C_5  and  C_6
REMARK    6  A    between atoms: C_6  and  C_7
REMARK    7  A    between atoms: C_7  and  C_8
REMARK    8  A    between atoms: C_8  and  C_9
REMARK    9  A    between atoms: S_13  and  C_16
REMARK   10  A    between atoms: N_20  and  C_21
REMARK   11  A    between atoms: N_20  and  C_22
REMARK                            x       y       z     vdW  Elec       q    Type
REMARK                         _______ _______ _______ _____ _____    ______ ____
ROOT
ATOM      1  N   UNL     1       4.305   5.092  16.761  0.00  0.00    +0.000 N 
ENDROOT
BRANCH   1   4
ATOM      2  C   UNL     1       5.546   4.056  19.385  0.00  0.00    +0.000 C 
ATOM      3  C   UNL     1       4.100   4.022  19.001  0.00  0.00    +0.000 A 
ATOM      4  C   UNL     1       3.544   4.476  17.815  0.00  0.00    +0.000 A 
ATOM      5  S   UNL     1       1.858   4.275  17.766  0.00  0.00    +0.000 S 
ATOM      6  C   UNL     1       1.813   3.534  19.322  0.00  0.00    +0.000 A 
ATOM      7  C   UNL     1       0.684   3.037  20.005  0.00  0.00    +0.000 A 
ATOM      8  C   UNL     1       0.839   2.477  21.277  0.00  0.00    +0.000 A 
ATOM      9  C   UNL     1       2.092   2.413  21.867  0.00  0.00    +0.000 A 
ATOM     10  C   UNL     1       3.209   2.906  21.186  0.00  0.00    +0.000 A 
ATOM     11  C   UNL     1       3.087   3.472  19.886  0.00  0.00    +0.000 A 
ENDBRANCH   1   4
BRANCH   1  12
ATOM     12  S   UNL     1       4.592   6.777  16.901  0.00  0.00    +0.000 S 
ATOM     13  O   UNL     1       5.754   6.948  17.750  0.00  0.00    +0.000 OA
ATOM     14  O   UNL     1       4.581   7.357  15.570  0.00  0.00    +0.000 OA
BRANCH  12  15
ATOM     15  C   UNL     1       3.222   7.500  17.777  0.00  0.00    +0.000 A 
ATOM     16  C   UNL     1       2.563   8.613  17.277  0.00  0.00    +0.000 A 
ATOM     17  C   UNL     1       1.667   9.322  18.098  0.00  0.00    +0.000 A 
ATOM     18  C   UNL     1       1.418   8.927  19.416  0.00  0.00    +0.000 A 
ATOM     19  N   UNL     1       0.585   9.632  20.268  0.00  0.00    +0.000 N 
ATOM     20  C   UNL     1       0.355   9.133  21.620  0.00  0.00    +0.000 C 
ATOM     21  C   UNL     1      -0.312  10.705  19.857  0.00  0.00    +0.000 C 
ATOM     22  N   UNL     1       2.077   7.839  19.888  0.00  0.00    +0.000 NA
ATOM     23  C   UNL     1       2.974   7.176  19.094  0.00  0.00    +0.000 A 
ENDBRANCH  12  15
ENDBRANCH   1  12
BRANCH   1  24
ATOM     24  C   UNL     1       5.178   4.345  15.818  0.00  0.00    +0.000 C 
BRANCH  24  25
ATOM     25  C   UNL     1       6.555   4.975  15.576  0.00  0.00    +0.000 C 
BRANCH  25  26
ATOM     26  C   UNL     1       7.018   4.794  14.119  0.00  0.00    +0.000 C 
BRANCH  26  27
ATOM     27  C   UNL     1       6.387   3.549  13.487  0.00  0.00    +0.000 C 
BRANCH  27  28
ATOM     28  C   UNL     1       6.474   3.513  11.968  0.00  0.00    +0.000 C 
ATOM     29  F   UNL     1       7.266   4.481  11.467  0.00  0.00    +0.000 F 
ATOM     30  F   UNL     1       6.962   2.325  11.547  0.00  0.00    +0.000 F 
ATOM     31  F   UNL     1       5.247   3.661  11.418  0.00  0.00    +0.000 F 
ENDBRANCH  27  28
ENDBRANCH  26  27
ENDBRANCH  25  26
ENDBRANCH  24  25
ENDBRANCH   1  24
TORSDOF 8
ENDMDL
