MODEL 1
REMARK VINA RESULT:      -8.7      0.000      0.000
REMARK  Name = 
REMARK  4 active torsions:
REMARK  status: ('A' for Active; 'I' for Inactive)
REMARK    1  A    between atoms: N_8  and  C_9
REMARK    2  A    between atoms: C_9  and  C_10
REMARK    3  A    between atoms: C_14  and  O_15
REMARK    4  A    between atoms: O_15  and  C_16
REMARK                            x       y       z     vdW  Elec       q    Type
REMARK                         _______ _______ _______ _____ _____    ______ ____
ROOT
ATOM      1  C   UNL     1       3.862   2.575  17.708  0.00  0.00    +0.000 C 
ENDROOT
BRANCH   1   9
ATOM      2  O   UNL     1       8.529   8.837  17.761  0.00  0.00    +0.000 OA
ATOM      3  C   UNL     1       7.864   7.824  17.967  0.00  0.00    +0.000 C 
ATOM      4  C   UNL     1       6.615   7.507  17.182  0.00  0.00    +0.000 C 
ATOM      5  C   UNL     1       6.789   6.225  16.378  0.00  0.00    +0.000 C 
ATOM      6  N   UNL     1       6.538   5.012  17.164  0.00  0.00    +0.000 N 
ATOM      7  C   UNL     1       5.276   4.440  17.083  0.00  0.00    +0.000 C 
ATOM      8  O   UNL     1       4.361   4.924  16.422  0.00  0.00    +0.000 OA
ATOM      9  N   UNL     1       5.118   3.280  17.797  0.00  0.00    +0.000 N 
ATOM     10  C   UNL     1       7.538   4.688  18.193  0.00  0.00    +0.000 C 
ATOM     11  C   UNL     1       7.579   5.726  19.320  0.00  0.00    +0.000 C 
ATOM     12  N   UNL     1       8.258   6.948  18.933  0.00  0.00    +0.000 N 
ATOM     13  H   UNL     1       5.926   2.679  17.801  0.00  0.00    +0.000 HD
ATOM     14  H   UNL     1       9.094   7.232  19.434  0.00  0.00    +0.000 HD
ENDBRANCH   1   9
BRANCH   1  15
ATOM     15  C   UNL     1       2.858   3.111  18.692  0.00  0.00    +0.000 A 
ATOM     16  C   UNL     1       1.676   2.414  18.978  0.00  0.00    +0.000 A 
ATOM     17  C   UNL     1       0.723   2.961  19.840  0.00  0.00    +0.000 A 
ATOM     18  C   UNL     1       0.933   4.220  20.405  0.00  0.00    +0.000 A 
ATOM     19  C   UNL     1       2.102   4.921  20.126  0.00  0.00    +0.000 A 
ATOM     20  C   UNL     1       3.090   4.339  19.326  0.00  0.00    +0.000 A 
BRANCH  19  21
ATOM     21  O   UNL     1       2.224   6.171  20.700  0.00  0.00    +0.000 OA
BRANCH  21  22
ATOM     22  C   UNL     1       1.987   7.290  19.929  0.00  0.00    +0.000 A 
ATOM     23  C   UNL     1       2.413   7.437  18.604  0.00  0.00    +0.000 A 
ATOM     24  C   UNL     1       2.180   8.630  17.921  0.00  0.00    +0.000 A 
ATOM     25  C   UNL     1       1.465   9.656  18.537  0.00  0.00    +0.000 A 
ATOM     26  C   UNL     1       0.976   9.485  19.831  0.00  0.00    +0.000 A 
ATOM     27  C   UNL     1       1.237   8.303  20.527  0.00  0.00    +0.000 A 
ENDBRANCH  21  22
ENDBRANCH  19  21
ENDBRANCH   1  15
TORSDOF 4
ENDMDL
MODEL 2
REMARK VINA RESULT:      -8.6      0.296      1.010
REMARK  Name = 
REMARK  4 active torsions:
REMARK  status: ('A' for Active; 'I' for Inactive)
REMARK    1  A    between atoms: N_8  and  C_9
REMARK    2  A    between atoms: C_9  and  C_10
REMARK    3  A    between atoms: C_14  and  O_15
REMARK    4  A    between atoms: O_15  and  C_16
REMARK                            x       y       z     vdW  Elec       q    Type
REMARK                         _______ _______ _______ _____ _____    ______ ____
ROOT
ATOM      1  C   UNL     1       3.901   2.651  17.369  0.00  0.00    +0.000 C 
ENDROOT
BRANCH   1   9
ATOM      2  O   UNL     1       8.629   8.844  17.919  0.00  0.00    +0.000 OA
ATOM      3  C   UNL     1       7.943   7.832  18.049  0.00  0.00    +0.000 C 
ATOM      4  C   UNL     1       6.733   7.564  17.189  0.00  0.00    +0.000 C 
ATOM      5  C   UNL     1       6.933   6.314  16.342  0.00  0.00    +0.000 C 
ATOM      6  N   UNL     1       6.629   5.073  17.063  0.00  0.00    +0.000 N 
ATOM      7  C   UNL     1       5.367   4.522  16.896  0.00  0.00    +0.000 C 
ATOM      8  O   UNL     1       4.492   5.045  16.209  0.00  0.00    +0.000 OA
ATOM      9  N   UNL     1       5.159   3.336  17.551  0.00  0.00    +0.000 N 
ATOM     10  C   UNL     1       7.571   4.693  18.128  0.00  0.00    +0.000 C 
ATOM     11  C   UNL     1       7.565   5.684  19.298  0.00  0.00    +0.000 C 
ATOM     12  N   UNL     1       8.278   6.912  18.997  0.00  0.00    +0.000 N 
ATOM     13  H   UNL     1       5.958   2.725  17.572  0.00  0.00    +0.000 HD
ATOM     14  H   UNL     1       9.089   7.164  19.551  0.00  0.00    +0.000 HD
ENDBRANCH   1   9
BRANCH   1  15
ATOM     15  C   UNL     1       2.895   3.062  18.410  0.00  0.00    +0.000 A 
ATOM     16  C   UNL     1       1.703   2.347  18.591  0.00  0.00    +0.000 A 
ATOM     17  C   UNL     1       0.749   2.784  19.513  0.00  0.00    +0.000 A 
ATOM     18  C   UNL     1       0.968   3.953  20.245  0.00  0.00    +0.000 A 
ATOM     19  C   UNL     1       2.147   4.670  20.071  0.00  0.00    +0.000 A 
ATOM     20  C   UNL     1       3.136   4.190  19.207  0.00  0.00    +0.000 A 
BRANCH  19  21
ATOM     21  O   UNL     1       2.278   5.829  20.810  0.00  0.00    +0.000 OA
BRANCH  21  22
ATOM     22  C   UNL     1       1.956   7.037  20.228  0.00  0.00    +0.000 A 
ATOM     23  C   UNL     1       1.279   8.071  20.883  0.00  0.00    +0.000 A 
ATOM     24  C   UNL     1       0.943   9.237  20.194  0.00  0.00    +0.000 A 
ATOM     25  C   UNL     1       1.339   9.399  18.868  0.00  0.00    +0.000 A 
ATOM     26  C   UNL     1       2.078   8.402  18.234  0.00  0.00    +0.000 A 
ATOM     27  C   UNL     1       2.386   7.220  18.913  0.00  0.00    +0.000 A 
ENDBRANCH  21  22
ENDBRANCH  19  21
ENDBRANCH   1  15
TORSDOF 4
ENDMDL
MODEL 3
REMARK VINA RESULT:      -8.2      3.961      6.804
REMARK  Name = 
REMARK  4 active torsions:
REMARK  status: ('A' for Active; 'I' for Inactive)
REMARK    1  A    between atoms: N_8  and  C_9
REMARK    2  A    between atoms: C_9  and  C_10
REMARK    3  A    between atoms: C_14  and  O_15
REMARK    4  A    between atoms: O_15  and  C_16
REMARK                            x       y       z     vdW  Elec       q    Type
REMARK                         _______ _______ _______ _____ _____    ______ ____
ROOT
ATOM      1  C   UNL     1       8.315   9.149  17.675  0.00  0.00    +0.000 C 
ENDROOT
BRANCH   1   9
ATOM      2  O   UNL     1      10.584  15.156  22.122  0.00  0.00    +0.000 OA
ATOM      3  C   UNL     1      10.043  14.209  21.554  0.00  0.00    +0.000 C 
ATOM      4  C   UNL     1      10.353  13.843  20.124  0.00  0.00    +0.000 C 
ATOM      5  C   UNL     1      10.982  12.458  20.040  0.00  0.00    +0.000 C 
ATOM      6  N   UNL     1       9.994  11.374  20.048  0.00  0.00    +0.000 N 
ATOM      7  C   UNL     1       9.601  10.851  18.824  0.00  0.00    +0.000 C 
ATOM      8  O   UNL     1      10.010  11.280  17.748  0.00  0.00    +0.000 OA
ATOM      9  N   UNL     1       8.717   9.805  18.896  0.00  0.00    +0.000 N 
ATOM     10  C   UNL     1       9.288  11.148  21.318  0.00  0.00    +0.000 C 
ATOM     11  C   UNL     1       8.386  12.326  21.706  0.00  0.00    +0.000 C 
ATOM     12  N   UNL     1       9.131  13.454  22.230  0.00  0.00    +0.000 N 
ATOM     13  H   UNL     1       8.876   9.177  19.666  0.00  0.00    +0.000 HD
ATOM     14  H   UNL     1       8.957  13.767  23.180  0.00  0.00    +0.000 HD
ENDBRANCH   1   9
BRANCH   1  15
ATOM     15  C   UNL     1       7.777   7.769  17.943  0.00  0.00    +0.000 A 
ATOM     16  C   UNL     1       8.309   6.967  18.963  0.00  0.00    +0.000 A 
ATOM     17  C   UNL     1       7.847   5.663  19.151  0.00  0.00    +0.000 A 
ATOM     18  C   UNL     1       6.865   5.141  18.307  0.00  0.00    +0.000 A 
ATOM     19  C   UNL     1       6.331   5.928  17.291  0.00  0.00    +0.000 A 
ATOM     20  C   UNL     1       6.738   7.259  17.153  0.00  0.00    +0.000 A 
BRANCH  19  21
ATOM     21  O   UNL     1       5.385   5.333  16.482  0.00  0.00    +0.000 OA
BRANCH  21  22
ATOM     22  C   UNL     1       4.196   4.909  17.039  0.00  0.00    +0.000 A 
ATOM     23  C   UNL     1       3.777   3.575  17.078  0.00  0.00    +0.000 A 
ATOM     24  C   UNL     1       2.530   3.247  17.609  0.00  0.00    +0.000 A 
ATOM     25  C   UNL     1       1.725   4.242  18.160  0.00  0.00    +0.000 A 
ATOM     26  C   UNL     1       2.171   5.562  18.190  0.00  0.00    +0.000 A 
ATOM     27  C   UNL     1       3.406   5.896  17.628  0.00  0.00    +0.000 A 
ENDBRANCH  21  22
ENDBRANCH  19  21
ENDBRANCH   1  15
TORSDOF 4
ENDMDL
MODEL 4
REMARK VINA RESULT:      -8.1      3.398      6.267
REMARK  Name = 
REMARK  4 active torsions:
REMARK  status: ('A' for Active; 'I' for Inactive)
REMARK    1  A    between atoms: N_8  and  C_9
REMARK    2  A    between atoms: C_9  and  C_10
REMARK    3  A    between atoms: C_14  and  O_15
REMARK    4  A    between atoms: O_15  and  C_16
REMARK                            x       y       z     vdW  Elec       q    Type
REMARK                         _______ _______ _______ _____ _____    ______ ____
ROOT
ATOM      1  C   UNL     1       1.700   6.568  21.072  0.00  0.00    +0.000 C 
ENDROOT
BRANCH   1   9
ATOM      2  O   UNL     1       1.356  13.989  18.660  0.00  0.00    +0.000 OA
ATOM      3  C   UNL     1       1.560  12.794  18.871  0.00  0.00    +0.000 C 
ATOM      4  C   UNL     1       1.331  12.165  20.222  0.00  0.00    +0.000 C 
ATOM      5  C   UNL     1       0.231  11.113  20.153  0.00  0.00    +0.000 C 
ATOM      6  N   UNL     1       0.709   9.808  19.686  0.00  0.00    +0.000 N 
ATOM      7  C   UNL     1       1.032   8.857  20.644  0.00  0.00    +0.000 C 
ATOM      8  O   UNL     1       0.973   9.075  21.851  0.00  0.00    +0.000 OA
ATOM      9  N   UNL     1       1.421   7.640  20.147  0.00  0.00    +0.000 N 
ATOM     10  C   UNL     1       1.092   9.727  18.268  0.00  0.00    +0.000 C 
ATOM     11  C   UNL     1       2.318  10.587  17.940  0.00  0.00    +0.000 C 
ATOM     12  N   UNL     1       2.005  12.001  17.856  0.00  0.00    +0.000 N 
ATOM     13  H   UNL     1       0.927   7.350  19.320  0.00  0.00    +0.000 HD
ATOM     14  H   UNL     1       2.155  12.492  16.981  0.00  0.00    +0.000 HD
ENDBRANCH   1   9
BRANCH   1  15
ATOM     15  C   UNL     1       2.136   5.320  20.353  0.00  0.00    +0.000 A 
ATOM     16  C   UNL     1       1.233   4.280  20.088  0.00  0.00    +0.000 A 
ATOM     17  C   UNL     1       1.671   3.100  19.484  0.00  0.00    +0.000 A 
ATOM     18  C   UNL     1       3.020   2.939  19.160  0.00  0.00    +0.000 A 
ATOM     19  C   UNL     1       3.924   3.964  19.420  0.00  0.00    +0.000 A 
ATOM     20  C   UNL     1       3.471   5.176  19.952  0.00  0.00    +0.000 A 
BRANCH  19  21
ATOM     21  O   UNL     1       5.243   3.720  19.096  0.00  0.00    +0.000 OA
BRANCH  21  22
ATOM     22  C   UNL     1       5.988   4.723  18.513  0.00  0.00    +0.000 A 
ATOM     23  C   UNL     1       7.006   5.428  19.164  0.00  0.00    +0.000 A 
ATOM     24  C   UNL     1       7.667   6.468  18.512  0.00  0.00    +0.000 A 
ATOM     25  C   UNL     1       7.358   6.766  17.187  0.00  0.00    +0.000 A 
ATOM     26  C   UNL     1       6.396   6.018  16.510  0.00  0.00    +0.000 A 
ATOM     27  C   UNL     1       5.710   4.997  17.173  0.00  0.00    +0.000 A 
ENDBRANCH  21  22
ENDBRANCH  19  21
ENDBRANCH   1  15
TORSDOF 4
ENDMDL
MODEL 5
REMARK VINA RESULT:      -8.1      5.178      8.682
REMARK  Name = 
REMARK  4 active torsions:
REMARK  status: ('A' for Active; 'I' for Inactive)
REMARK    1  A    between atoms: N_8  and  C_9
REMARK    2  A    between atoms: C_9  and  C_10
REMARK    3  A    between atoms: C_14  and  O_15
REMARK    4  A    between atoms: O_15  and  C_16
REMARK                            x       y       z     vdW  Elec       q    Type
REMARK                         _______ _______ _______ _____ _____    ______ ____
ROOT
ATOM      1  C   UNL     1       1.230  10.021  18.280  0.00  0.00    +0.000 C 
ENDROOT
BRANCH   1   9
ATOM      2  O   UNL     1      -6.183  12.113  16.989  0.00  0.00    +0.000 OA
ATOM      3  C   UNL     1      -4.986  11.834  16.973  0.00  0.00    +0.000 C 
ATOM      4  C   UNL     1      -4.136  11.859  18.219  0.00  0.00    +0.000 C 
ATOM      5  C   UNL     1      -3.606  10.469  18.545  0.00  0.00    +0.000 C 
ATOM      6  N   UNL     1      -2.396  10.122  17.792  0.00  0.00    +0.000 N 
ATOM      7  C   UNL     1      -1.171  10.319  18.412  0.00  0.00    +0.000 C 
ATOM      8  O   UNL     1      -1.058  10.803  19.536  0.00  0.00    +0.000 OA
ATOM      9  N   UNL     1      -0.079   9.926  17.681  0.00  0.00    +0.000 N 
ATOM     10  C   UNL     1      -2.574   9.887  16.350  0.00  0.00    +0.000 C 
ATOM     11  C   UNL     1      -2.996  11.155  15.597  0.00  0.00    +0.000 C 
ATOM     12  N   UNL     1      -4.395  11.485  15.796  0.00  0.00    +0.000 N 
ATOM     13  H   UNL     1      -0.221   9.093  17.135  0.00  0.00    +0.000 HD
ATOM     14  H   UNL     1      -5.019  11.507  14.996  0.00  0.00    +0.000 HD
ENDBRANCH   1   9
BRANCH   1  15
ATOM     15  C   UNL     1       1.695   8.689  18.802  0.00  0.00    +0.000 A 
ATOM     16  C   UNL     1       1.334   8.245  20.082  0.00  0.00    +0.000 A 
ATOM     17  C   UNL     1       1.833   7.037  20.578  0.00  0.00    +0.000 A 
ATOM     18  C   UNL     1       2.714   6.276  19.808  0.00  0.00    +0.000 A 
ATOM     19  C   UNL     1       3.079   6.709  18.537  0.00  0.00    +0.000 A 
ATOM     20  C   UNL     1       2.518   7.877  18.010  0.00  0.00    +0.000 A 
BRANCH  19  21
ATOM     21  O   UNL     1       3.974   5.916  17.848  0.00  0.00    +0.000 OA
BRANCH  21  22
ATOM     22  C   UNL     1       5.324   6.065  18.087  0.00  0.00    +0.000 A 
ATOM     23  C   UNL     1       6.040   5.336  19.043  0.00  0.00    +0.000 A 
ATOM     24  C   UNL     1       7.393   5.597  19.256  0.00  0.00    +0.000 A 
ATOM     25  C   UNL     1       8.051   6.542  18.470  0.00  0.00    +0.000 A 
ATOM     26  C   UNL     1       7.359   7.218  17.467  0.00  0.00    +0.000 A 
ATOM     27  C   UNL     1       5.996   6.980  17.275  0.00  0.00    +0.000 A 
ENDBRANCH  21  22
ENDBRANCH  19  21
ENDBRANCH   1  15
TORSDOF 4
ENDMDL
MODEL 6
REMARK VINA RESULT:      -8.0      2.943      5.112
REMARK  Name = 
REMARK  4 active torsions:
REMARK  status: ('A' for Active; 'I' for Inactive)
REMARK    1  A    between atoms: N_8  and  C_9
REMARK    2  A    between atoms: C_9  and  C_10
REMARK    3  A    between atoms: C_14  and  O_15
REMARK    4  A    between atoms: O_15  and  C_16
REMARK                            x       y       z     vdW  Elec       q    Type
REMARK                         _______ _______ _______ _____ _____    ______ ____
ROOT
ATOM      1  C   UNL     1       1.923   6.733  20.418  0.00  0.00    +0.000 C 
ENDROOT
BRANCH   1   9
ATOM      2  O   UNL     1       6.473   3.895  14.739  0.00  0.00    +0.000 OA
ATOM      3  C   UNL     1       5.736   4.522  15.497  0.00  0.00    +0.000 C 
ATOM      4  C   UNL     1       4.880   3.840  16.535  0.00  0.00    +0.000 C 
ATOM      5  C   UNL     1       5.297   4.254  17.941  0.00  0.00    +0.000 C 
ATOM      6  N   UNL     1       4.705   5.526  18.367  0.00  0.00    +0.000 N 
ATOM      7  C   UNL     1       3.551   5.476  19.135  0.00  0.00    +0.000 C 
ATOM      8  O   UNL     1       2.989   4.426  19.435  0.00  0.00    +0.000 OA
ATOM      9  N   UNL     1       3.075   6.695  19.549  0.00  0.00    +0.000 N 
ATOM     10  C   UNL     1       5.208   6.734  17.694  0.00  0.00    +0.000 C 
ATOM     11  C   UNL     1       4.852   6.766  16.203  0.00  0.00    +0.000 C 
ATOM     12  N   UNL     1       5.682   5.881  15.408  0.00  0.00    +0.000 N 
ATOM     13  H   UNL     1       3.789   7.363  19.785  0.00  0.00    +0.000 HD
ATOM     14  H   UNL     1       6.268   6.272  14.677  0.00  0.00    +0.000 HD
ENDBRANCH   1   9
BRANCH   1  15
ATOM     15  C   UNL     1       1.425   8.139  20.610  0.00  0.00    +0.000 A 
ATOM     16  C   UNL     1       1.253   8.681  21.892  0.00  0.00    +0.000 A 
ATOM     17  C   UNL     1       0.722   9.963  22.053  0.00  0.00    +0.000 A 
ATOM     18  C   UNL     1       0.337  10.705  20.935  0.00  0.00    +0.000 A 
ATOM     19  C   UNL     1       0.503  10.176  19.659  0.00  0.00    +0.000 A 
ATOM     20  C   UNL     1       1.107   8.926  19.495  0.00  0.00    +0.000 A 
BRANCH  19  21
ATOM     21  O   UNL     1       0.074  10.959  18.606  0.00  0.00    +0.000 OA
BRANCH  21  22
ATOM     22  C   UNL     1      -1.254  10.915  18.234  0.00  0.00    +0.000 A 
ATOM     23  C   UNL     1      -2.234  11.795  18.707  0.00  0.00    +0.000 A 
ATOM     24  C   UNL     1      -3.564  11.637  18.321  0.00  0.00    +0.000 A 
ATOM     25  C   UNL     1      -3.910  10.639  17.411  0.00  0.00    +0.000 A 
ATOM     26  C   UNL     1      -2.925   9.808  16.880  0.00  0.00    +0.000 A 
ATOM     27  C   UNL     1      -1.598   9.944  17.293  0.00  0.00    +0.000 A 
ENDBRANCH  21  22
ENDBRANCH  19  21
ENDBRANCH   1  15
TORSDOF 4
ENDMDL
MODEL 7
REMARK VINA RESULT:      -8.0      3.817      6.818
REMARK  Name = 
REMARK  4 active torsions:
REMARK  status: ('A' for Active; 'I' for Inactive)
REMARK    1  A    between atoms: N_8  and  C_9
REMARK    2  A    between atoms: C_9  and  C_10
REMARK    3  A    between atoms: C_14  and  O_15
REMARK    4  A    between atoms: O_15  and  C_16
REMARK                            x       y       z     vdW  Elec       q    Type
REMARK                         _______ _______ _______ _____ _____    ______ ____
ROOT
ATOM      1  C   UNL     1       1.634   7.442  20.931  0.00  0.00    +0.000 C 
ENDROOT
BRANCH   1   9
ATOM      2  O   UNL     1      -0.284  14.657  18.635  0.00  0.00    +0.000 OA
ATOM      3  C   UNL     1       0.223  13.571  18.912  0.00  0.00    +0.000 C 
ATOM      4  C   UNL     1      -0.310  12.693  20.016  0.00  0.00    +0.000 C 
ATOM      5  C   UNL     1      -0.826  11.372  19.459  0.00  0.00    +0.000 C 
ATOM      6  N   UNL     1       0.233  10.379  19.253  0.00  0.00    +0.000 N 
ATOM      7  C   UNL     1       0.440   9.439  20.253  0.00  0.00    +0.000 C 
ATOM      8  O   UNL     1      -0.192   9.429  21.306  0.00  0.00    +0.000 OA
ATOM      9  N   UNL     1       1.407   8.505  19.981  0.00  0.00    +0.000 N 
ATOM     10  C   UNL     1       1.176  10.653  18.157  0.00  0.00    +0.000 C 
ATOM     11  C   UNL     1       2.031  11.899  18.417  0.00  0.00    +0.000 C 
ATOM     12  N   UNL     1       1.302  13.135  18.204  0.00  0.00    +0.000 N 
ATOM     13  H   UNL     1       1.443   8.210  19.019  0.00  0.00    +0.000 HD
ATOM     14  H   UNL     1       1.619  13.782  17.490  0.00  0.00    +0.000 HD
ENDBRANCH   1   9
BRANCH   1  15
ATOM     15  C   UNL     1       1.993   6.154  20.241  0.00  0.00    +0.000 A 
ATOM     16  C   UNL     1       1.398   4.940  20.612  0.00  0.00    +0.000 A 
ATOM     17  C   UNL     1       1.796   3.744  20.010  0.00  0.00    +0.000 A 
ATOM     18  C   UNL     1       2.807   3.749  19.047  0.00  0.00    +0.000 A 
ATOM     19  C   UNL     1       3.404   4.948  18.672  0.00  0.00    +0.000 A 
ATOM     20  C   UNL     1       2.951   6.154  19.218  0.00  0.00    +0.000 A 
BRANCH  19  21
ATOM     21  O   UNL     1       4.414   4.868  17.735  0.00  0.00    +0.000 OA
BRANCH  21  22
ATOM     22  C   UNL     1       5.609   5.512  17.979  0.00  0.00    +0.000 A 
ATOM     23  C   UNL     1       6.544   5.101  18.935  0.00  0.00    +0.000 A 
ATOM     24  C   UNL     1       7.700   5.851  19.153  0.00  0.00    +0.000 A 
ATOM     25  C   UNL     1       7.956   6.977  18.373  0.00  0.00    +0.000 A 
ATOM     26  C   UNL     1       7.063   7.348  17.370  0.00  0.00    +0.000 A 
ATOM     27  C   UNL     1       5.889   6.617  17.173  0.00  0.00    +0.000 A 
ENDBRANCH  21  22
ENDBRANCH  19  21
ENDBRANCH   1  15
TORSDOF 4
ENDMDL
MODEL 8
REMARK VINA RESULT:      -8.0      3.404      6.305
REMARK  Name = 
REMARK  4 active torsions:
REMARK  status: ('A' for Active; 'I' for Inactive)
REMARK    1  A    between atoms: N_8  and  C_9
REMARK    2  A    between atoms: C_9  and  C_10
REMARK    3  A    between atoms: C_14  and  O_15
REMARK    4  A    between atoms: O_15  and  C_16
REMARK                            x       y       z     vdW  Elec       q    Type
REMARK                         _______ _______ _______ _____ _____    ______ ____
ROOT
ATOM      1  C   UNL     1       1.699   6.599  21.149  0.00  0.00    +0.000 C 
ENDROOT
BRANCH   1   9
ATOM      2  O   UNL     1       1.348  13.977  18.609  0.00  0.00    +0.000 OA
ATOM      3  C   UNL     1       1.552  12.786  18.840  0.00  0.00    +0.000 C 
ATOM      4  C   UNL     1       1.327  12.180  20.203  0.00  0.00    +0.000 C 
ATOM      5  C   UNL     1       0.227  11.127  20.156  0.00  0.00    +0.000 C 
ATOM      6  N   UNL     1       0.704   9.814  19.710  0.00  0.00    +0.000 N 
ATOM      7  C   UNL     1       1.030   8.881  20.684  0.00  0.00    +0.000 C 
ATOM      8  O   UNL     1       0.975   9.119  21.887  0.00  0.00    +0.000 OA
ATOM      9  N   UNL     1       1.418   7.655  20.207  0.00  0.00    +0.000 N 
ATOM     10  C   UNL     1       1.082   9.708  18.292  0.00  0.00    +0.000 C 
ATOM     11  C   UNL     1       2.307  10.563  17.946  0.00  0.00    +0.000 C 
ATOM     12  N   UNL     1       1.993  11.975  17.838  0.00  0.00    +0.000 N 
ATOM     13  H   UNL     1       0.920   7.350  19.386  0.00  0.00    +0.000 HD
ATOM     14  H   UNL     1       2.141  12.451  16.954  0.00  0.00    +0.000 HD
ENDBRANCH   1   9
BRANCH   1  15
ATOM     15  C   UNL     1       1.944   5.289  20.451  0.00  0.00    +0.000 A 
ATOM     16  C   UNL     1       0.934   4.321  20.346  0.00  0.00    +0.000 A 
ATOM     17  C   UNL     1       1.200   3.083  19.757  0.00  0.00    +0.000 A 
ATOM     18  C   UNL     1       2.483   2.792  19.291  0.00  0.00    +0.000 A 
ATOM     19  C   UNL     1       3.493   3.744  19.392  0.00  0.00    +0.000 A 
ATOM     20  C   UNL     1       3.206   5.012  19.909  0.00  0.00    +0.000 A 
BRANCH  19  21
ATOM     21  O   UNL     1       4.740   3.372  18.933  0.00  0.00    +0.000 OA
BRANCH  21  22
ATOM     22  C   UNL     1       5.290   4.045  17.862  0.00  0.00    +0.000 A 
ATOM     23  C   UNL     1       4.709   4.110  16.591  0.00  0.00    +0.000 A 
ATOM     24  C   UNL     1       5.368   4.765  15.551  0.00  0.00    +0.000 A 
ATOM     25  C   UNL     1       6.578   5.411  15.793  0.00  0.00    +0.000 A 
ATOM     26  C   UNL     1       7.124   5.412  17.075  0.00  0.00    +0.000 A 
ATOM     27  C   UNL     1       6.481   4.728  18.109  0.00  0.00    +0.000 A 
ENDBRANCH  21  22
ENDBRANCH  19  21
ENDBRANCH   1  15
TORSDOF 4
ENDMDL
MODEL 9
REMARK VINA RESULT:      -7.9      4.004      7.376
REMARK  Name = 
REMARK  4 active torsions:
REMARK  status: ('A' for Active; 'I' for Inactive)
REMARK    1  A    between atoms: N_8  and  C_9
REMARK    2  A    between atoms: C_9  and  C_10
REMARK    3  A    between atoms: C_14  and  O_15
REMARK    4  A    between atoms: O_15  and  C_16
REMARK                            x       y       z     vdW  Elec       q    Type
REMARK                         _______ _______ _______ _____ _____    ______ ____
ROOT
ATOM      1  C   UNL     1       2.070   7.666  18.792  0.00  0.00    +0.000 C 
ENDROOT
BRANCH   1   9
ATOM      2  O   UNL     1      -2.128  12.662  23.084  0.00  0.00    +0.000 OA
ATOM      3  C   UNL     1      -1.540  11.720  22.556  0.00  0.00    +0.000 C 
ATOM      4  C   UNL     1      -1.145  11.730  21.101  0.00  0.00    +0.000 C 
ATOM      5  C   UNL     1       0.370  11.682  20.947  0.00  0.00    +0.000 C 
ATOM      6  N   UNL     1       0.915  10.323  21.030  0.00  0.00    +0.000 N 
ATOM      7  C   UNL     1       1.155   9.650  19.841  0.00  0.00    +0.000 C 
ATOM      8  O   UNL     1       0.896  10.124  18.738  0.00  0.00    +0.000 OA
ATOM      9  N   UNL     1       1.714   8.405  19.980  0.00  0.00    +0.000 N 
ATOM     10  C   UNL     1       0.872   9.686  22.356  0.00  0.00    +0.000 C 
ATOM     11  C   UNL     1      -0.561   9.422  22.834  0.00  0.00    +0.000 C 
ATOM     12  N   UNL     1      -1.226  10.624  23.303  0.00  0.00    +0.000 N 
ATOM     13  H   UNL     1       2.386   8.331  20.726  0.00  0.00    +0.000 HD
ATOM     14  H   UNL     1      -1.537  10.676  24.267  0.00  0.00    +0.000 HD
ENDBRANCH   1   9
BRANCH   1  15
ATOM     15  C   UNL     1       2.362   6.224  19.108  0.00  0.00    +0.000 A 
ATOM     16  C   UNL     1       2.005   5.664  20.344  0.00  0.00    +0.000 A 
ATOM     17  C   UNL     1       2.348   4.344  20.647  0.00  0.00    +0.000 A 
ATOM     18  C   UNL     1       3.070   3.581  19.728  0.00  0.00    +0.000 A 
ATOM     19  C   UNL     1       3.430   4.128  18.501  0.00  0.00    +0.000 A 
ATOM     20  C   UNL     1       3.019   5.422  18.166  0.00  0.00    +0.000 A 
BRANCH  19  21
ATOM     21  O   UNL     1       4.166   3.320  17.658  0.00  0.00    +0.000 OA
BRANCH  21  22
ATOM     22  C   UNL     1       5.141   3.888  16.865  0.00  0.00    +0.000 A 
ATOM     23  C   UNL     1       5.025   4.070  15.483  0.00  0.00    +0.000 A 
ATOM     24  C   UNL     1       6.089   4.599  14.753  0.00  0.00    +0.000 A 
ATOM     25  C   UNL     1       7.247   5.009  15.410  0.00  0.00    +0.000 A 
ATOM     26  C   UNL     1       7.338   4.898  16.797  0.00  0.00    +0.000 A 
ATOM     27  C   UNL     1       6.286   4.337  17.524  0.00  0.00    +0.000 A 
ENDBRANCH  21  22
ENDBRANCH  19  21
ENDBRANCH   1  15
TORSDOF 4
ENDMDL
