MODEL 1
REMARK VINA RESULT:     -10.1      0.000      0.000
REMARK  Name = 
REMARK  6 active torsions:
REMARK  status: ('A' for Active; 'I' for Inactive)
REMARK    1  A    between atoms: C_1  and  O_2
REMARK    2  A    between atoms: O_2  and  C_3
REMARK    3  A    between atoms: C_13  and  C_14
REMARK    4  A    between atoms: C_14  and  N_15
REMARK    5  A    between atoms: C_14  and  C_27
REMARK    6  A    between atoms: N_15  and  C_16
REMARK                            x       y       z     vdW  Elec       q    Type
REMARK                         _______ _______ _______ _____ _____    ______ ____
ROOT
ATOM      1  C   UNL     1       4.023   6.297  17.950  0.00  0.00    +0.000 C 
ENDROOT
BRANCH   1  12
ATOM      2  C   UNL     1       6.321   6.291  16.873  0.00  0.00    +0.000 A 
ATOM      3  N   UNL     1       7.190   6.063  15.861  0.00  0.00    +0.000 NA
ATOM      4  C   UNL     1       6.811   5.276  14.850  0.00  0.00    +0.000 A 
ATOM      5  C   UNL     1       7.683   5.079  13.788  0.00  0.00    +0.000 A 
ATOM      6  C   UNL     1       7.371   4.214  12.738  0.00  0.00    +0.000 A 
ATOM      7  C   UNL     1       6.165   3.524  12.758  0.00  0.00    +0.000 A 
ATOM      8 BR   UNL     1       5.782   2.271  11.399  0.00  0.00    +0.000 Br
ATOM      9  C   UNL     1       5.245   3.747  13.782  0.00  0.00    +0.000 A 
ATOM     10  C   UNL     1       5.553   4.647  14.820  0.00  0.00    +0.000 A 
ATOM     11  C   UNL     1       4.645   4.962  15.846  0.00  0.00    +0.000 A 
ATOM     12  C   UNL     1       5.007   5.831  16.888  0.00  0.00    +0.000 A 
BRANCH   2  14
ATOM     13  C   UNL     1       7.636   8.104  17.547  0.00  0.00    +0.000 C 
ATOM     14  O   UNL     1       6.768   7.039  17.944  0.00  0.00    +0.000 OA
ENDBRANCH   2  14
ENDBRANCH   1  12
BRANCH   1  15
ATOM     15  C   UNL     1       3.174   5.181  18.566  0.00  0.00    +0.000 A 
ATOM     16  C   UNL     1       3.451   4.743  19.874  0.00  0.00    +0.000 A 
ATOM     17  C   UNL     1       2.654   3.778  20.493  0.00  0.00    +0.000 A 
ATOM     18  C   UNL     1       1.560   3.237  19.821  0.00  0.00    +0.000 A 
ATOM     19  C   UNL     1       1.265   3.665  18.528  0.00  0.00    +0.000 A 
ATOM     20  C   UNL     1       2.059   4.632  17.908  0.00  0.00    +0.000 A 
ENDBRANCH   1  15
BRANCH   1  21
ATOM     21  N   UNL     1       3.100   7.327  17.422  0.00  0.00    +0.000 N 
ATOM     22  H   UNL     1       2.535   6.951  16.661  0.00  0.00    +0.000 HD
BRANCH  21  23
ATOM     23  C   UNL     1       2.317   8.122  18.275  0.00  0.00    +0.000 A 
ATOM     24  C   UNL     1       1.864   9.363  17.790  0.00  0.00    +0.000 A 
ATOM     25  C   UNL     1       1.178  10.264  18.610  0.00  0.00    +0.000 A 
ATOM     26  C   UNL     1       0.949   9.928  19.936  0.00  0.00    +0.000 A 
ATOM     27  O   UNL     1       0.295  10.876  20.745  0.00  0.00    +0.000 OA
ATOM     28  C   UNL     1       0.067  10.632  22.091  0.00  0.00    +0.000 A 
ATOM     29  O   UNL     1      -0.456  11.459  22.832  0.00  0.00    +0.000 OA
ATOM     30  C   UNL     1       0.464   9.310  22.605  0.00  0.00    +0.000 A 
ATOM     31  C   UNL     1       1.087   8.402  21.846  0.00  0.00    +0.000 A 
ATOM     32  C   UNL     1       1.381   8.713  20.455  0.00  0.00    +0.000 A 
ATOM     33  C   UNL     1       2.079   7.824  19.625  0.00  0.00    +0.000 A 
ENDBRANCH  21  23
ENDBRANCH   1  21
TORSDOF 5
ENDMDL
MODEL 2
REMARK VINA RESULT:     -10.0      0.937      1.515
REMARK  Name = 
REMARK  6 active torsions:
REMARK  status: ('A' for Active; 'I' for Inactive)
REMARK    1  A    between atoms: C_1  and  O_2
REMARK    2  A    between atoms: O_2  and  C_3
REMARK    3  A    between atoms: C_13  and  C_14
REMARK    4  A    between atoms: C_14  and  N_15
REMARK    5  A    between atoms: C_14  and  C_27
REMARK    6  A    between atoms: N_15  and  C_16
REMARK                            x       y       z     vdW  Elec       q    Type
REMARK                         _______ _______ _______ _____ _____    ______ ____
ROOT
ATOM      1  C   UNL     1       4.049   5.649  17.885  0.00  0.00    +0.000 C 
ENDROOT
BRANCH   1  12
ATOM      2  C   UNL     1       6.268   6.020  16.709  0.00  0.00    +0.000 A 
ATOM      3  N   UNL     1       7.111   5.954  15.653  0.00  0.00    +0.000 NA
ATOM      4  C   UNL     1       6.807   5.147  14.634  0.00  0.00    +0.000 A 
ATOM      5  C   UNL     1       7.645   5.112  13.528  0.00  0.00    +0.000 A 
ATOM      6  C   UNL     1       7.417   4.239  12.465  0.00  0.00    +0.000 A 
ATOM      7  C   UNL     1       6.330   3.374  12.514  0.00  0.00    +0.000 A 
ATOM      8 BR   UNL     1       6.075   2.114  11.130  0.00  0.00    +0.000 Br
ATOM      9  C   UNL     1       5.438   3.427  13.584  0.00  0.00    +0.000 A 
ATOM     10  C   UNL     1       5.657   4.335  14.638  0.00  0.00    +0.000 A 
ATOM     11  C   UNL     1       4.762   4.481  15.712  0.00  0.00    +0.000 A 
ATOM     12  C   UNL     1       5.040   5.366  16.766  0.00  0.00    +0.000 A 
BRANCH   2  14
ATOM     13  C   UNL     1       7.637   6.166  18.600  0.00  0.00    +0.000 C 
ATOM     14  O   UNL     1       6.648   6.799  17.784  0.00  0.00    +0.000 OA
ENDBRANCH   2  14
ENDBRANCH   1  12
BRANCH   1  15
ATOM     15  C   UNL     1       3.282   4.420  18.382  0.00  0.00    +0.000 A 
ATOM     16  C   UNL     1       3.796   3.672  19.457  0.00  0.00    +0.000 A 
ATOM     17  C   UNL     1       3.089   2.588  19.982  0.00  0.00    +0.000 A 
ATOM     18  C   UNL     1       1.851   2.236  19.450  0.00  0.00    +0.000 A 
ATOM     19  C   UNL     1       1.321   2.971  18.391  0.00  0.00    +0.000 A 
ATOM     20  C   UNL     1       2.025   4.057  17.866  0.00  0.00    +0.000 A 
ENDBRANCH   1  15
BRANCH   1  21
ATOM     21  N   UNL     1       3.055   6.670  17.486  0.00  0.00    +0.000 N 
ATOM     22  H   UNL     1       2.350   6.269  16.870  0.00  0.00    +0.000 HD
BRANCH  21  23
ATOM     23  C   UNL     1       2.461   7.527  18.428  0.00  0.00    +0.000 A 
ATOM     24  C   UNL     1       2.323   7.061  19.749  0.00  0.00    +0.000 A 
ATOM     25  C   UNL     1       1.642   7.802  20.720  0.00  0.00    +0.000 A 
ATOM     26  C   UNL     1       1.081   9.020  20.366  0.00  0.00    +0.000 A 
ATOM     27  O   UNL     1       0.365   9.720  21.356  0.00  0.00    +0.000 OA
ATOM     28  C   UNL     1      -0.260  10.925  21.069  0.00  0.00    +0.000 A 
ATOM     29  O   UNL     1      -0.932  11.532  21.897  0.00  0.00    +0.000 OA
ATOM     30  C   UNL     1      -0.066  11.470  19.715  0.00  0.00    +0.000 A 
ATOM     31  C   UNL     1       0.611  10.814  18.767  0.00  0.00    +0.000 A 
ATOM     32  C   UNL     1       1.194   9.516  19.073  0.00  0.00    +0.000 A 
ATOM     33  C   UNL     1       1.869   8.757  18.106  0.00  0.00    +0.000 A 
ENDBRANCH  21  23
ENDBRANCH   1  21
TORSDOF 5
ENDMDL
MODEL 3
REMARK VINA RESULT:      -9.8      1.009      1.259
REMARK  Name = 
REMARK  6 active torsions:
REMARK  status: ('A' for Active; 'I' for Inactive)
REMARK    1  A    between atoms: C_1  and  O_2
REMARK    2  A    between atoms: O_2  and  C_3
REMARK    3  A    between atoms: C_13  and  C_14
REMARK    4  A    between atoms: C_14  and  N_15
REMARK    5  A    between atoms: C_14  and  C_27
REMARK    6  A    between atoms: N_15  and  C_16
REMARK                            x       y       z     vdW  Elec       q    Type
REMARK                         _______ _______ _______ _____ _____    ______ ____
ROOT
ATOM      1  C   UNL     1       4.128   5.739  18.435  0.00  0.00    +0.000 C 
ENDROOT
BRANCH   1  12
ATOM      2  C   UNL     1       6.347   5.955  17.223  0.00  0.00    +0.000 A 
ATOM      3  N   UNL     1       7.157   5.871  16.141  0.00  0.00    +0.000 NA
ATOM      4  C   UNL     1       6.748   5.167  15.083  0.00  0.00    +0.000 A 
ATOM      5  C   UNL     1       7.555   5.118  13.955  0.00  0.00    +0.000 A 
ATOM      6  C   UNL     1       7.213   4.343  12.846  0.00  0.00    +0.000 A 
ATOM      7  C   UNL     1       6.044   3.593  12.872  0.00  0.00    +0.000 A 
ATOM      8 BR   UNL     1       5.629   2.458  11.420  0.00  0.00    +0.000 Br
ATOM      9  C   UNL     1       5.185   3.668  13.968  0.00  0.00    +0.000 A 
ATOM     10  C   UNL     1       5.520   4.478  15.069  0.00  0.00    +0.000 A 
ATOM     11  C   UNL     1       4.669   4.647  16.175  0.00  0.00    +0.000 A 
ATOM     12  C   UNL     1       5.059   5.429  17.273  0.00  0.00    +0.000 A 
BRANCH   2  14
ATOM     13  C   UNL     1       7.798   5.855  19.055  0.00  0.00    +0.000 C 
ATOM     14  O   UNL     1       6.829   6.620  18.333  0.00  0.00    +0.000 OA
ENDBRANCH   2  14
ENDBRANCH   1  12
BRANCH   1  15
ATOM     15  C   UNL     1       3.869   4.560  19.377  0.00  0.00    +0.000 A 
ATOM     16  C   UNL     1       2.756   4.592  20.237  0.00  0.00    +0.000 A 
ATOM     17  C   UNL     1       2.449   3.505  21.059  0.00  0.00    +0.000 A 
ATOM     18  C   UNL     1       3.244   2.362  21.032  0.00  0.00    +0.000 A 
ATOM     19  C   UNL     1       4.346   2.308  20.180  0.00  0.00    +0.000 A 
ATOM     20  C   UNL     1       4.653   3.392  19.356  0.00  0.00    +0.000 A 
ENDBRANCH   1  15
BRANCH   1  21
ATOM     21  N   UNL     1       2.815   6.234  17.962  0.00  0.00    +0.000 N 
ATOM     22  H   UNL     1       2.141   5.473  17.902  0.00  0.00    +0.000 HD
BRANCH  21  23
ATOM     23  C   UNL     1       2.220   7.382  18.512  0.00  0.00    +0.000 A 
ATOM     24  C   UNL     1       2.144   8.535  17.709  0.00  0.00    +0.000 A 
ATOM     25  C   UNL     1       1.672   9.750  18.214  0.00  0.00    +0.000 A 
ATOM     26  C   UNL     1       1.280   9.820  19.542  0.00  0.00    +0.000 A 
ATOM     27  O   UNL     1       0.853  11.069  20.030  0.00  0.00    +0.000 OA
ATOM     28  C   UNL     1       0.483  11.230  21.358  0.00  0.00    +0.000 A 
ATOM     29  O   UNL     1       0.154  12.317  21.824  0.00  0.00    +0.000 OA
ATOM     30  C   UNL     1       0.482  10.022  22.200  0.00  0.00    +0.000 A 
ATOM     31  C   UNL     1       0.888   8.831  21.747  0.00  0.00    +0.000 A 
ATOM     32  C   UNL     1       1.340   8.705  20.370  0.00  0.00    +0.000 A 
ATOM     33  C   UNL     1       1.827   7.496  19.854  0.00  0.00    +0.000 A 
ENDBRANCH  21  23
ENDBRANCH   1  21
TORSDOF 5
ENDMDL
MODEL 4
REMARK VINA RESULT:      -9.6      1.157      1.266
REMARK  Name = 
REMARK  6 active torsions:
REMARK  status: ('A' for Active; 'I' for Inactive)
REMARK    1  A    between atoms: C_1  and  O_2
REMARK    2  A    between atoms: O_2  and  C_3
REMARK    3  A    between atoms: C_13  and  C_14
REMARK    4  A    between atoms: C_14  and  N_15
REMARK    5  A    between atoms: C_14  and  C_27
REMARK    6  A    between atoms: N_15  and  C_16
REMARK                            x       y       z     vdW  Elec       q    Type
REMARK                         _______ _______ _______ _____ _____    ______ ____
ROOT
ATOM      1  C   UNL     1       3.439   5.958  18.931  0.00  0.00    +0.000 C 
ENDROOT
BRANCH   1  12
ATOM      2  C   UNL     1       5.855   5.520  18.289  0.00  0.00    +0.000 A 
ATOM      3  N   UNL     1       6.858   5.287  17.410  0.00  0.00    +0.000 NA
ATOM      4  C   UNL     1       6.551   4.908  16.167  0.00  0.00    +0.000 A 
ATOM      5  C   UNL     1       7.575   4.713  15.250  0.00  0.00    +0.000 A 
ATOM      6  C   UNL     1       7.321   4.251  13.959  0.00  0.00    +0.000 A 
ATOM      7  C   UNL     1       6.014   3.967  13.580  0.00  0.00    +0.000 A 
ATOM      8 BR   UNL     1       5.673   3.239  11.872  0.00  0.00    +0.000 Br
ATOM      9  C   UNL     1       4.960   4.208  14.460  0.00  0.00    +0.000 A 
ATOM     10  C   UNL     1       5.221   4.706  15.751  0.00  0.00    +0.000 A 
ATOM     11  C   UNL     1       4.200   5.029  16.662  0.00  0.00    +0.000 A 
ATOM     12  C   UNL     1       4.504   5.482  17.955  0.00  0.00    +0.000 A 
BRANCH   2  14
ATOM     13  C   UNL     1       7.610   5.736  19.820  0.00  0.00    +0.000 C 
ATOM     14  O   UNL     1       6.202   5.830  19.589  0.00  0.00    +0.000 OA
ENDBRANCH   2  14
ENDBRANCH   1  12
BRANCH   1  15
ATOM     15  C   UNL     1       2.646   4.836  19.607  0.00  0.00    +0.000 A 
ATOM     16  C   UNL     1       2.883   4.542  20.963  0.00  0.00    +0.000 A 
ATOM     17  C   UNL     1       2.130   3.574  21.631  0.00  0.00    +0.000 A 
ATOM     18  C   UNL     1       1.122   2.886  20.961  0.00  0.00    +0.000 A 
ATOM     19  C   UNL     1       0.866   3.170  19.620  0.00  0.00    +0.000 A 
ATOM     20  C   UNL     1       1.616   4.140  18.951  0.00  0.00    +0.000 A 
ENDBRANCH   1  15
BRANCH   1  21
ATOM     21  N   UNL     1       2.468   6.865  18.277  0.00  0.00    +0.000 N 
ATOM     22  H   UNL     1       1.822   6.341  17.689  0.00  0.00    +0.000 HD
BRANCH  21  23
ATOM     23  C   UNL     1       1.787   7.859  19.000  0.00  0.00    +0.000 A 
ATOM     24  C   UNL     1       1.591   9.107  18.380  0.00  0.00    +0.000 A 
ATOM     25  C   UNL     1       1.026  10.186  19.067  0.00  0.00    +0.000 A 
ATOM     26  C   UNL     1       0.661  10.021  20.395  0.00  0.00    +0.000 A 
ATOM     27  O   UNL     1       0.136  11.139  21.070  0.00  0.00    +0.000 OA
ATOM     28  C   UNL     1      -0.214  11.066  22.411  0.00  0.00    +0.000 A 
ATOM     29  O   UNL     1      -0.627  12.037  23.038  0.00  0.00    +0.000 OA
ATOM     30  C   UNL     1      -0.088   9.751  23.061  0.00  0.00    +0.000 A 
ATOM     31  C   UNL     1       0.410   8.683  22.430  0.00  0.00    +0.000 A 
ATOM     32  C   UNL     1       0.839   8.806  21.045  0.00  0.00    +0.000 A 
ATOM     33  C   UNL     1       1.418   7.736  20.347  0.00  0.00    +0.000 A 
ENDBRANCH  21  23
ENDBRANCH   1  21
TORSDOF 5
ENDMDL
MODEL 5
REMARK VINA RESULT:      -9.5      1.371      2.150
REMARK  Name = 
REMARK  6 active torsions:
REMARK  status: ('A' for Active; 'I' for Inactive)
REMARK    1  A    between atoms: C_1  and  O_2
REMARK    2  A    between atoms: O_2  and  C_3
REMARK    3  A    between atoms: C_13  and  C_14
REMARK    4  A    between atoms: C_14  and  N_15
REMARK    5  A    between atoms: C_14  and  C_27
REMARK    6  A    between atoms: N_15  and  C_16
REMARK                            x       y       z     vdW  Elec       q    Type
REMARK                         _______ _______ _______ _____ _____    ______ ____
ROOT
ATOM      1  C   UNL     1       3.422   5.848  19.119  0.00  0.00    +0.000 C 
ENDROOT
BRANCH   1  12
ATOM      2  C   UNL     1       5.817   5.432  18.389  0.00  0.00    +0.000 A 
ATOM      3  N   UNL     1       6.791   5.222  17.472  0.00  0.00    +0.000 NA
ATOM      4  C   UNL     1       6.445   4.871  16.232  0.00  0.00    +0.000 A 
ATOM      5  C   UNL     1       7.439   4.701  15.278  0.00  0.00    +0.000 A 
ATOM      6  C   UNL     1       7.144   4.267  13.985  0.00  0.00    +0.000 A 
ATOM      7  C   UNL     1       5.827   3.988  13.643  0.00  0.00    +0.000 A 
ATOM      8 BR   UNL     1       5.432   3.298  11.930  0.00  0.00    +0.000 Br
ATOM      9  C   UNL     1       4.801   4.205  14.562  0.00  0.00    +0.000 A 
ATOM     10  C   UNL     1       5.103   4.675  15.854  0.00  0.00    +0.000 A 
ATOM     11  C   UNL     1       4.111   4.974  16.805  0.00  0.00    +0.000 A 
ATOM     12  C   UNL     1       4.456   5.397  18.098  0.00  0.00    +0.000 A 
BRANCH   2  14
ATOM     13  C   UNL     1       7.623   5.653  19.858  0.00  0.00    +0.000 C 
ATOM     14  O   UNL     1       6.206   5.713  19.683  0.00  0.00    +0.000 OA
ENDBRANCH   2  14
ENDBRANCH   1  12
BRANCH   1  15
ATOM     15  C   UNL     1       2.622   4.710  19.760  0.00  0.00    +0.000 A 
ATOM     16  C   UNL     1       1.583   4.101  19.033  0.00  0.00    +0.000 A 
ATOM     17  C   UNL     1       0.879   3.014  19.558  0.00  0.00    +0.000 A 
ATOM     18  C   UNL     1       1.204   2.512  20.816  0.00  0.00    +0.000 A 
ATOM     19  C   UNL     1       2.236   3.098  21.547  0.00  0.00    +0.000 A 
ATOM     20  C   UNL     1       2.943   4.182  21.023  0.00  0.00    +0.000 A 
ENDBRANCH   1  15
BRANCH   1  21
ATOM     21  N   UNL     1       2.456   6.802  18.530  0.00  0.00    +0.000 N 
ATOM     22  H   UNL     1       1.694   6.308  18.068  0.00  0.00    +0.000 HD
BRANCH  21  23
ATOM     23  C   UNL     1       1.967   7.899  19.259  0.00  0.00    +0.000 A 
ATOM     24  C   UNL     1       1.738   7.726  20.637  0.00  0.00    +0.000 A 
ATOM     25  C   UNL     1       1.146   8.728  21.413  0.00  0.00    +0.000 A 
ATOM     26  C   UNL     1       0.767   9.914  20.804  0.00  0.00    +0.000 A 
ATOM     27  O   UNL     1       0.133  10.884  21.605  0.00  0.00    +0.000 OA
ATOM     28  C   UNL     1      -0.313  12.080  21.061  0.00  0.00    +0.000 A 
ATOM     29  O   UNL     1      -0.912  12.922  21.724  0.00  0.00    +0.000 OA
ATOM     30  C   UNL     1      -0.018  12.316  19.638  0.00  0.00    +0.000 A 
ATOM     31  C   UNL     1       0.582  11.402  18.868  0.00  0.00    +0.000 A 
ATOM     32  C   UNL     1       0.973  10.125  19.446  0.00  0.00    +0.000 A 
ATOM     33  C   UNL     1       1.557   9.108  18.677  0.00  0.00    +0.000 A 
ENDBRANCH  21  23
ENDBRANCH   1  21
TORSDOF 5
ENDMDL
MODEL 6
REMARK VINA RESULT:      -9.4      1.664      2.052
REMARK  Name = 
REMARK  6 active torsions:
REMARK  status: ('A' for Active; 'I' for Inactive)
REMARK    1  A    between atoms: C_1  and  O_2
REMARK    2  A    between atoms: O_2  and  C_3
REMARK    3  A    between atoms: C_13  and  C_14
REMARK    4  A    between atoms: C_14  and  N_15
REMARK    5  A    between atoms: C_14  and  C_27
REMARK    6  A    between atoms: N_15  and  C_16
REMARK                            x       y       z     vdW  Elec       q    Type
REMARK                         _______ _______ _______ _____ _____    ______ ____
ROOT
ATOM      1  C   UNL     1       4.646   4.325  19.194  0.00  0.00    +0.000 C 
ENDROOT
BRANCH   1  12
ATOM      2  C   UNL     1       6.705   4.676  17.751  0.00  0.00    +0.000 A 
ATOM      3  N   UNL     1       7.353   4.842  16.574  0.00  0.00    +0.000 NA
ATOM      4  C   UNL     1       6.719   4.533  15.440  0.00  0.00    +0.000 A 
ATOM      5  C   UNL     1       7.363   4.746  14.229  0.00  0.00    +0.000 A 
ATOM      6  C   UNL     1       6.780   4.378  13.017  0.00  0.00    +0.000 A 
ATOM      7  C   UNL     1       5.529   3.774  13.017  0.00  0.00    +0.000 A 
ATOM      8 BR   UNL     1       4.779   3.175  11.391  0.00  0.00    +0.000 Br
ATOM      9  C   UNL     1       4.832   3.600  14.213  0.00  0.00    +0.000 A 
ATOM     10  C   UNL     1       5.414   4.005  15.430  0.00  0.00    +0.000 A 
ATOM     11  C   UNL     1       4.740   3.916  16.660  0.00  0.00    +0.000 A 
ATOM     12  C   UNL     1       5.372   4.288  17.857  0.00  0.00    +0.000 A 
BRANCH   2  14
ATOM     13  C   UNL     1       7.971   6.240  18.943  0.00  0.00    +0.000 C 
ATOM     14  O   UNL     1       7.411   4.925  18.911  0.00  0.00    +0.000 OA
ENDBRANCH   2  14
ENDBRANCH   1  12
BRANCH   1  15
ATOM     15  C   UNL     1       3.229   3.746  19.165  0.00  0.00    +0.000 A 
ATOM     16  C   UNL     1       2.666   3.236  20.349  0.00  0.00    +0.000 A 
ATOM     17  C   UNL     1       1.351   2.766  20.376  0.00  0.00    +0.000 A 
ATOM     18  C   UNL     1       0.571   2.802  19.223  0.00  0.00    +0.000 A 
ATOM     19  C   UNL     1       1.108   3.313  18.043  0.00  0.00    +0.000 A 
ATOM     20  C   UNL     1       2.421   3.786  18.014  0.00  0.00    +0.000 A 
ENDBRANCH   1  15
BRANCH   1  21
ATOM     21  N   UNL     1       4.560   5.702  19.728  0.00  0.00    +0.000 N 
ATOM     22  H   UNL     1       5.475   6.152  19.721  0.00  0.00    +0.000 HD
BRANCH  21  23
ATOM     23  C   UNL     1       3.564   6.597  19.302  0.00  0.00    +0.000 A 
ATOM     24  C   UNL     1       3.630   7.078  17.981  0.00  0.00    +0.000 A 
ATOM     25  C   UNL     1       2.748   8.055  17.512  0.00  0.00    +0.000 A 
ATOM     26  C   UNL     1       1.793   8.571  18.376  0.00  0.00    +0.000 A 
ATOM     27  O   UNL     1       0.950   9.586  17.885  0.00  0.00    +0.000 OA
ATOM     28  C   UNL     1      -0.003  10.180  18.699  0.00  0.00    +0.000 A 
ATOM     29  O   UNL     1      -0.718  11.101  18.314  0.00  0.00    +0.000 OA
ATOM     30  C   UNL     1      -0.142   9.643  20.063  0.00  0.00    +0.000 A 
ATOM     31  C   UNL     1       0.654   8.680  20.540  0.00  0.00    +0.000 A 
ATOM     32  C   UNL     1       1.695   8.125  19.688  0.00  0.00    +0.000 A 
ATOM     33  C   UNL     1       2.594   7.152  20.149  0.00  0.00    +0.000 A 
ENDBRANCH  21  23
ENDBRANCH   1  21
TORSDOF 5
ENDMDL
MODEL 7
REMARK VINA RESULT:      -9.1      4.229      7.237
REMARK  Name = 
REMARK  6 active torsions:
REMARK  status: ('A' for Active; 'I' for Inactive)
REMARK    1  A    between atoms: C_1  and  O_2
REMARK    2  A    between atoms: O_2  and  C_3
REMARK    3  A    between atoms: C_13  and  C_14
REMARK    4  A    between atoms: C_14  and  N_15
REMARK    5  A    between atoms: C_14  and  C_27
REMARK    6  A    between atoms: N_15  and  C_16
REMARK                            x       y       z     vdW  Elec       q    Type
REMARK                         _______ _______ _______ _____ _____    ______ ____
ROOT
ATOM      1  C   UNL     1       0.239  11.074  19.012  0.00  0.00    +0.000 C 
ENDROOT
BRANCH   1  12
ATOM      2  C   UNL     1       0.724   8.939  20.297  0.00  0.00    +0.000 A 
ATOM      3  N   UNL     1       1.424   7.812  20.566  0.00  0.00    +0.000 NA
ATOM      4  C   UNL     1       2.277   7.349  19.648  0.00  0.00    +0.000 A 
ATOM      5  C   UNL     1       3.031   6.220  19.939  0.00  0.00    +0.000 A 
ATOM      6  C   UNL     1       3.886   5.650  18.996  0.00  0.00    +0.000 A 
ATOM      7  C   UNL     1       3.980   6.216  17.730  0.00  0.00    +0.000 A 
ATOM      8 BR   UNL     1       5.052   5.389  16.413  0.00  0.00    +0.000 Br
ATOM      9  C   UNL     1       3.280   7.384  17.429  0.00  0.00    +0.000 A 
ATOM     10  C   UNL     1       2.444   7.972  18.397  0.00  0.00    +0.000 A 
ATOM     11  C   UNL     1       1.762   9.181  18.178  0.00  0.00    +0.000 A 
ATOM     12  C   UNL     1       0.903   9.712  19.153  0.00  0.00    +0.000 A 
BRANCH   2  14
ATOM     13  C   UNL     1       0.302   9.341  22.562  0.00  0.00    +0.000 C 
ATOM     14  O   UNL     1      -0.210   9.349  21.228  0.00  0.00    +0.000 OA
ENDBRANCH   2  14
ENDBRANCH   1  12
BRANCH   1  15
ATOM     15  C   UNL     1      -1.215  11.027  18.536  0.00  0.00    +0.000 A 
ATOM     16  C   UNL     1      -1.601  10.067  17.583  0.00  0.00    +0.000 A 
ATOM     17  C   UNL     1      -2.933   9.949  17.179  0.00  0.00    +0.000 A 
ATOM     18  C   UNL     1      -3.906  10.783  17.724  0.00  0.00    +0.000 A 
ATOM     19  C   UNL     1      -3.544  11.734  18.676  0.00  0.00    +0.000 A 
ATOM     20  C   UNL     1      -2.214  11.852  19.084  0.00  0.00    +0.000 A 
ENDBRANCH   1  15
BRANCH   1  21
ATOM     21  N   UNL     1       0.989  11.951  18.085  0.00  0.00    +0.000 N 
ATOM     22  H   UNL     1       0.404  12.234  17.301  0.00  0.00    +0.000 HD
BRANCH  21  23
ATOM     23  C   UNL     1       1.753  13.033  18.551  0.00  0.00    +0.000 A 
ATOM     24  C   UNL     1       1.129  13.962  19.405  0.00  0.00    +0.000 A 
ATOM     25  C   UNL     1       1.780  15.126  19.823  0.00  0.00    +0.000 A 
ATOM     26  C   UNL     1       3.068  15.376  19.374  0.00  0.00    +0.000 A 
ATOM     27  O   UNL     1       3.677  16.579  19.777  0.00  0.00    +0.000 OA
ATOM     28  C   UNL     1       4.949  16.919  19.337  0.00  0.00    +0.000 A 
ATOM     29  O   UNL     1       5.485  17.983  19.631  0.00  0.00    +0.000 OA
ATOM     30  C   UNL     1       5.652  15.930  18.503  0.00  0.00    +0.000 A 
ATOM     31  C   UNL     1       5.082  14.785  18.113  0.00  0.00    +0.000 A 
ATOM     32  C   UNL     1       3.720  14.486  18.528  0.00  0.00    +0.000 A 
ATOM     33  C   UNL     1       3.051  13.327  18.108  0.00  0.00    +0.000 A 
ENDBRANCH  21  23
ENDBRANCH   1  21
TORSDOF 5
ENDMDL
MODEL 8
REMARK VINA RESULT:      -9.0      1.192      1.947
REMARK  Name = 
REMARK  6 active torsions:
REMARK  status: ('A' for Active; 'I' for Inactive)
REMARK    1  A    between atoms: C_1  and  O_2
REMARK    2  A    between atoms: O_2  and  C_3
REMARK    3  A    between atoms: C_13  and  C_14
REMARK    4  A    between atoms: C_14  and  N_15
REMARK    5  A    between atoms: C_14  and  C_27
REMARK    6  A    between atoms: N_15  and  C_16
REMARK                            x       y       z     vdW  Elec       q    Type
REMARK                         _______ _______ _______ _____ _____    ______ ____
ROOT
ATOM      1  C   UNL     1       4.146   5.631  18.562  0.00  0.00    +0.000 C 
ENDROOT
BRANCH   1  12
ATOM      2  C   UNL     1       6.340   5.896  17.314  0.00  0.00    +0.000 A 
ATOM      3  N   UNL     1       7.131   5.843  16.217  0.00  0.00    +0.000 NA
ATOM      4  C   UNL     1       6.710   5.155  15.152  0.00  0.00    +0.000 A 
ATOM      5  C   UNL     1       7.497   5.138  14.008  0.00  0.00    +0.000 A 
ATOM      6  C   UNL     1       7.144   4.381  12.891  0.00  0.00    +0.000 A 
ATOM      7  C   UNL     1       5.984   3.617  12.923  0.00  0.00    +0.000 A 
ATOM      8 BR   UNL     1       5.555   2.507  11.457  0.00  0.00    +0.000 Br
ATOM      9  C   UNL     1       5.144   3.661  14.035  0.00  0.00    +0.000 A 
ATOM     10  C   UNL     1       5.490   4.453  15.146  0.00  0.00    +0.000 A 
ATOM     11  C   UNL     1       4.657   4.590  16.270  0.00  0.00    +0.000 A 
ATOM     12  C   UNL     1       5.059   5.354  17.377  0.00  0.00    +0.000 A 
BRANCH   2  14
ATOM     13  C   UNL     1       7.843   5.787  19.103  0.00  0.00    +0.000 C 
ATOM     14  O   UNL     1       6.835   6.544  18.429  0.00  0.00    +0.000 OA
ENDBRANCH   2  14
ENDBRANCH   1  12
BRANCH   1  15
ATOM     15  C   UNL     1       3.789   4.396  19.393  0.00  0.00    +0.000 A 
ATOM     16  C   UNL     1       4.696   3.322  19.462  0.00  0.00    +0.000 A 
ATOM     17  C   UNL     1       4.436   2.211  20.267  0.00  0.00    +0.000 A 
ATOM     18  C   UNL     1       3.269   2.153  21.024  0.00  0.00    +0.000 A 
ATOM     19  C   UNL     1       2.363   3.211  20.976  0.00  0.00    +0.000 A 
ATOM     20  C   UNL     1       2.622   4.324  20.174  0.00  0.00    +0.000 A 
ENDBRANCH   1  15
BRANCH   1  21
ATOM     21  N   UNL     1       2.880   6.268  18.134  0.00  0.00    +0.000 N 
ATOM     22  H   UNL     1       2.144   5.572  18.019  0.00  0.00    +0.000 HD
BRANCH  21  23
ATOM     23  C   UNL     1       2.381   7.416  18.773  0.00  0.00    +0.000 A 
ATOM     24  C   UNL     1       1.953   7.295  20.108  0.00  0.00    +0.000 A 
ATOM     25  C   UNL     1       1.340   8.356  20.780  0.00  0.00    +0.000 A 
ATOM     26  C   UNL     1       1.138   9.552  20.107  0.00  0.00    +0.000 A 
ATOM     27  O   UNL     1       0.478  10.586  20.798  0.00  0.00    +0.000 OA
ATOM     28  C   UNL     1       0.203  11.798  20.181  0.00  0.00    +0.000 A 
ATOM     29  O   UNL     1      -0.415  12.698  20.741  0.00  0.00    +0.000 OA
ATOM     30  C   UNL     1       0.707  11.975  18.809  0.00  0.00    +0.000 A 
ATOM     31  C   UNL     1       1.334  11.000  18.142  0.00  0.00    +0.000 A 
ATOM     32  C   UNL     1       1.544   9.713  18.788  0.00  0.00    +0.000 A 
ATOM     33  C   UNL     1       2.148   8.636  18.122  0.00  0.00    +0.000 A 
ENDBRANCH  21  23
ENDBRANCH   1  21
TORSDOF 5
ENDMDL
MODEL 9
REMARK VINA RESULT:      -8.7      3.941      6.732
REMARK  Name = 
REMARK  6 active torsions:
REMARK  status: ('A' for Active; 'I' for Inactive)
REMARK    1  A    between atoms: C_1  and  O_2
REMARK    2  A    between atoms: O_2  and  C_3
REMARK    3  A    between atoms: C_13  and  C_14
REMARK    4  A    between atoms: C_14  and  N_15
REMARK    5  A    between atoms: C_14  and  C_27
REMARK    6  A    between atoms: N_15  and  C_16
REMARK                            x       y       z     vdW  Elec       q    Type
REMARK                         _______ _______ _______ _____ _____    ______ ____
ROOT
ATOM      1  C   UNL     1       0.718  10.524  18.953  0.00  0.00    +0.000 C 
ENDROOT
BRANCH   1  12
ATOM      2  C   UNL     1       1.120   8.406  20.294  0.00  0.00    +0.000 A 
ATOM      3  N   UNL     1       1.759   7.247  20.574  0.00  0.00    +0.000 NA
ATOM      4  C   UNL     1       2.544   6.700  19.642  0.00  0.00    +0.000 A 
ATOM      5  C   UNL     1       3.237   5.536  19.943  0.00  0.00    +0.000 A 
ATOM      6  C   UNL     1       4.017   4.882  18.989  0.00  0.00    +0.000 A 
ATOM      7  C   UNL     1       4.095   5.399  17.701  0.00  0.00    +0.000 A 
ATOM      8 BR   UNL     1       5.059   4.463  16.375  0.00  0.00    +0.000 Br
ATOM      9  C   UNL     1       3.456   6.598  17.386  0.00  0.00    +0.000 A 
ATOM     10  C   UNL     1       2.699   7.270  18.364  0.00  0.00    +0.000 A 
ATOM     11  C   UNL     1       2.084   8.512  18.128  0.00  0.00    +0.000 A 
ATOM     12  C   UNL     1       1.300   9.128  19.117  0.00  0.00    +0.000 A 
BRANCH   2  14
ATOM     13  C   UNL     1       0.905   9.218  22.476  0.00  0.00    +0.000 C 
ATOM     14  O   UNL     1       0.252   8.905  21.244  0.00  0.00    +0.000 OA
ENDBRANCH   2  14
ENDBRANCH   1  12
BRANCH   1  15
ATOM     15  C   UNL     1      -0.744  10.555  18.496  0.00  0.00    +0.000 A 
ATOM     16  C   UNL     1      -1.656  11.400  19.153  0.00  0.00    +0.000 A 
ATOM     17  C   UNL     1      -2.979  11.507  18.719  0.00  0.00    +0.000 A 
ATOM     18  C   UNL     1      -3.414  10.777  17.615  0.00  0.00    +0.000 A 
ATOM     19  C   UNL     1      -2.522   9.942  16.945  0.00  0.00    +0.000 A 
ATOM     20  C   UNL     1      -1.198   9.836  17.376  0.00  0.00    +0.000 A 
ENDBRANCH   1  15
BRANCH   1  21
ATOM     21  N   UNL     1       1.506  11.334  17.997  0.00  0.00    +0.000 N 
ATOM     22  H   UNL     1       1.161  11.211  17.047  0.00  0.00    +0.000 HD
BRANCH  21  23
ATOM     23  C   UNL     1       1.803  12.684  18.247  0.00  0.00    +0.000 A 
ATOM     24  C   UNL     1       3.152  13.084  18.195  0.00  0.00    +0.000 A 
ATOM     25  C   UNL     1       3.546  14.380  18.541  0.00  0.00    +0.000 A 
ATOM     26  C   UNL     1       2.583  15.288  18.955  0.00  0.00    +0.000 A 
ATOM     27  O   UNL     1       3.019  16.570  19.339  0.00  0.00    +0.000 OA
ATOM     28  C   UNL     1       2.122  17.521  19.804  0.00  0.00    +0.000 A 
ATOM     29  O   UNL     1       2.479  18.630  20.193  0.00  0.00    +0.000 OA
ATOM     30  C   UNL     1       0.697  17.152  19.797  0.00  0.00    +0.000 A 
ATOM     31  C   UNL     1       0.272  15.937  19.436  0.00  0.00    +0.000 A 
ATOM     32  C   UNL     1       1.241  14.934  19.022  0.00  0.00    +0.000 A 
ATOM     33  C   UNL     1       0.861  13.627  18.684  0.00  0.00    +0.000 A 
ENDBRANCH  21  23
ENDBRANCH   1  21
TORSDOF 5
ENDMDL
