MODEL 1
REMARK VINA RESULT:      -6.8      0.000      0.000
REMARK  Name = 
REMARK  4 active torsions:
REMARK  status: ('A' for Active; 'I' for Inactive)
REMARK    1  A    between atoms: C_2  and  C_15
REMARK    2  A    between atoms: N_3  and  C_4
REMARK    3  A    between atoms: C_7  and  O_8
REMARK    4  A    between atoms: O_8  and  C_9
REMARK                            x       y       z     vdW  Elec       q    Type
REMARK                         _______ _______ _______ _____ _____    ______ ____
ROOT
ATOM      1  C   UNL     1       3.960   4.859  17.659  0.00  0.00    +0.000 A 
ATOM      2  C   UNL     1       4.304   6.171  17.333  0.00  0.00    +0.000 A 
ATOM      3  C   UNL     1       5.065   6.445  16.196  0.00  0.00    +0.000 A 
ATOM      4  C   UNL     1       5.506   5.415  15.369  0.00  0.00    +0.000 A 
ATOM      5  C   UNL     1       5.143   4.105  15.667  0.00  0.00    +0.000 A 
ATOM      6  C   UNL     1       4.398   3.823  16.827  0.00  0.00    +0.000 A 
ENDROOT
BRANCH   1   9
ATOM      7  O   UNL     1       1.184   3.965  17.772  0.00  0.00    +0.000 OA
ATOM      8  C   UNL     1       1.856   4.136  18.791  0.00  0.00    +0.000 C 
ATOM      9  N   UNL     1       3.193   4.517  18.792  0.00  0.00    +0.000 N 
ATOM     10  H   UNL     1       3.682   4.489  19.679  0.00  0.00    +0.000 HD
BRANCH   8  11
ATOM     11  C   UNL     1       1.262   3.904  20.196  0.00  0.00    +0.000 C 
ATOM     12  C   UNL     1       1.278   2.446  20.715  0.00  0.00    +0.000 C 
ATOM     13  N   UNL     1       1.593   2.982  22.060  0.00  0.00    +0.000 NA
ATOM     14  C   UNL     1       2.194   4.166  21.404  0.00  0.00    +0.000 C 
ATOM     15  H   UNL     1       2.253   2.416  22.593  0.00  0.00    +0.000 HD
ENDBRANCH   8  11
ENDBRANCH   1   9
BRANCH   4  16
ATOM     16  O   UNL     1       6.195   5.817  14.269  0.00  0.00    +0.000 OA
BRANCH  16  17
ATOM     17  C   UNL     1       7.216   4.981  13.742  0.00  0.00    +0.000 C 
ATOM     18  F   UNL     1       6.765   3.920  13.041  0.00  0.00    +0.000 F 
ATOM     19  F   UNL     1       8.014   5.718  12.940  0.00  0.00    +0.000 F 
ATOM     20  F   UNL     1       7.967   4.516  14.766  0.00  0.00    +0.000 F 
ENDBRANCH  16  17
ENDBRANCH   4  16
TORSDOF 4
ENDMDL
MODEL 2
REMARK VINA RESULT:      -6.8      0.174      1.142
REMARK  Name = 
REMARK  4 active torsions:
REMARK  status: ('A' for Active; 'I' for Inactive)
REMARK    1  A    between atoms: C_2  and  C_15
REMARK    2  A    between atoms: N_3  and  C_4
REMARK    3  A    between atoms: C_7  and  O_8
REMARK    4  A    between atoms: O_8  and  C_9
REMARK                            x       y       z     vdW  Elec       q    Type
REMARK                         _______ _______ _______ _____ _____    ______ ____
ROOT
ATOM      1  C   UNL     1       3.925   4.764  17.653  0.00  0.00    +0.000 A 
ATOM      2  C   UNL     1       4.352   3.840  16.698  0.00  0.00    +0.000 A 
ATOM      3  C   UNL     1       5.099   4.252  15.594  0.00  0.00    +0.000 A 
ATOM      4  C   UNL     1       5.426   5.595  15.416  0.00  0.00    +0.000 A 
ATOM      5  C   UNL     1       5.032   6.521  16.379  0.00  0.00    +0.000 A 
ATOM      6  C   UNL     1       4.257   6.112  17.479  0.00  0.00    +0.000 A 
ENDROOT
BRANCH   1   9
ATOM      7  O   UNL     1       1.122   3.963  17.795  0.00  0.00    +0.000 OA
ATOM      8  C   UNL     1       1.821   4.076  18.805  0.00  0.00    +0.000 C 
ATOM      9  N   UNL     1       3.169   4.410  18.790  0.00  0.00    +0.000 N 
ATOM     10  H   UNL     1       3.675   4.334  19.664  0.00  0.00    +0.000 HD
BRANCH   8  11
ATOM     11  C   UNL     1       1.247   3.817  20.213  0.00  0.00    +0.000 C 
ATOM     12  C   UNL     1       1.408   2.379  20.765  0.00  0.00    +0.000 C 
ATOM     13  N   UNL     1       1.661   2.973  22.098  0.00  0.00    +0.000 NA
ATOM     14  C   UNL     1       2.142   4.198  21.416  0.00  0.00    +0.000 C 
ATOM     15  H   UNL     1       2.373   2.490  22.645  0.00  0.00    +0.000 HD
ENDBRANCH   8  11
ENDBRANCH   1   9
BRANCH   4  16
ATOM     16  O   UNL     1       6.198   5.859  14.329  0.00  0.00    +0.000 OA
BRANCH  16  17
ATOM     17  C   UNL     1       7.208   4.934  13.951  0.00  0.00    +0.000 C 
ATOM     18  F   UNL     1       6.759   3.862  13.266  0.00  0.00    +0.000 F 
ATOM     19  F   UNL     1       8.125   5.575  13.194  0.00  0.00    +0.000 F 
ATOM     20  F   UNL     1       7.826   4.486  15.067  0.00  0.00    +0.000 F 
ENDBRANCH  16  17
ENDBRANCH   4  16
TORSDOF 4
ENDMDL
MODEL 3
REMARK VINA RESULT:      -6.6      1.441      1.551
REMARK  Name = 
REMARK  4 active torsions:
REMARK  status: ('A' for Active; 'I' for Inactive)
REMARK    1  A    between atoms: C_2  and  C_15
REMARK    2  A    between atoms: N_3  and  C_4
REMARK    3  A    between atoms: C_7  and  O_8
REMARK    4  A    between atoms: O_8  and  C_9
REMARK                            x       y       z     vdW  Elec       q    Type
REMARK                         _______ _______ _______ _____ _____    ______ ____
ROOT
ATOM      1  C   UNL     1       4.742   4.099  18.364  0.00  0.00    +0.000 A 
ATOM      2  C   UNL     1       5.977   4.704  18.601  0.00  0.00    +0.000 A 
ATOM      3  C   UNL     1       6.901   4.864  17.568  0.00  0.00    +0.000 A 
ATOM      4  C   UNL     1       6.615   4.416  16.281  0.00  0.00    +0.000 A 
ATOM      5  C   UNL     1       5.374   3.839  16.025  0.00  0.00    +0.000 A 
ATOM      6  C   UNL     1       4.451   3.652  17.071  0.00  0.00    +0.000 A 
ENDROOT
BRANCH   1   9
ATOM      7  O   UNL     1       2.373   5.711  18.920  0.00  0.00    +0.000 OA
ATOM      8  C   UNL     1       2.676   4.736  19.611  0.00  0.00    +0.000 C 
ATOM      9  N   UNL     1       3.766   3.910  19.364  0.00  0.00    +0.000 N 
ATOM     10  H   UNL     1       3.836   3.059  19.910  0.00  0.00    +0.000 HD
BRANCH   8  11
ATOM     11  C   UNL     1       1.827   4.317  20.830  0.00  0.00    +0.000 C 
ATOM     12  C   UNL     1       0.771   3.212  20.582  0.00  0.00    +0.000 C 
ATOM     13  N   UNL     1       1.100   2.669  21.920  0.00  0.00    +0.000 NA
ATOM     14  C   UNL     1       2.446   3.275  21.791  0.00  0.00    +0.000 C 
ATOM     15  H   UNL     1       1.101   1.650  21.970  0.00  0.00    +0.000 HD
ENDBRANCH   8  11
ENDBRANCH   1   9
BRANCH   4  16
ATOM     16  O   UNL     1       7.576   4.675  15.356  0.00  0.00    +0.000 OA
BRANCH  16  17
ATOM     17  C   UNL     1       7.199   4.901  14.004  0.00  0.00    +0.000 C 
ATOM     18  F   UNL     1       6.894   3.783  13.313  0.00  0.00    +0.000 F 
ATOM     19  F   UNL     1       6.130   5.726  13.982  0.00  0.00    +0.000 F 
ATOM     20  F   UNL     1       8.219   5.520  13.367  0.00  0.00    +0.000 F 
ENDBRANCH  16  17
ENDBRANCH   4  16
TORSDOF 4
ENDMDL
MODEL 4
REMARK VINA RESULT:      -6.6      1.442      1.743
REMARK  Name = 
REMARK  4 active torsions:
REMARK  status: ('A' for Active; 'I' for Inactive)
REMARK    1  A    between atoms: C_2  and  C_15
REMARK    2  A    between atoms: N_3  and  C_4
REMARK    3  A    between atoms: C_7  and  O_8
REMARK    4  A    between atoms: O_8  and  C_9
REMARK                            x       y       z     vdW  Elec       q    Type
REMARK                         _______ _______ _______ _____ _____    ______ ____
ROOT
ATOM      1  C   UNL     1       4.593   4.058  18.288  0.00  0.00    +0.000 A 
ATOM      2  C   UNL     1       4.429   3.678  16.956  0.00  0.00    +0.000 A 
ATOM      3  C   UNL     1       5.447   3.889  16.025  0.00  0.00    +0.000 A 
ATOM      4  C   UNL     1       6.644   4.491  16.404  0.00  0.00    +0.000 A 
ATOM      5  C   UNL     1       6.832   4.847  17.737  0.00  0.00    +0.000 A 
ATOM      6  C   UNL     1       5.797   4.659  18.671  0.00  0.00    +0.000 A 
ENDROOT
BRANCH   1   9
ATOM      7  O   UNL     1       2.304   5.759  18.911  0.00  0.00    +0.000 OA
ATOM      8  C   UNL     1       2.554   4.739  19.557  0.00  0.00    +0.000 C 
ATOM      9  N   UNL     1       3.603   3.872  19.275  0.00  0.00    +0.000 N 
ATOM     10  H   UNL     1       3.627   2.994  19.781  0.00  0.00    +0.000 HD
BRANCH   8  11
ATOM     11  C   UNL     1       1.678   4.308  20.751  0.00  0.00    +0.000 C 
ATOM     12  C   UNL     1       0.796   3.054  20.536  0.00  0.00    +0.000 C 
ATOM     13  N   UNL     1       1.092   2.668  21.936  0.00  0.00    +0.000 NA
ATOM     14  C   UNL     1       2.354   3.439  21.839  0.00  0.00    +0.000 C 
ATOM     15  H   UNL     1       1.221   1.666  22.076  0.00  0.00    +0.000 HD
ENDBRANCH   8  11
ENDBRANCH   1   9
BRANCH   4  16
ATOM     16  O   UNL     1       7.573   4.594  15.417  0.00  0.00    +0.000 OA
BRANCH  16  17
ATOM     17  C   UNL     1       7.150   4.867  14.088  0.00  0.00    +0.000 C 
ATOM     18  F   UNL     1       6.784   3.779  13.381  0.00  0.00    +0.000 F 
ATOM     19  F   UNL     1       6.106   5.723  14.130  0.00  0.00    +0.000 F 
ATOM     20  F   UNL     1       8.162   5.473  13.427  0.00  0.00    +0.000 F 
ENDBRANCH  16  17
ENDBRANCH   4  16
TORSDOF 4
ENDMDL
MODEL 5
REMARK VINA RESULT:      -6.6      4.511      7.374
REMARK  Name = 
REMARK  4 active torsions:
REMARK  status: ('A' for Active; 'I' for Inactive)
REMARK    1  A    between atoms: C_2  and  C_15
REMARK    2  A    between atoms: N_3  and  C_4
REMARK    3  A    between atoms: C_7  and  O_8
REMARK    4  A    between atoms: O_8  and  C_9
REMARK                            x       y       z     vdW  Elec       q    Type
REMARK                         _______ _______ _______ _____ _____    ______ ____
ROOT
ATOM      1  C   UNL     1       5.028   3.976  17.086  0.00  0.00    +0.000 A 
ATOM      2  C   UNL     1       5.560   4.384  18.310  0.00  0.00    +0.000 A 
ATOM      3  C   UNL     1       4.728   4.612  19.407  0.00  0.00    +0.000 A 
ATOM      4  C   UNL     1       3.349   4.446  19.301  0.00  0.00    +0.000 A 
ATOM      5  C   UNL     1       2.810   4.010  18.094  0.00  0.00    +0.000 A 
ATOM      6  C   UNL     1       3.643   3.805  16.980  0.00  0.00    +0.000 A 
ENDROOT
BRANCH   1   9
ATOM      7  O   UNL     1       5.932   5.870  15.059  0.00  0.00    +0.000 OA
ATOM      8  C   UNL     1       6.183   4.665  14.984  0.00  0.00    +0.000 C 
ATOM      9  N   UNL     1       5.815   3.728  15.942  0.00  0.00    +0.000 N 
ATOM     10  H   UNL     1       6.196   2.794  15.848  0.00  0.00    +0.000 HD
BRANCH   8  11
ATOM     11  C   UNL     1       6.978   4.080  13.798  0.00  0.00    +0.000 C 
ATOM     12  C   UNL     1       6.142   3.549  12.608  0.00  0.00    +0.000 C 
ATOM     13  N   UNL     1       7.178   4.096  11.702  0.00  0.00    +0.000 NA
ATOM     14  C   UNL     1       7.518   5.085  12.752  0.00  0.00    +0.000 C 
ATOM     15  H   UNL     1       6.810   4.505  10.843  0.00  0.00    +0.000 HD
ENDBRANCH   8  11
ENDBRANCH   1   9
BRANCH   4  16
ATOM     16  O   UNL     1       2.657   4.651  20.453  0.00  0.00    +0.000 OA
BRANCH  16  17
ATOM     17  C   UNL     1       1.999   3.556  21.075  0.00  0.00    +0.000 C 
ATOM     18  F   UNL     1       2.406   2.343  20.648  0.00  0.00    +0.000 F 
ATOM     19  F   UNL     1       2.195   3.631  22.409  0.00  0.00    +0.000 F 
ATOM     20  F   UNL     1       0.672   3.657  20.840  0.00  0.00    +0.000 F 
ENDBRANCH  16  17
ENDBRANCH   4  16
TORSDOF 4
ENDMDL
MODEL 6
REMARK VINA RESULT:      -6.5      6.101      7.116
REMARK  Name = 
REMARK  4 active torsions:
REMARK  status: ('A' for Active; 'I' for Inactive)
REMARK    1  A    between atoms: C_2  and  C_15
REMARK    2  A    between atoms: N_3  and  C_4
REMARK    3  A    between atoms: C_7  and  O_8
REMARK    4  A    between atoms: O_8  and  C_9
REMARK                            x       y       z     vdW  Elec       q    Type
REMARK                         _______ _______ _______ _____ _____    ______ ____
ROOT
ATOM      1  C   UNL     1       2.526   7.307  18.827  0.00  0.00    +0.000 A 
ATOM      2  C   UNL     1       2.431   8.212  17.769  0.00  0.00    +0.000 A 
ATOM      3  C   UNL     1       1.723   9.406  17.915  0.00  0.00    +0.000 A 
ATOM      4  C   UNL     1       1.090   9.715  19.116  0.00  0.00    +0.000 A 
ATOM      5  C   UNL     1       1.204   8.835  20.189  0.00  0.00    +0.000 A 
ATOM      6  C   UNL     1       1.894   7.619  20.036  0.00  0.00    +0.000 A 
ENDROOT
BRANCH   1   9
ATOM      7  O   UNL     1       1.636   4.778  17.674  0.00  0.00    +0.000 OA
ATOM      8  C   UNL     1       2.737   4.896  18.218  0.00  0.00    +0.000 C 
ATOM      9  N   UNL     1       3.227   6.086  18.742  0.00  0.00    +0.000 N 
ATOM     10  H   UNL     1       4.196   6.099  19.036  0.00  0.00    +0.000 HD
BRANCH   8  11
ATOM     11  C   UNL     1       3.707   3.703  18.338  0.00  0.00    +0.000 C 
ATOM     12  C   UNL     1       5.138   4.030  18.829  0.00  0.00    +0.000 C 
ATOM     13  N   UNL     1       5.111   2.763  19.595  0.00  0.00    +0.000 NA
ATOM     14  C   UNL     1       3.634   2.868  19.639  0.00  0.00    +0.000 C 
ATOM     15  H   UNL     1       5.563   2.815  20.508  0.00  0.00    +0.000 HD
ENDBRANCH   8  11
ENDBRANCH   1   9
BRANCH   4  16
ATOM     16  O   UNL     1       0.477  10.928  19.146  0.00  0.00    +0.000 OA
BRANCH  16  17
ATOM     17  C   UNL     1      -0.926  11.005  18.935  0.00  0.00    +0.000 C 
ATOM     18  F   UNL     1      -1.482   9.877  18.447  0.00  0.00    +0.000 F 
ATOM     19  F   UNL     1      -1.527  11.310  20.105  0.00  0.00    +0.000 F 
ATOM     20  F   UNL     1      -1.178  12.006  18.061  0.00  0.00    +0.000 F 
ENDBRANCH  16  17
ENDBRANCH   4  16
TORSDOF 4
ENDMDL
MODEL 7
REMARK VINA RESULT:      -6.5      4.519      7.408
REMARK  Name = 
REMARK  4 active torsions:
REMARK  status: ('A' for Active; 'I' for Inactive)
REMARK    1  A    between atoms: C_2  and  C_15
REMARK    2  A    between atoms: N_3  and  C_4
REMARK    3  A    between atoms: C_7  and  O_8
REMARK    4  A    between atoms: O_8  and  C_9
REMARK                            x       y       z     vdW  Elec       q    Type
REMARK                         _______ _______ _______ _____ _____    ______ ____
ROOT
ATOM      1  C   UNL     1       4.998   3.943  17.067  0.00  0.00    +0.000 A 
ATOM      2  C   UNL     1       3.616   3.749  17.067  0.00  0.00    +0.000 A 
ATOM      3  C   UNL     1       2.865   3.987  18.218  0.00  0.00    +0.000 A 
ATOM      4  C   UNL     1       3.478   4.412  19.394  0.00  0.00    +0.000 A 
ATOM      5  C   UNL     1       4.852   4.638  19.398  0.00  0.00    +0.000 A 
ATOM      6  C   UNL     1       5.616   4.374  18.246  0.00  0.00    +0.000 A 
ENDROOT
BRANCH   1   9
ATOM      7  O   UNL     1       5.749   5.830  14.971  0.00  0.00    +0.000 OA
ATOM      8  C   UNL     1       6.104   4.650  14.944  0.00  0.00    +0.000 C 
ATOM      9  N   UNL     1       5.812   3.722  15.937  0.00  0.00    +0.000 N 
ATOM     10  H   UNL     1       6.274   2.822  15.880  0.00  0.00    +0.000 HD
BRANCH   8  11
ATOM     11  C   UNL     1       6.956   4.092  13.785  0.00  0.00    +0.000 C 
ATOM     12  C   UNL     1       6.181   3.602  12.539  0.00  0.00    +0.000 C 
ATOM     13  N   UNL     1       7.266   4.166  11.703  0.00  0.00    +0.000 NA
ATOM     14  C   UNL     1       7.557   5.121  12.798  0.00  0.00    +0.000 C 
ATOM     15  H   UNL     1       6.947   4.602  10.839  0.00  0.00    +0.000 HD
ENDBRANCH   8  11
ENDBRANCH   1   9
BRANCH   4  16
ATOM     16  O   UNL     1       2.630   4.655  20.428  0.00  0.00    +0.000 OA
BRANCH  16  17
ATOM     17  C   UNL     1       1.988   3.564  21.074  0.00  0.00    +0.000 C 
ATOM     18  F   UNL     1       2.415   2.348  20.676  0.00  0.00    +0.000 F 
ATOM     19  F   UNL     1       2.180   3.672  22.406  0.00  0.00    +0.000 F 
ATOM     20  F   UNL     1       0.660   3.639  20.833  0.00  0.00    +0.000 F 
ENDBRANCH  16  17
ENDBRANCH   4  16
TORSDOF 4
ENDMDL
MODEL 8
REMARK VINA RESULT:      -6.5      6.157      7.219
REMARK  Name = 
REMARK  4 active torsions:
REMARK  status: ('A' for Active; 'I' for Inactive)
REMARK    1  A    between atoms: C_2  and  C_15
REMARK    2  A    between atoms: N_3  and  C_4
REMARK    3  A    between atoms: C_7  and  O_8
REMARK    4  A    between atoms: O_8  and  C_9
REMARK                            x       y       z     vdW  Elec       q    Type
REMARK                         _______ _______ _______ _____ _____    ______ ____
ROOT
ATOM      1  C   UNL     1       2.436   7.427  18.963  0.00  0.00    +0.000 A 
ATOM      2  C   UNL     1       1.820   7.765  20.169  0.00  0.00    +0.000 A 
ATOM      3  C   UNL     1       1.085   8.946  20.287  0.00  0.00    +0.000 A 
ATOM      4  C   UNL     1       0.959   9.816  19.207  0.00  0.00    +0.000 A 
ATOM      5  C   UNL     1       1.544   9.475  17.990  0.00  0.00    +0.000 A 
ATOM      6  C   UNL     1       2.307   8.299  17.876  0.00  0.00    +0.000 A 
ENDROOT
BRANCH   1   9
ATOM      7  O   UNL     1       1.610   4.914  17.730  0.00  0.00    +0.000 OA
ATOM      8  C   UNL     1       2.731   5.063  18.222  0.00  0.00    +0.000 C 
ATOM      9  N   UNL     1       3.189   6.249  18.781  0.00  0.00    +0.000 N 
ATOM     10  H   UNL     1       4.172   6.298  19.024  0.00  0.00    +0.000 HD
BRANCH   8  11
ATOM     11  C   UNL     1       3.764   3.916  18.232  0.00  0.00    +0.000 C 
ATOM     12  C   UNL     1       5.141   4.240  18.860  0.00  0.00    +0.000 C 
ATOM     13  N   UNL     1       5.146   2.873  19.429  0.00  0.00    +0.000 NA
ATOM     14  C   UNL     1       3.665   2.894  19.389  0.00  0.00    +0.000 C 
ATOM     15  H   UNL     1       5.540   2.811  20.368  0.00  0.00    +0.000 HD
ENDBRANCH   8  11
ENDBRANCH   1   9
BRANCH   4  16
ATOM     16  O   UNL     1       0.179  10.905  19.435  0.00  0.00    +0.000 OA
BRANCH  16  17
ATOM     17  C   UNL     1      -1.132  10.950  18.888  0.00  0.00    +0.000 C 
ATOM     18  F   UNL     1      -1.620   9.753  18.504  0.00  0.00    +0.000 F 
ATOM     19  F   UNL     1      -1.969  11.482  19.805  0.00  0.00    +0.000 F 
ATOM     20  F   UNL     1      -1.123  11.763  17.808  0.00  0.00    +0.000 F 
ENDBRANCH  16  17
ENDBRANCH   4  16
TORSDOF 4
ENDMDL
MODEL 9
REMARK VINA RESULT:      -6.5      0.948      1.639
REMARK  Name = 
REMARK  4 active torsions:
REMARK  status: ('A' for Active; 'I' for Inactive)
REMARK    1  A    between atoms: C_2  and  C_15
REMARK    2  A    between atoms: N_3  and  C_4
REMARK    3  A    between atoms: C_7  and  O_8
REMARK    4  A    between atoms: O_8  and  C_9
REMARK                            x       y       z     vdW  Elec       q    Type
REMARK                         _______ _______ _______ _____ _____    ______ ____
ROOT
ATOM      1  C   UNL     1       4.313   4.542  17.398  0.00  0.00    +0.000 A 
ATOM      2  C   UNL     1       4.982   3.482  16.786  0.00  0.00    +0.000 A 
ATOM      3  C   UNL     1       5.786   3.699  15.667  0.00  0.00    +0.000 A 
ATOM      4  C   UNL     1       5.932   4.976  15.131  0.00  0.00    +0.000 A 
ATOM      5  C   UNL     1       5.294   6.047  15.751  0.00  0.00    +0.000 A 
ATOM      6  C   UNL     1       4.461   5.827  16.864  0.00  0.00    +0.000 A 
ENDROOT
BRANCH   1   9
ATOM      7  O   UNL     1       1.496   3.788  17.503  0.00  0.00    +0.000 OA
ATOM      8  C   UNL     1       2.135   4.066  18.520  0.00  0.00    +0.000 C 
ATOM      9  N   UNL     1       3.487   4.388  18.531  0.00  0.00    +0.000 N 
ATOM     10  H   UNL     1       3.940   4.459  19.434  0.00  0.00    +0.000 HD
BRANCH   8  11
ATOM     11  C   UNL     1       1.476   4.050  19.915  0.00  0.00    +0.000 C 
ATOM     12  C   UNL     1       1.355   2.667  20.600  0.00  0.00    +0.000 C 
ATOM     13  N   UNL     1       1.667   3.333  21.886  0.00  0.00    +0.000 NA
ATOM     14  C   UNL     1       2.385   4.381  21.123  0.00  0.00    +0.000 C 
ATOM     15  H   UNL     1       2.260   2.785  22.509  0.00  0.00    +0.000 HD
ENDBRANCH   8  11
ENDBRANCH   1   9
BRANCH   4  16
ATOM     16  O   UNL     1       6.780   5.062  14.073  0.00  0.00    +0.000 OA
BRANCH  16  17
ATOM     17  C   UNL     1       6.539   4.268  12.920  0.00  0.00    +0.000 C 
ATOM     18  F   UNL     1       6.917   2.978  13.038  0.00  0.00    +0.000 F 
ATOM     19  F   UNL     1       5.220   4.305  12.633  0.00  0.00    +0.000 F 
ATOM     20  F   UNL     1       7.210   4.804  11.876  0.00  0.00    +0.000 F 
ENDBRANCH  16  17
ENDBRANCH   4  16
TORSDOF 4
ENDMDL
