MODEL 1
REMARK VINA RESULT:      -8.5      0.000      0.000
REMARK  Name = 
REMARK  6 active torsions:
REMARK  status: ('A' for Active; 'I' for Inactive)
REMARK    1  A    between atoms: C_1  and  C_2
REMARK    2  A    between atoms: C_2  and  C_3
REMARK    3  A    between atoms: C_10  and  C_11
REMARK    4  A    between atoms: C_14  and  C_15
REMARK    5  A    between atoms: C_15  and  C_16
REMARK    6  A    between atoms: C_24  and  O_25
REMARK                            x       y       z     vdW  Elec       q    Type
REMARK                         _______ _______ _______ _____ _____    ______ ____
ROOT
ATOM      1  C   UNL     1       2.455   2.821  21.246  0.00  0.00    +0.000 C 
ATOM      2  C   UNL     1       2.037   2.900  19.770  0.00  0.00    +0.000 C 
ATOM      3  C   UNL     1       0.505   2.948  19.694  0.00  0.00    +0.000 C 
ATOM      4  O   UNL     1       2.415   1.687  19.112  0.00  0.00    +0.000 OA
ATOM      5  C   UNL     1       3.805   1.635  18.806  0.00  0.00    +0.000 C 
ATOM      6  C   UNL     1       4.164   2.760  17.859  0.00  0.00    +0.000 C 
ATOM      7  N   UNL     1       3.722   4.068  18.320  0.00  0.00    +0.000 N 
ATOM      8  C   UNL     1       2.624   4.201  19.143  0.00  0.00    +0.000 A 
ATOM      9  N   UNL     1       2.108   5.349  19.455  0.00  0.00    +0.000 NA
ATOM     10  C   UNL     1       2.632   6.479  18.872  0.00  0.00    +0.000 A 
ATOM     11  C   UNL     1       3.665   6.480  18.003  0.00  0.00    +0.000 A 
ATOM     12  C   UNL     1       4.272   5.164  17.683  0.00  0.00    +0.000 A 
ATOM     13  O   UNL     1       5.189   5.073  16.864  0.00  0.00    +0.000 OA
ENDROOT
BRANCH  10  14
ATOM     14  C   UNL     1       2.003   7.743  19.185  0.00  0.00    +0.000 A 
ATOM     15  N   UNL     1       1.647   8.121  20.410  0.00  0.00    +0.000 NA
ATOM     16  C   UNL     1       1.053   9.363  20.397  0.00  0.00    +0.000 A 
ATOM     17  C   UNL     1       0.935   9.953  19.161  0.00  0.00    +0.000 A 
ATOM     18  S   UNL     1       1.611   8.922  17.970  0.00  0.00    +0.000 S 
BRANCH  17  19
ATOM     19  C   UNL     1       0.290  11.254  18.807  0.00  0.00    +0.000 C 
BRANCH  19  20
ATOM     20  C   UNL     1      -1.178  11.138  18.462  0.00  0.00    +0.000 A 
ATOM     21  C   UNL     1      -1.619  10.148  17.568  0.00  0.00    +0.000 A 
ATOM     22  C   UNL     1      -2.980   9.994  17.300  0.00  0.00    +0.000 A 
ATOM     23  C   UNL     1      -3.899  10.833  17.918  0.00  0.00    +0.000 A 
ATOM     24  F   UNL     1      -5.207  10.665  17.682  0.00  0.00    +0.000 F 
ATOM     25  C   UNL     1      -3.483  11.838  18.782  0.00  0.00    +0.000 A 
ATOM     26  C   UNL     1      -2.122  11.997  19.049  0.00  0.00    +0.000 A 
ENDBRANCH  19  20
ENDBRANCH  17  19
ENDBRANCH  10  14
BRANCH  11  27
ATOM     27  O   UNL     1       4.177   7.599  17.360  0.00  0.00    +0.000 OA
ATOM     28  H   UNL     1       5.156   7.512  17.342  0.00  0.00    +0.000 HD
ENDBRANCH  11  27
TORSDOF 4
ENDMDL
MODEL 2
REMARK VINA RESULT:      -8.4      1.032      1.462
REMARK  Name = 
REMARK  6 active torsions:
REMARK  status: ('A' for Active; 'I' for Inactive)
REMARK    1  A    between atoms: C_1  and  C_2
REMARK    2  A    between atoms: C_2  and  C_3
REMARK    3  A    between atoms: C_10  and  C_11
REMARK    4  A    between atoms: C_14  and  C_15
REMARK    5  A    between atoms: C_15  and  C_16
REMARK    6  A    between atoms: C_24  and  O_25
REMARK                            x       y       z     vdW  Elec       q    Type
REMARK                         _______ _______ _______ _____ _____    ______ ____
ROOT
ATOM      1  C   UNL     1       2.443   3.103  21.238  0.00  0.00    +0.000 C 
ATOM      2  C   UNL     1       2.030   2.969  19.765  0.00  0.00    +0.000 C 
ATOM      3  C   UNL     1       0.506   3.118  19.666  0.00  0.00    +0.000 C 
ATOM      4  O   UNL     1       2.314   1.639  19.320  0.00  0.00    +0.000 OA
ATOM      5  C   UNL     1       3.695   1.433  19.042  0.00  0.00    +0.000 C 
ATOM      6  C   UNL     1       4.137   2.356  17.926  0.00  0.00    +0.000 C 
ATOM      7  N   UNL     1       3.795   3.752  18.161  0.00  0.00    +0.000 N 
ATOM      8  C   UNL     1       2.713   4.101  18.939  0.00  0.00    +0.000 A 
ATOM      9  N   UNL     1       2.285   5.320  19.051  0.00  0.00    +0.000 NA
ATOM     10  C   UNL     1       2.892   6.295  18.296  0.00  0.00    +0.000 A 
ATOM     11  C   UNL     1       3.921   6.075  17.450  0.00  0.00    +0.000 A 
ATOM     12  C   UNL     1       4.426   4.683  17.358  0.00  0.00    +0.000 A 
ATOM     13  O   UNL     1       5.332   4.390  16.575  0.00  0.00    +0.000 OA
ENDROOT
BRANCH  10  14
ATOM     14  C   UNL     1       2.361   7.637  18.390  0.00  0.00    +0.000 A 
ATOM     15  N   UNL     1       2.514   8.572  17.456  0.00  0.00    +0.000 NA
ATOM     16  C   UNL     1       1.917   9.755  17.830  0.00  0.00    +0.000 A 
ATOM     17  C   UNL     1       1.304   9.749  19.061  0.00  0.00    +0.000 A 
ATOM     18  S   UNL     1       1.465   8.196  19.770  0.00  0.00    +0.000 S 
BRANCH  17  19
ATOM     19  C   UNL     1       0.630  10.877  19.772  0.00  0.00    +0.000 C 
BRANCH  19  20
ATOM     20  C   UNL     1      -0.814  11.081  19.372  0.00  0.00    +0.000 A 
ATOM     21  C   UNL     1      -1.611  12.017  20.052  0.00  0.00    +0.000 A 
ATOM     22  C   UNL     1      -2.923  12.256  19.642  0.00  0.00    +0.000 A 
ATOM     23  C   UNL     1      -3.442  11.556  18.561  0.00  0.00    +0.000 A 
ATOM     24  F   UNL     1      -4.693  11.807  18.151  0.00  0.00    +0.000 F 
ATOM     25  C   UNL     1      -2.682  10.604  17.893  0.00  0.00    +0.000 A 
ATOM     26  C   UNL     1      -1.370  10.359  18.304  0.00  0.00    +0.000 A 
ENDBRANCH  19  20
ENDBRANCH  17  19
ENDBRANCH  10  14
BRANCH  11  27
ATOM     27  O   UNL     1       4.515   7.031  16.637  0.00  0.00    +0.000 OA
ATOM     28  H   UNL     1       3.864   7.282  15.945  0.00  0.00    +0.000 HD
ENDBRANCH  11  27
TORSDOF 4
ENDMDL
MODEL 3
REMARK VINA RESULT:      -8.3      1.563      3.288
REMARK  Name = 
REMARK  6 active torsions:
REMARK  status: ('A' for Active; 'I' for Inactive)
REMARK    1  A    between atoms: C_1  and  C_2
REMARK    2  A    between atoms: C_2  and  C_3
REMARK    3  A    between atoms: C_10  and  C_11
REMARK    4  A    between atoms: C_14  and  C_15
REMARK    5  A    between atoms: C_15  and  C_16
REMARK    6  A    between atoms: C_24  and  O_25
REMARK                            x       y       z     vdW  Elec       q    Type
REMARK                         _______ _______ _______ _____ _____    ______ ____
ROOT
ATOM      1  C   UNL     1       5.219   6.443  15.365  0.00  0.00    +0.000 C 
ATOM      2  C   UNL     1       5.740   6.258  16.799  0.00  0.00    +0.000 C 
ATOM      3  C   UNL     1       6.516   7.518  17.206  0.00  0.00    +0.000 C 
ATOM      4  O   UNL     1       6.698   5.196  16.814  0.00  0.00    +0.000 OA
ATOM      5  C   UNL     1       6.094   3.907  16.775  0.00  0.00    +0.000 C 
ATOM      6  C   UNL     1       5.224   3.710  17.999  0.00  0.00    +0.000 C 
ATOM      7  N   UNL     1       4.271   4.791  18.210  0.00  0.00    +0.000 N 
ATOM      8  C   UNL     1       4.528   6.068  17.761  0.00  0.00    +0.000 A 
ATOM      9  N   UNL     1       3.781   7.086  18.056  0.00  0.00    +0.000 NA
ATOM     10  C   UNL     1       2.731   6.894  18.923  0.00  0.00    +0.000 A 
ATOM     11  C   UNL     1       2.410   5.708  19.480  0.00  0.00    +0.000 A 
ATOM     12  C   UNL     1       3.248   4.542  19.106  0.00  0.00    +0.000 A 
ATOM     13  O   UNL     1       3.050   3.433  19.606  0.00  0.00    +0.000 OA
ENDROOT
BRANCH  10  14
ATOM     14  C   UNL     1       1.948   8.054  19.287  0.00  0.00    +0.000 A 
ATOM     15  N   UNL     1       1.459   8.278  20.504  0.00  0.00    +0.000 NA
ATOM     16  C   UNL     1       0.739   9.451  20.546  0.00  0.00    +0.000 A 
ATOM     17  C   UNL     1       0.657  10.141  19.359  0.00  0.00    +0.000 A 
ATOM     18  S   UNL     1       1.530   9.299  18.148  0.00  0.00    +0.000 S 
BRANCH  17  19
ATOM     19  C   UNL     1      -0.094  11.398  19.064  0.00  0.00    +0.000 C 
BRANCH  19  20
ATOM     20  C   UNL     1      -1.546  11.178  18.706  0.00  0.00    +0.000 A 
ATOM     21  C   UNL     1      -2.536  12.046  19.197  0.00  0.00    +0.000 A 
ATOM     22  C   UNL     1      -3.868  11.886  18.813  0.00  0.00    +0.000 A 
ATOM     23  C   UNL     1      -4.214  10.856  17.948  0.00  0.00    +0.000 A 
ATOM     24  F   UNL     1      -5.489  10.722  17.558  0.00  0.00    +0.000 F 
ATOM     25  C   UNL     1      -3.256   9.968  17.474  0.00  0.00    +0.000 A 
ATOM     26  C   UNL     1      -1.923  10.123  17.859  0.00  0.00    +0.000 A 
ENDBRANCH  19  20
ENDBRANCH  17  19
ENDBRANCH  10  14
BRANCH  11  27
ATOM     27  O   UNL     1       1.390   5.498  20.399  0.00  0.00    +0.000 OA
ATOM     28  H   UNL     1       0.577   5.267  19.896  0.00  0.00    +0.000 HD
ENDBRANCH  11  27
TORSDOF 4
ENDMDL
MODEL 4
REMARK VINA RESULT:      -8.3      4.217      8.761
REMARK  Name = 
REMARK  6 active torsions:
REMARK  status: ('A' for Active; 'I' for Inactive)
REMARK    1  A    between atoms: C_1  and  C_2
REMARK    2  A    between atoms: C_2  and  C_3
REMARK    3  A    between atoms: C_10  and  C_11
REMARK    4  A    between atoms: C_14  and  C_15
REMARK    5  A    between atoms: C_15  and  C_16
REMARK    6  A    between atoms: C_24  and  O_25
REMARK                            x       y       z     vdW  Elec       q    Type
REMARK                         _______ _______ _______ _____ _____    ______ ____
ROOT
ATOM      1  C   UNL     1      -1.842  12.003  23.188  0.00  0.00    +0.000 C 
ATOM      2  C   UNL     1      -1.478  12.927  22.015  0.00  0.00    +0.000 C 
ATOM      3  C   UNL     1      -0.060  13.468  22.238  0.00  0.00    +0.000 C 
ATOM      4  O   UNL     1      -2.334  14.073  22.042  0.00  0.00    +0.000 OA
ATOM      5  C   UNL     1      -3.637  13.801  21.536  0.00  0.00    +0.000 C 
ATOM      6  C   UNL     1      -3.546  13.373  20.087  0.00  0.00    +0.000 C 
ATOM      7  N   UNL     1      -2.600  12.290  19.862  0.00  0.00    +0.000 N 
ATOM      8  C   UNL     1      -1.514  12.107  20.690  0.00  0.00    +0.000 A 
ATOM      9  N   UNL     1      -0.569  11.254  20.442  0.00  0.00    +0.000 NA
ATOM     10  C   UNL     1      -0.615  10.559  19.256  0.00  0.00    +0.000 A 
ATOM     11  C   UNL     1      -1.590  10.690  18.332  0.00  0.00    +0.000 A 
ATOM     12  C   UNL     1      -2.685  11.641  18.644  0.00  0.00    +0.000 A 
ATOM     13  O   UNL     1      -3.589  11.854  17.833  0.00  0.00    +0.000 OA
ENDROOT
BRANCH  10  14
ATOM     14  C   UNL     1       0.479   9.657  18.970  0.00  0.00    +0.000 A 
ATOM     15  N   UNL     1       1.135   9.616  17.814  0.00  0.00    +0.000 NA
ATOM     16  C   UNL     1       2.112   8.646  17.827  0.00  0.00    +0.000 A 
ATOM     17  C   UNL     1       2.215   7.922  18.991  0.00  0.00    +0.000 A 
ATOM     18  S   UNL     1       1.057   8.489  20.120  0.00  0.00    +0.000 S 
BRANCH  17  19
ATOM     19  C   UNL     1       3.121   6.773  19.296  0.00  0.00    +0.000 C 
BRANCH  19  20
ATOM     20  C   UNL     1       2.470   5.417  19.135  0.00  0.00    +0.000 A 
ATOM     21  C   UNL     1       1.833   4.804  20.227  0.00  0.00    +0.000 A 
ATOM     22  C   UNL     1       1.173   3.585  20.064  0.00  0.00    +0.000 A 
ATOM     23  C   UNL     1       1.156   2.975  18.817  0.00  0.00    +0.000 A 
ATOM     24  F   UNL     1       0.497   1.820  18.656  0.00  0.00    +0.000 F 
ATOM     25  C   UNL     1       1.805   3.550  17.730  0.00  0.00    +0.000 A 
ATOM     26  C   UNL     1       2.470   4.767  17.891  0.00  0.00    +0.000 A 
ENDBRANCH  19  20
ENDBRANCH  17  19
ENDBRANCH  10  14
BRANCH  11  27
ATOM     27  O   UNL     1      -1.631  10.041  17.105  0.00  0.00    +0.000 OA
ATOM     28  H   UNL     1      -1.540  10.723  16.403  0.00  0.00    +0.000 HD
ENDBRANCH  11  27
TORSDOF 4
ENDMDL
MODEL 5
REMARK VINA RESULT:      -8.1      2.396      2.966
REMARK  Name = 
REMARK  6 active torsions:
REMARK  status: ('A' for Active; 'I' for Inactive)
REMARK    1  A    between atoms: C_1  and  C_2
REMARK    2  A    between atoms: C_2  and  C_3
REMARK    3  A    between atoms: C_10  and  C_11
REMARK    4  A    between atoms: C_14  and  C_15
REMARK    5  A    between atoms: C_15  and  C_16
REMARK    6  A    between atoms: C_24  and  O_25
REMARK                            x       y       z     vdW  Elec       q    Type
REMARK                         _______ _______ _______ _____ _____    ______ ____
ROOT
ATOM      1  C   UNL     1       2.379   2.972  21.219  0.00  0.00    +0.000 C 
ATOM      2  C   UNL     1       1.955   2.975  19.743  0.00  0.00    +0.000 C 
ATOM      3  C   UNL     1       0.425   3.066  19.670  0.00  0.00    +0.000 C 
ATOM      4  O   UNL     1       2.292   1.713  19.158  0.00  0.00    +0.000 OA
ATOM      5  C   UNL     1       3.677   1.600  18.851  0.00  0.00    +0.000 C 
ATOM      6  C   UNL     1       4.066   2.654  17.836  0.00  0.00    +0.000 C 
ATOM      7  N   UNL     1       3.666   4.000  18.219  0.00  0.00    +0.000 N 
ATOM      8  C   UNL     1       2.578   4.217  19.036  0.00  0.00    +0.000 A 
ATOM      9  N   UNL     1       2.099   5.397  19.279  0.00  0.00    +0.000 NA
ATOM     10  C   UNL     1       2.654   6.473  18.627  0.00  0.00    +0.000 A 
ATOM     11  C   UNL     1       3.682   6.389  17.756  0.00  0.00    +0.000 A 
ATOM     12  C   UNL     1       4.247   5.039  17.514  0.00  0.00    +0.000 A 
ATOM     13  O   UNL     1       5.155   4.870  16.699  0.00  0.00    +0.000 OA
ENDROOT
BRANCH  10  14
ATOM     14  C   UNL     1       2.066   7.772  18.866  0.00  0.00    +0.000 A 
ATOM     15  N   UNL     1       1.881   8.696  17.927  0.00  0.00    +0.000 NA
ATOM     16  C   UNL     1       1.320   9.839  18.453  0.00  0.00    +0.000 A 
ATOM     17  C   UNL     1       1.073   9.811  19.805  0.00  0.00    +0.000 A 
ATOM     18  S   UNL     1       1.545   8.291  20.441  0.00  0.00    +0.000 S 
BRANCH  17  19
ATOM     19  C   UNL     1       0.535  10.900  20.676  0.00  0.00    +0.000 C 
BRANCH  19  20
ATOM     20  C   UNL     1       0.691  12.287  20.093  0.00  0.00    +0.000 A 
ATOM     21  C   UNL     1       1.889  12.999  20.272  0.00  0.00    +0.000 A 
ATOM     22  C   UNL     1       2.062  14.251  19.679  0.00  0.00    +0.000 A 
ATOM     23  C   UNL     1       1.038  14.794  18.914  0.00  0.00    +0.000 A 
ATOM     24  F   UNL     1       1.216  15.982  18.321  0.00  0.00    +0.000 F 
ATOM     25  C   UNL     1      -0.166  14.120  18.748  0.00  0.00    +0.000 A 
ATOM     26  C   UNL     1      -0.343  12.870  19.344  0.00  0.00    +0.000 A 
ENDBRANCH  19  20
ENDBRANCH  17  19
ENDBRANCH  10  14
BRANCH  11  27
ATOM     27  O   UNL     1       4.224   7.451  17.045  0.00  0.00    +0.000 OA
ATOM     28  H   UNL     1       4.688   7.080  16.262  0.00  0.00    +0.000 HD
ENDBRANCH  11  27
TORSDOF 4
ENDMDL
MODEL 6
REMARK VINA RESULT:      -8.1      4.088      8.863
REMARK  Name = 
REMARK  6 active torsions:
REMARK  status: ('A' for Active; 'I' for Inactive)
REMARK    1  A    between atoms: C_1  and  C_2
REMARK    2  A    between atoms: C_2  and  C_3
REMARK    3  A    between atoms: C_10  and  C_11
REMARK    4  A    between atoms: C_14  and  C_15
REMARK    5  A    between atoms: C_15  and  C_16
REMARK    6  A    between atoms: C_24  and  O_25
REMARK                            x       y       z     vdW  Elec       q    Type
REMARK                         _______ _______ _______ _____ _____    ______ ____
ROOT
ATOM      1  C   UNL     1      -0.650  13.182  18.156  0.00  0.00    +0.000 C 
ATOM      2  C   UNL     1      -1.654  12.267  18.873  0.00  0.00    +0.000 C 
ATOM      3  C   UNL     1      -2.312  11.349  17.834  0.00  0.00    +0.000 C 
ATOM      4  O   UNL     1      -2.716  13.066  19.405  0.00  0.00    +0.000 OA
ATOM      5  C   UNL     1      -2.349  13.745  20.601  0.00  0.00    +0.000 C 
ATOM      6  C   UNL     1      -1.996  12.739  21.676  0.00  0.00    +0.000 C 
ATOM      7  N   UNL     1      -1.015  11.753  21.245  0.00  0.00    +0.000 N 
ATOM      8  C   UNL     1      -0.894  11.398  19.919  0.00  0.00    +0.000 A 
ATOM      9  N   UNL     1      -0.142  10.422  19.513  0.00  0.00    +0.000 NA
ATOM     10  C   UNL     1       0.501   9.658  20.459  0.00  0.00    +0.000 A 
ATOM     11  C   UNL     1       0.417   9.863  21.790  0.00  0.00    +0.000 A 
ATOM     12  C   UNL     1      -0.415  11.005  22.242  0.00  0.00    +0.000 A 
ATOM     13  O   UNL     1      -0.581  11.233  23.442  0.00  0.00    +0.000 OA
ENDROOT
BRANCH  10  14
ATOM     14  C   UNL     1       1.285   8.538  19.989  0.00  0.00    +0.000 A 
ATOM     15  N   UNL     1       1.539   7.446  20.705  0.00  0.00    +0.000 NA
ATOM     16  C   UNL     1       2.326   6.560  20.004  0.00  0.00    +0.000 A 
ATOM     17  C   UNL     1       2.697   6.963  18.743  0.00  0.00    +0.000 A 
ATOM     18  S   UNL     1       2.019   8.502  18.413  0.00  0.00    +0.000 S 
BRANCH  17  19
ATOM     19  C   UNL     1       3.589   6.266  17.767  0.00  0.00    +0.000 C 
BRANCH  19  20
ATOM     20  C   UNL     1       3.627   4.763  17.934  0.00  0.00    +0.000 A 
ATOM     21  C   UNL     1       4.656   4.160  18.676  0.00  0.00    +0.000 A 
ATOM     22  C   UNL     1       4.657   2.780  18.889  0.00  0.00    +0.000 A 
ATOM     23  C   UNL     1       3.637   2.004  18.355  0.00  0.00    +0.000 A 
ATOM     24  F   UNL     1       3.623   0.684  18.585  0.00  0.00    +0.000 F 
ATOM     25  C   UNL     1       2.626   2.576  17.593  0.00  0.00    +0.000 A 
ATOM     26  C   UNL     1       2.625   3.955  17.374  0.00  0.00    +0.000 A 
ENDBRANCH  19  20
ENDBRANCH  17  19
ENDBRANCH  10  14
BRANCH  11  27
ATOM     27  O   UNL     1       1.012   9.075  22.766  0.00  0.00    +0.000 OA
ATOM     28  H   UNL     1       0.374   8.370  23.012  0.00  0.00    +0.000 HD
ENDBRANCH  11  27
TORSDOF 4
ENDMDL
MODEL 7
REMARK VINA RESULT:      -8.1      4.182      8.833
REMARK  Name = 
REMARK  6 active torsions:
REMARK  status: ('A' for Active; 'I' for Inactive)
REMARK    1  A    between atoms: C_1  and  C_2
REMARK    2  A    between atoms: C_2  and  C_3
REMARK    3  A    between atoms: C_10  and  C_11
REMARK    4  A    between atoms: C_14  and  C_15
REMARK    5  A    between atoms: C_15  and  C_16
REMARK    6  A    between atoms: C_24  and  O_25
REMARK                            x       y       z     vdW  Elec       q    Type
REMARK                         _______ _______ _______ _____ _____    ______ ____
ROOT
ATOM      1  C   UNL     1      -0.678  12.882  18.199  0.00  0.00    +0.000 C 
ATOM      2  C   UNL     1      -1.519  11.785  18.869  0.00  0.00    +0.000 C 
ATOM      3  C   UNL     1      -2.158  10.918  17.775  0.00  0.00    +0.000 C 
ATOM      4  O   UNL     1      -2.613  12.394  19.561  0.00  0.00    +0.000 OA
ATOM      5  C   UNL     1      -2.226  12.976  20.802  0.00  0.00    +0.000 C 
ATOM      6  C   UNL     1      -1.685  11.904  21.724  0.00  0.00    +0.000 C 
ATOM      7  N   UNL     1      -0.642  11.090  21.115  0.00  0.00    +0.000 N 
ATOM      8  C   UNL     1      -0.591  10.898  19.752  0.00  0.00    +0.000 A 
ATOM      9  N   UNL     1       0.225  10.065  19.184  0.00  0.00    +0.000 NA
ATOM     10  C   UNL     1       1.018   9.280  19.988  0.00  0.00    +0.000 A 
ATOM     11  C   UNL     1       1.019   9.327  21.337  0.00  0.00    +0.000 A 
ATOM     12  C   UNL     1       0.110  10.310  21.974  0.00  0.00    +0.000 A 
ATOM     13  O   UNL     1       0.017  10.384  23.201  0.00  0.00    +0.000 OA
ENDROOT
BRANCH  10  14
ATOM     14  C   UNL     1       1.876   8.315  19.337  0.00  0.00    +0.000 A 
ATOM     15  N   UNL     1       2.499   8.523  18.181  0.00  0.00    +0.000 NA
ATOM     16  C   UNL     1       3.228   7.419  17.799  0.00  0.00    +0.000 A 
ATOM     17  C   UNL     1       3.168   6.343  18.653  0.00  0.00    +0.000 A 
ATOM     18  S   UNL     1       2.176   6.733  19.994  0.00  0.00    +0.000 S 
BRANCH  17  19
ATOM     19  C   UNL     1       3.788   4.993  18.493  0.00  0.00    +0.000 C 
BRANCH  19  20
ATOM     20  C   UNL     1       4.862   4.931  17.431  0.00  0.00    +0.000 A 
ATOM     21  C   UNL     1       4.587   4.356  16.179  0.00  0.00    +0.000 A 
ATOM     22  C   UNL     1       5.555   4.358  15.173  0.00  0.00    +0.000 A 
ATOM     23  C   UNL     1       6.798   4.926  15.419  0.00  0.00    +0.000 A 
ATOM     24  F   UNL     1       7.716   4.953  14.444  0.00  0.00    +0.000 F 
ATOM     25  C   UNL     1       7.102   5.473  16.660  0.00  0.00    +0.000 A 
ATOM     26  C   UNL     1       6.137   5.469  17.669  0.00  0.00    +0.000 A 
ENDBRANCH  19  20
ENDBRANCH  17  19
ENDBRANCH  10  14
BRANCH  11  27
ATOM     27  O   UNL     1       1.770   8.509  22.171  0.00  0.00    +0.000 OA
ATOM     28  H   UNL     1       2.049   7.724  21.649  0.00  0.00    +0.000 HD
ENDBRANCH  11  27
TORSDOF 4
ENDMDL
MODEL 8
REMARK VINA RESULT:      -8.0      4.535      9.114
REMARK  Name = 
REMARK  6 active torsions:
REMARK  status: ('A' for Active; 'I' for Inactive)
REMARK    1  A    between atoms: C_1  and  C_2
REMARK    2  A    between atoms: C_2  and  C_3
REMARK    3  A    between atoms: C_10  and  C_11
REMARK    4  A    between atoms: C_14  and  C_15
REMARK    5  A    between atoms: C_15  and  C_16
REMARK    6  A    between atoms: C_24  and  O_25
REMARK                            x       y       z     vdW  Elec       q    Type
REMARK                         _______ _______ _______ _____ _____    ______ ____
ROOT
ATOM      1  C   UNL     1       1.993  14.438  21.007  0.00  0.00    +0.000 C 
ATOM      2  C   UNL     1       0.596  14.028  20.516  0.00  0.00    +0.000 C 
ATOM      3  C   UNL     1       0.605  13.995  18.981  0.00  0.00    +0.000 C 
ATOM      4  O   UNL     1      -0.342  15.048  20.872  0.00  0.00    +0.000 OA
ATOM      5  C   UNL     1      -0.716  15.000  22.245  0.00  0.00    +0.000 C 
ATOM      6  C   UNL     1      -1.391  13.679  22.546  0.00  0.00    +0.000 C 
ATOM      7  N   UNL     1      -0.619  12.523  22.115  0.00  0.00    +0.000 N 
ATOM      8  C   UNL     1       0.262  12.606  21.059  0.00  0.00    +0.000 A 
ATOM      9  N   UNL     1       0.855  11.572  20.548  0.00  0.00    +0.000 NA
ATOM     10  C   UNL     1       0.527  10.328  21.032  0.00  0.00    +0.000 A 
ATOM     11  C   UNL     1      -0.364  10.105  22.021  0.00  0.00    +0.000 A 
ATOM     12  C   UNL     1      -1.009  11.298  22.624  0.00  0.00    +0.000 A 
ATOM     13  O   UNL     1      -1.868  11.178  23.499  0.00  0.00    +0.000 OA
ENDROOT
BRANCH  10  14
ATOM     14  C   UNL     1       1.154   9.183  20.408  0.00  0.00    +0.000 A 
ATOM     15  N   UNL     1       1.501   8.073  21.052  0.00  0.00    +0.000 NA
ATOM     16  C   UNL     1       2.094   7.166  20.202  0.00  0.00    +0.000 A 
ATOM     17  C   UNL     1       2.220   7.571  18.894  0.00  0.00    +0.000 A 
ATOM     18  S   UNL     1       1.553   9.140  18.717  0.00  0.00    +0.000 S 
BRANCH  17  19
ATOM     19  C   UNL     1       2.868   6.853  17.755  0.00  0.00    +0.000 C 
BRANCH  19  20
ATOM     20  C   UNL     1       2.978   5.358  17.954  0.00  0.00    +0.000 A 
ATOM     21  C   UNL     1       1.854   4.535  17.770  0.00  0.00    +0.000 A 
ATOM     22  C   UNL     1       1.968   3.149  17.886  0.00  0.00    +0.000 A 
ATOM     23  C   UNL     1       3.199   2.585  18.193  0.00  0.00    +0.000 A 
ATOM     24  F   UNL     1       3.313   1.253  18.275  0.00  0.00    +0.000 F 
ATOM     25  C   UNL     1       4.317   3.382  18.409  0.00  0.00    +0.000 A 
ATOM     26  C   UNL     1       4.206   4.769  18.298  0.00  0.00    +0.000 A 
ENDBRANCH  19  20
ENDBRANCH  17  19
ENDBRANCH  10  14
BRANCH  11  27
ATOM     27  O   UNL     1      -0.753   8.857  22.490  0.00  0.00    +0.000 OA
ATOM     28  H   UNL     1      -1.515   8.989  23.097  0.00  0.00    +0.000 HD
ENDBRANCH  11  27
TORSDOF 4
ENDMDL
MODEL 9
REMARK VINA RESULT:      -8.0      4.203      8.876
REMARK  Name = 
REMARK  6 active torsions:
REMARK  status: ('A' for Active; 'I' for Inactive)
REMARK    1  A    between atoms: C_1  and  C_2
REMARK    2  A    between atoms: C_2  and  C_3
REMARK    3  A    between atoms: C_10  and  C_11
REMARK    4  A    between atoms: C_14  and  C_15
REMARK    5  A    between atoms: C_15  and  C_16
REMARK    6  A    between atoms: C_24  and  O_25
REMARK                            x       y       z     vdW  Elec       q    Type
REMARK                         _______ _______ _______ _____ _____    ______ ____
ROOT
ATOM      1  C   UNL     1      -1.134  12.585  17.971  0.00  0.00    +0.000 C 
ATOM      2  C   UNL     1      -1.878  11.519  18.789  0.00  0.00    +0.000 C 
ATOM      3  C   UNL     1      -2.498  10.502  17.822  0.00  0.00    +0.000 C 
ATOM      4  O   UNL     1      -2.983  12.133  19.460  0.00  0.00    +0.000 OA
ATOM      5  C   UNL     1      -2.589  12.868  20.614  0.00  0.00    +0.000 C 
ATOM      6  C   UNL     1      -1.946  11.937  21.620  0.00  0.00    +0.000 C 
ATOM      7  N   UNL     1      -0.876  11.127  21.057  0.00  0.00    +0.000 N 
ATOM      8  C   UNL     1      -0.863  10.791  19.720  0.00  0.00    +0.000 A 
ATOM      9  N   UNL     1      -0.016   9.951  19.209  0.00  0.00    +0.000 NA
ATOM     10  C   UNL     1       0.855   9.308  20.057  0.00  0.00    +0.000 A 
ATOM     11  C   UNL     1       0.903   9.501  21.391  0.00  0.00    +0.000 A 
ATOM     12  C   UNL     1      -0.044  10.491  21.960  0.00  0.00    +0.000 A 
ATOM     13  O   UNL     1      -0.096  10.692  23.175  0.00  0.00    +0.000 OA
ENDROOT
BRANCH  10  14
ATOM     14  C   UNL     1       1.750   8.331  19.476  0.00  0.00    +0.000 A 
ATOM     15  N   UNL     1       2.433   8.516  18.350  0.00  0.00    +0.000 NA
ATOM     16  C   UNL     1       3.185   7.406  18.033  0.00  0.00    +0.000 A 
ATOM     17  C   UNL     1       3.082   6.349  18.907  0.00  0.00    +0.000 A 
ATOM     18  S   UNL     1       2.018   6.767  20.184  0.00  0.00    +0.000 S 
BRANCH  17  19
ATOM     19  C   UNL     1       3.713   4.998  18.812  0.00  0.00    +0.000 C 
BRANCH  19  20
ATOM     20  C   UNL     1       4.754   4.880  17.722  0.00  0.00    +0.000 A 
ATOM     21  C   UNL     1       6.094   5.207  17.985  0.00  0.00    +0.000 A 
ATOM     22  C   UNL     1       7.069   5.035  17.001  0.00  0.00    +0.000 A 
ATOM     23  C   UNL     1       6.705   4.545  15.754  0.00  0.00    +0.000 A 
ATOM     24  F   UNL     1       7.646   4.353  14.820  0.00  0.00    +0.000 F 
ATOM     25  C   UNL     1       5.380   4.244  15.462  0.00  0.00    +0.000 A 
ATOM     26  C   UNL     1       4.402   4.419  16.443  0.00  0.00    +0.000 A 
ENDBRANCH  19  20
ENDBRANCH  17  19
ENDBRANCH  10  14
BRANCH  11  27
ATOM     27  O   UNL     1       1.735   8.826  22.274  0.00  0.00    +0.000 OA
ATOM     28  H   UNL     1       1.463   7.881  22.280  0.00  0.00    +0.000 HD
ENDBRANCH  11  27
TORSDOF 4
ENDMDL
