MODEL 1
REMARK VINA RESULT:      -6.1      0.000      0.000
REMARK  Name = 
REMARK  5 active torsions:
REMARK  status: ('A' for Active; 'I' for Inactive)
REMARK    1  A    between atoms: C_2  and  C_3
REMARK    2  A    between atoms: C_3  and  C_4
REMARK    3  A    between atoms: C_5  and  C_6
REMARK    4  A    between atoms: C_6  and  C_7
REMARK    5  A    between atoms: C_12  and  O_13
REMARK                            x       y       z     vdW  Elec       q    Type
REMARK                         _______ _______ _______ _____ _____    ______ ____
ROOT
ATOM      1  C   UNL     1       2.621   3.360  18.825  0.00  0.00    +0.000 C 
ATOM      2  C   UNL     1       2.647   2.514  17.546  0.00  0.00    +0.000 C 
ATOM      3  S   UNL     1       1.052   3.072  19.745  0.00  0.00    +0.000 S 
ATOM      4  C   UNL     1       1.859   2.690  21.239  0.00  0.00    +0.000 C 
ATOM      5  O   UNL     1       1.301   2.547  22.313  0.00  0.00    +0.000 OA
ATOM      6  C   UNL     1       3.301   2.533  21.046  0.00  0.00    +0.000 C 
ATOM      7  C   UNL     1       3.677   2.858  19.806  0.00  0.00    +0.000 C 
ENDROOT
BRANCH   1  10
ATOM      8  C   UNL     1       3.614   5.526  17.720  0.00  0.00    +0.000 C 
ATOM      9  C   UNL     1       4.563   4.845  16.764  0.00  0.00    +0.000 C 
ATOM     10  C   UNL     1       2.804   4.851  18.572  0.00  0.00    +0.000 C 
BRANCH   8  12
ATOM     11  C   UNL     1       2.506   7.756  18.099  0.00  0.00    +0.000 C 
ATOM     12  C   UNL     1       3.541   6.986  17.740  0.00  0.00    +0.000 C 
ENDBRANCH   8  12
ENDBRANCH   1  10
BRANCH   7  13
ATOM     13  O   UNL     1       4.986   2.788  19.369  0.00  0.00    +0.000 OA
ATOM     14  H   UNL     1       5.274   1.858  19.356  0.00  0.00    +0.000 HD
ENDBRANCH   7  13
TORSDOF 3
ENDMDL
MODEL 2
REMARK VINA RESULT:      -6.0      2.169      3.527
REMARK  Name = 
REMARK  5 active torsions:
REMARK  status: ('A' for Active; 'I' for Inactive)
REMARK    1  A    between atoms: C_2  and  C_3
REMARK    2  A    between atoms: C_3  and  C_4
REMARK    3  A    between atoms: C_5  and  C_6
REMARK    4  A    between atoms: C_6  and  C_7
REMARK    5  A    between atoms: C_12  and  O_13
REMARK                            x       y       z     vdW  Elec       q    Type
REMARK                         _______ _______ _______ _____ _____    ______ ____
ROOT
ATOM      1  C   UNL     1       3.770   4.518  17.892  0.00  0.00    +0.000 C 
ATOM      2  C   UNL     1       2.898   5.765  18.083  0.00  0.00    +0.000 C 
ATOM      3  S   UNL     1       4.910   4.316  19.324  0.00  0.00    +0.000 S 
ATOM      4  C   UNL     1       4.424   2.673  19.631  0.00  0.00    +0.000 C 
ATOM      5  O   UNL     1       4.974   1.921  20.418  0.00  0.00    +0.000 OA
ATOM      6  C   UNL     1       3.247   2.305  18.845  0.00  0.00    +0.000 C 
ATOM      7  C   UNL     1       2.909   3.261  17.974  0.00  0.00    +0.000 C 
ENDROOT
BRANCH   1  10
ATOM      8  C   UNL     1       5.438   5.429  16.080  0.00  0.00    +0.000 C 
ATOM      9  C   UNL     1       5.817   6.708  16.782  0.00  0.00    +0.000 C 
ATOM     10  C   UNL     1       4.568   4.526  16.595  0.00  0.00    +0.000 C 
BRANCH   8  12
ATOM     11  C   UNL     1       6.144   3.926  14.186  0.00  0.00    +0.000 C 
ATOM     12  C   UNL     1       6.032   5.120  14.780  0.00  0.00    +0.000 C 
ENDBRANCH   8  12
ENDBRANCH   1  10
BRANCH   7  13
ATOM     13  O   UNL     1       1.829   3.158  17.120  0.00  0.00    +0.000 OA
ATOM     14  H   UNL     1       1.738   3.984  16.613  0.00  0.00    +0.000 HD
ENDBRANCH   7  13
TORSDOF 3
ENDMDL
MODEL 3
REMARK VINA RESULT:      -5.9      3.574      4.419
REMARK  Name = 
REMARK  5 active torsions:
REMARK  status: ('A' for Active; 'I' for Inactive)
REMARK    1  A    between atoms: C_2  and  C_3
REMARK    2  A    between atoms: C_3  and  C_4
REMARK    3  A    between atoms: C_5  and  C_6
REMARK    4  A    between atoms: C_6  and  C_7
REMARK    5  A    between atoms: C_12  and  O_13
REMARK                            x       y       z     vdW  Elec       q    Type
REMARK                         _______ _______ _______ _____ _____    ______ ____
ROOT
ATOM      1  C   UNL     1       5.222   5.553  17.469  0.00  0.00    +0.000 C 
ATOM      2  C   UNL     1       4.667   4.434  16.579  0.00  0.00    +0.000 C 
ATOM      3  S   UNL     1       5.390   4.961  19.204  0.00  0.00    +0.000 S 
ATOM      4  C   UNL     1       7.060   5.434  19.330  0.00  0.00    +0.000 C 
ATOM      5  O   UNL     1       7.709   5.425  20.362  0.00  0.00    +0.000 OA
ATOM      6  C   UNL     1       7.608   5.822  18.030  0.00  0.00    +0.000 C 
ATOM      7  C   UNL     1       6.666   5.861  17.083  0.00  0.00    +0.000 C 
ENDROOT
BRANCH   1  10
ATOM      8  C   UNL     1       3.106   7.071  17.813  0.00  0.00    +0.000 C 
ATOM      9  C   UNL     1       2.200   6.020  18.403  0.00  0.00    +0.000 C 
ATOM     10  C   UNL     1       4.385   6.826  17.437  0.00  0.00    +0.000 C 
BRANCH   8  12
ATOM     11  C   UNL     1       1.557   9.012  18.234  0.00  0.00    +0.000 C 
ATOM     12  C   UNL     1       2.605   8.433  17.635  0.00  0.00    +0.000 C 
ENDBRANCH   8  12
ENDBRANCH   1  10
BRANCH   7  13
ATOM     13  O   UNL     1       6.928   6.194  15.769  0.00  0.00    +0.000 OA
ATOM     14  H   UNL     1       6.929   7.163  15.674  0.00  0.00    +0.000 HD
ENDBRANCH   7  13
TORSDOF 3
ENDMDL
MODEL 4
REMARK VINA RESULT:      -5.8      2.666      3.189
REMARK  Name = 
REMARK  5 active torsions:
REMARK  status: ('A' for Active; 'I' for Inactive)
REMARK    1  A    between atoms: C_2  and  C_3
REMARK    2  A    between atoms: C_3  and  C_4
REMARK    3  A    between atoms: C_5  and  C_6
REMARK    4  A    between atoms: C_6  and  C_7
REMARK    5  A    between atoms: C_12  and  O_13
REMARK                            x       y       z     vdW  Elec       q    Type
REMARK                         _______ _______ _______ _____ _____    ______ ____
ROOT
ATOM      1  C   UNL     1       4.446   5.001  18.044  0.00  0.00    +0.000 C 
ATOM      2  C   UNL     1       4.450   4.241  16.712  0.00  0.00    +0.000 C 
ATOM      3  S   UNL     1       2.874   5.940  18.236  0.00  0.00    +0.000 S 
ATOM      4  C   UNL     1       2.520   5.261  19.798  0.00  0.00    +0.000 C 
ATOM      5  O   UNL     1       1.622   5.637  20.533  0.00  0.00    +0.000 OA
ATOM      6  C   UNL     1       3.419   4.152  20.119  0.00  0.00    +0.000 C 
ATOM      7  C   UNL     1       4.387   4.015  19.208  0.00  0.00    +0.000 C 
ENDROOT
BRANCH   1  10
ATOM      8  C   UNL     1       6.945   5.796  17.907  0.00  0.00    +0.000 C 
ATOM      9  C   UNL     1       7.516   4.553  17.271  0.00  0.00    +0.000 C 
ATOM     10  C   UNL     1       5.633   5.942  18.211  0.00  0.00    +0.000 C 
BRANCH   8  12
ATOM     11  C   UNL     1       7.839   8.139  17.663  0.00  0.00    +0.000 C 
ATOM     12  C   UNL     1       7.832   6.918  18.213  0.00  0.00    +0.000 C 
ENDBRANCH   8  12
ENDBRANCH   1  10
BRANCH   7  13
ATOM     13  O   UNL     1       5.360   3.038  19.280  0.00  0.00    +0.000 OA
ATOM     14  H   UNL     1       6.188   3.376  18.894  0.00  0.00    +0.000 HD
ENDBRANCH   7  13
TORSDOF 3
ENDMDL
MODEL 5
REMARK VINA RESULT:      -5.8      1.993      2.464
REMARK  Name = 
REMARK  5 active torsions:
REMARK  status: ('A' for Active; 'I' for Inactive)
REMARK    1  A    between atoms: C_2  and  C_3
REMARK    2  A    between atoms: C_3  and  C_4
REMARK    3  A    between atoms: C_5  and  C_6
REMARK    4  A    between atoms: C_6  and  C_7
REMARK    5  A    between atoms: C_12  and  O_13
REMARK                            x       y       z     vdW  Elec       q    Type
REMARK                         _______ _______ _______ _____ _____    ______ ____
ROOT
ATOM      1  C   UNL     1       3.068   4.718  19.150  0.00  0.00    +0.000 C 
ATOM      2  C   UNL     1       4.554   4.458  19.426  0.00  0.00    +0.000 C 
ATOM      3  S   UNL     1       2.453   3.567  17.851  0.00  0.00    +0.000 S 
ATOM      4  C   UNL     1       1.120   3.000  18.816  0.00  0.00    +0.000 C 
ATOM      5  O   UNL     1       0.218   2.288  18.406  0.00  0.00    +0.000 OA
ATOM      6  C   UNL     1       1.224   3.462  20.200  0.00  0.00    +0.000 C 
ATOM      7  C   UNL     1       2.233   4.322  20.365  0.00  0.00    +0.000 C 
ENDROOT
BRANCH   1  10
ATOM      8  C   UNL     1       3.362   6.985  17.857  0.00  0.00    +0.000 C 
ATOM      9  C   UNL     1       4.540   6.579  17.007  0.00  0.00    +0.000 C 
ATOM     10  C   UNL     1       2.766   6.156  18.749  0.00  0.00    +0.000 C 
BRANCH   8  12
ATOM     11  C   UNL     1       1.550   8.733  17.929  0.00  0.00    +0.000 C 
ATOM     12  C   UNL     1       2.811   8.332  17.723  0.00  0.00    +0.000 C 
ENDBRANCH   8  12
ENDBRANCH   1  10
BRANCH   7  13
ATOM     13  O   UNL     1       2.546   4.897  21.581  0.00  0.00    +0.000 OA
ATOM     14  H   UNL     1       3.337   4.467  21.949  0.00  0.00    +0.000 HD
ENDBRANCH   7  13
TORSDOF 3
ENDMDL
MODEL 6
REMARK VINA RESULT:      -5.8      2.392      2.828
REMARK  Name = 
REMARK  5 active torsions:
REMARK  status: ('A' for Active; 'I' for Inactive)
REMARK    1  A    between atoms: C_2  and  C_3
REMARK    2  A    between atoms: C_3  and  C_4
REMARK    3  A    between atoms: C_5  and  C_6
REMARK    4  A    between atoms: C_6  and  C_7
REMARK    5  A    between atoms: C_12  and  O_13
REMARK                            x       y       z     vdW  Elec       q    Type
REMARK                         _______ _______ _______ _____ _____    ______ ____
ROOT
ATOM      1  C   UNL     1       4.234   4.479  18.141  0.00  0.00    +0.000 C 
ATOM      2  C   UNL     1       4.070   3.594  16.899  0.00  0.00    +0.000 C 
ATOM      3  S   UNL     1       2.795   5.615  18.306  0.00  0.00    +0.000 S 
ATOM      4  C   UNL     1       2.459   5.144  19.947  0.00  0.00    +0.000 C 
ATOM      5  O   UNL     1       1.657   5.699  20.680  0.00  0.00    +0.000 OA
ATOM      6  C   UNL     1       3.243   3.973  20.342  0.00  0.00    +0.000 C 
ATOM      7  C   UNL     1       4.132   3.629  19.405  0.00  0.00    +0.000 C 
ENDROOT
BRANCH   1  10
ATOM      8  C   UNL     1       6.042   6.169  17.263  0.00  0.00    +0.000 C 
ATOM      9  C   UNL     1       5.340   6.569  15.989  0.00  0.00    +0.000 C 
ATOM     10  C   UNL     1       5.529   5.282  18.149  0.00  0.00    +0.000 C 
BRANCH   8  12
ATOM     11  C   UNL     1       7.678   8.058  17.581  0.00  0.00    +0.000 C 
ATOM     12  C   UNL     1       7.339   6.763  17.583  0.00  0.00    +0.000 C 
ENDBRANCH   8  12
ENDBRANCH   1  10
BRANCH   7  13
ATOM     13  O   UNL     1       4.989   2.554  19.534  0.00  0.00    +0.000 OA
ATOM     14  H   UNL     1       5.440   2.396  18.686  0.00  0.00    +0.000 HD
ENDBRANCH   7  13
TORSDOF 3
ENDMDL
MODEL 7
REMARK VINA RESULT:      -5.7      3.509      5.093
REMARK  Name = 
REMARK  5 active torsions:
REMARK  status: ('A' for Active; 'I' for Inactive)
REMARK    1  A    between atoms: C_2  and  C_3
REMARK    2  A    between atoms: C_3  and  C_4
REMARK    3  A    between atoms: C_5  and  C_6
REMARK    4  A    between atoms: C_6  and  C_7
REMARK    5  A    between atoms: C_12  and  O_13
REMARK                            x       y       z     vdW  Elec       q    Type
REMARK                         _______ _______ _______ _____ _____    ______ ____
ROOT
ATOM      1  C   UNL     1       5.242   5.690  17.663  0.00  0.00    +0.000 C 
ATOM      2  C   UNL     1       5.326   5.170  19.103  0.00  0.00    +0.000 C 
ATOM      3  S   UNL     1       6.912   6.193  17.071  0.00  0.00    +0.000 S 
ATOM      4  C   UNL     1       6.829   5.214  15.635  0.00  0.00    +0.000 C 
ATOM      5  O   UNL     1       7.636   5.251  14.721  0.00  0.00    +0.000 OA
ATOM      6  C   UNL     1       5.678   4.311  15.665  0.00  0.00    +0.000 C 
ATOM      7  C   UNL     1       4.885   4.549  16.714  0.00  0.00    +0.000 C 
ENDROOT
BRANCH   1  10
ATOM      8  C   UNL     1       3.070   7.108  18.073  0.00  0.00    +0.000 C 
ATOM      9  C   UNL     1       2.445   6.217  19.117  0.00  0.00    +0.000 C 
ATOM     10  C   UNL     1       4.264   6.845  17.489  0.00  0.00    +0.000 C 
BRANCH   8  12
ATOM     11  C   UNL     1       1.646   9.157  18.416  0.00  0.00    +0.000 C 
ATOM     12  C   UNL     1       2.376   8.327  17.661  0.00  0.00    +0.000 C 
ENDBRANCH   8  12
ENDBRANCH   1  10
BRANCH   7  13
ATOM     13  O   UNL     1       3.736   3.828  16.972  0.00  0.00    +0.000 OA
ATOM     14  H   UNL     1       3.020   4.141  16.392  0.00  0.00    +0.000 HD
ENDBRANCH   7  13
TORSDOF 3
ENDMDL
MODEL 8
REMARK VINA RESULT:      -5.7      1.754      2.570
REMARK  Name = 
REMARK  5 active torsions:
REMARK  status: ('A' for Active; 'I' for Inactive)
REMARK    1  A    between atoms: C_2  and  C_3
REMARK    2  A    between atoms: C_3  and  C_4
REMARK    3  A    between atoms: C_5  and  C_6
REMARK    4  A    between atoms: C_6  and  C_7
REMARK    5  A    between atoms: C_12  and  O_13
REMARK                            x       y       z     vdW  Elec       q    Type
REMARK                         _______ _______ _______ _____ _____    ______ ____
ROOT
ATOM      1  C   UNL     1       2.475   3.987  18.530  0.00  0.00    +0.000 C 
ATOM      2  C   UNL     1       1.487   4.677  17.581  0.00  0.00    +0.000 C 
ATOM      3  S   UNL     1       2.486   4.836  20.164  0.00  0.00    +0.000 S 
ATOM      4  C   UNL     1       2.190   3.375  21.060  0.00  0.00    +0.000 C 
ATOM      5  O   UNL     1       2.241   3.281  22.275  0.00  0.00    +0.000 OA
ATOM      6  C   UNL     1       1.840   2.263  20.175  0.00  0.00    +0.000 C 
ATOM      7  C   UNL     1       1.969   2.591  18.886  0.00  0.00    +0.000 C 
ENDROOT
BRANCH   1  10
ATOM      8  C   UNL     1       4.710   4.858  17.463  0.00  0.00    +0.000 C 
ATOM      9  C   UNL     1       4.322   6.311  17.344  0.00  0.00    +0.000 C 
ATOM     10  C   UNL     1       3.893   3.909  17.980  0.00  0.00    +0.000 C 
BRANCH   8  12
ATOM     11  C   UNL     1       6.701   4.823  15.920  0.00  0.00    +0.000 C 
ATOM     12  C   UNL     1       6.034   4.430  17.012  0.00  0.00    +0.000 C 
ENDBRANCH   8  12
ENDBRANCH   1  10
BRANCH   7  13
ATOM     13  O   UNL     1       1.694   1.718  17.852  0.00  0.00    +0.000 OA
ATOM     14  H   UNL     1       1.829   0.803  18.156  0.00  0.00    +0.000 HD
ENDBRANCH   7  13
TORSDOF 3
ENDMDL
MODEL 9
REMARK VINA RESULT:      -5.7      2.957      5.102
REMARK  Name = 
REMARK  5 active torsions:
REMARK  status: ('A' for Active; 'I' for Inactive)
REMARK    1  A    between atoms: C_2  and  C_3
REMARK    2  A    between atoms: C_3  and  C_4
REMARK    3  A    between atoms: C_5  and  C_6
REMARK    4  A    between atoms: C_6  and  C_7
REMARK    5  A    between atoms: C_12  and  O_13
REMARK                            x       y       z     vdW  Elec       q    Type
REMARK                         _______ _______ _______ _____ _____    ______ ____
ROOT
ATOM      1  C   UNL     1       4.568   5.672  17.327  0.00  0.00    +0.000 C 
ATOM      2  C   UNL     1       4.004   7.071  17.605  0.00  0.00    +0.000 C 
ATOM      3  S   UNL     1       5.408   5.639  15.689  0.00  0.00    +0.000 S 
ATOM      4  C   UNL     1       6.891   4.990  16.328  0.00  0.00    +0.000 C 
ATOM      5  O   UNL     1       7.825   4.595  15.652  0.00  0.00    +0.000 OA
ATOM      6  C   UNL     1       6.895   5.000  17.792  0.00  0.00    +0.000 C 
ATOM      7  C   UNL     1       5.712   5.368  18.292  0.00  0.00    +0.000 C 
ENDROOT
BRANCH   1  10
ATOM      8  C   UNL     1       2.475   4.370  18.231  0.00  0.00    +0.000 C 
ATOM      9  C   UNL     1       2.125   5.311  19.357  0.00  0.00    +0.000 C 
ATOM     10  C   UNL     1       3.519   4.569  17.391  0.00  0.00    +0.000 C 
BRANCH   8  12
ATOM     11  C   UNL     1       0.951   2.482  18.911  0.00  0.00    +0.000 C 
ATOM     12  C   UNL     1       1.655   3.179  18.010  0.00  0.00    +0.000 C 
ENDBRANCH   8  12
ENDBRANCH   1  10
BRANCH   7  13
ATOM     13  O   UNL     1       5.460   5.463  19.646  0.00  0.00    +0.000 OA
ATOM     14  H   UNL     1       5.825   4.683  20.099  0.00  0.00    +0.000 HD
ENDBRANCH   7  13
TORSDOF 3
ENDMDL
