MODEL 1
REMARK VINA RESULT:      -6.9      0.000      0.000
REMARK  Name = 
REMARK  8 active torsions:
REMARK  status: ('A' for Active; 'I' for Inactive)
REMARK    1  A    between atoms: N_1  and  S_2
REMARK    2  A    between atoms: S_2  and  C_5
REMARK    3  A    between atoms: C_8  and  S_9
REMARK    4  A    between atoms: S_9  and  C_12
REMARK    5  A    between atoms: C_12  and  C_13
REMARK    6  A    between atoms: C_13  and  C_14
REMARK    7  A    between atoms: C_14  and  C_15
REMARK    8  A    between atoms: C_15  and  O_16
REMARK                            x       y       z     vdW  Elec       q    Type
REMARK                         _______ _______ _______ _____ _____    ______ ____
ROOT
ATOM      1  C   UNL     1       3.284   3.698  18.919  0.00  0.00    +0.000 A 
ATOM      2  C   UNL     1       3.190   3.665  17.528  0.00  0.00    +0.000 A 
ATOM      3  C   UNL     1       4.244   4.172  16.762  0.00  0.00    +0.000 A 
ATOM      4  C   UNL     1       5.382   4.695  17.394  0.00  0.00    +0.000 A 
ATOM      5  C   UNL     1       5.446   4.758  18.779  0.00  0.00    +0.000 A 
ATOM      6  F   UNL     1       6.504   5.275  19.415  0.00  0.00    +0.000 F 
ATOM      7  C   UNL     1       4.402   4.256  19.550  0.00  0.00    +0.000 A 
ENDROOT
BRANCH   1   8
ATOM      8  S   UNL     1       1.989   3.057  19.934  0.00  0.00    +0.000 S 
ATOM      9  O   UNL     1       0.886   3.977  19.898  0.00  0.00    +0.000 OA
ATOM     10  O   UNL     1       2.560   2.554  21.166  0.00  0.00    +0.000 OA
BRANCH   8  11
ATOM     11  N   UNL     1       1.532   1.694  19.065  0.00  0.00    +0.000 NA
ATOM     12  H   UNL     1       2.361   1.154  18.820  0.00  0.00    +0.000 HD
ATOM     13  H   UNL     1       0.951   1.938  18.267  0.00  0.00    +0.000 HD
ENDBRANCH   8  11
ENDBRANCH   1   8
BRANCH   4  14
ATOM     14  S   UNL     1       6.701   5.314  16.386  0.00  0.00    +0.000 S 
ATOM     15  O   UNL     1       6.828   6.722  16.700  0.00  0.00    +0.000 OA
ATOM     16  O   UNL     1       7.830   4.419  16.582  0.00  0.00    +0.000 OA
BRANCH  14  17
ATOM     17  C   UNL     1       6.173   5.203  14.689  0.00  0.00    +0.000 C 
BRANCH  17  18
ATOM     18  C   UNL     1       6.343   3.784  14.142  0.00  0.00    +0.000 C 
BRANCH  18  19
ATOM     19  C   UNL     1       6.502   3.799  12.622  0.00  0.00    +0.000 C 
BRANCH  19  20
ATOM     20  C   UNL     1       5.415   2.987  11.927  0.00  0.00    +0.000 C 
BRANCH  20  21
ATOM     21  O   UNL     1       5.885   1.667  11.693  0.00  0.00    +0.000 OA
ATOM     22  H   UNL     1       6.778   1.735  11.312  0.00  0.00    +0.000 HD
ENDBRANCH  20  21
ENDBRANCH  19  20
ENDBRANCH  18  19
ENDBRANCH  17  18
ENDBRANCH  14  17
ENDBRANCH   4  14
TORSDOF 8
ENDMDL
MODEL 2
REMARK VINA RESULT:      -6.8      1.139      1.409
REMARK  Name = 
REMARK  8 active torsions:
REMARK  status: ('A' for Active; 'I' for Inactive)
REMARK    1  A    between atoms: N_1  and  S_2
REMARK    2  A    between atoms: S_2  and  C_5
REMARK    3  A    between atoms: C_8  and  S_9
REMARK    4  A    between atoms: S_9  and  C_12
REMARK    5  A    between atoms: C_12  and  C_13
REMARK    6  A    between atoms: C_13  and  C_14
REMARK    7  A    between atoms: C_14  and  C_15
REMARK    8  A    between atoms: C_15  and  O_16
REMARK                            x       y       z     vdW  Elec       q    Type
REMARK                         _______ _______ _______ _____ _____    ______ ____
ROOT
ATOM      1  C   UNL     1       3.434   4.200  19.163  0.00  0.00    +0.000 A 
ATOM      2  C   UNL     1       3.272   3.815  17.833  0.00  0.00    +0.000 A 
ATOM      3  C   UNL     1       4.316   4.034  16.930  0.00  0.00    +0.000 A 
ATOM      4  C   UNL     1       5.512   4.623  17.368  0.00  0.00    +0.000 A 
ATOM      5  C   UNL     1       5.644   5.037  18.686  0.00  0.00    +0.000 A 
ATOM      6  F   UNL     1       6.759   5.627  19.134  0.00  0.00    +0.000 F 
ATOM      7  C   UNL     1       4.611   4.824  19.593  0.00  0.00    +0.000 A 
ENDROOT
BRANCH   1   8
ATOM      8  S   UNL     1       2.152   3.934  20.349  0.00  0.00    +0.000 S 
ATOM      9  O   UNL     1       2.651   3.051  21.367  0.00  0.00    +0.000 OA
ATOM     10  O   UNL     1       0.903   3.711  19.651  0.00  0.00    +0.000 OA
BRANCH   8  11
ATOM     11  N   UNL     1       2.013   5.461  21.034  0.00  0.00    +0.000 NA
ATOM     12  H   UNL     1       2.011   6.165  20.297  0.00  0.00    +0.000 HD
ATOM     13  H   UNL     1       2.724   5.615  21.746  0.00  0.00    +0.000 HD
ENDBRANCH   8  11
ENDBRANCH   1   8
BRANCH   4  14
ATOM     14  S   UNL     1       6.815   4.869  16.194  0.00  0.00    +0.000 S 
ATOM     15  O   UNL     1       6.844   6.288  15.909  0.00  0.00    +0.000 OA
ATOM     16  O   UNL     1       7.993   4.210  16.736  0.00  0.00    +0.000 OA
BRANCH  14  17
ATOM     17  C   UNL     1       6.341   4.043  14.689  0.00  0.00    +0.000 C 
BRANCH  17  18
ATOM     18  C   UNL     1       6.981   4.702  13.464  0.00  0.00    +0.000 C 
BRANCH  18  19
ATOM     19  C   UNL     1       6.912   3.778  12.249  0.00  0.00    +0.000 C 
BRANCH  19  20
ATOM     20  C   UNL     1       5.565   3.073  12.145  0.00  0.00    +0.000 C 
BRANCH  20  21
ATOM     21  O   UNL     1       5.755   1.755  11.649  0.00  0.00    +0.000 OA
ATOM     22  H   UNL     1       5.251   1.149  12.219  0.00  0.00    +0.000 HD
ENDBRANCH  20  21
ENDBRANCH  19  20
ENDBRANCH  18  19
ENDBRANCH  17  18
ENDBRANCH  14  17
ENDBRANCH   4  14
TORSDOF 8
ENDMDL
MODEL 3
REMARK VINA RESULT:      -6.8      3.360      6.045
REMARK  Name = 
REMARK  8 active torsions:
REMARK  status: ('A' for Active; 'I' for Inactive)
REMARK    1  A    between atoms: N_1  and  S_2
REMARK    2  A    between atoms: S_2  and  C_5
REMARK    3  A    between atoms: C_8  and  S_9
REMARK    4  A    between atoms: S_9  and  C_12
REMARK    5  A    between atoms: C_12  and  C_13
REMARK    6  A    between atoms: C_13  and  C_14
REMARK    7  A    between atoms: C_14  and  C_15
REMARK    8  A    between atoms: C_15  and  O_16
REMARK                            x       y       z     vdW  Elec       q    Type
REMARK                         _______ _______ _______ _____ _____    ______ ____
ROOT
ATOM      1  C   UNL     1       5.572   5.291  17.602  0.00  0.00    +0.000 A 
ATOM      2  C   UNL     1       5.791   4.734  18.861  0.00  0.00    +0.000 A 
ATOM      3  C   UNL     1       4.725   4.643  19.761  0.00  0.00    +0.000 A 
ATOM      4  C   UNL     1       3.452   5.100  19.389  0.00  0.00    +0.000 A 
ATOM      5  C   UNL     1       3.257   5.689  18.147  0.00  0.00    +0.000 A 
ATOM      6  F   UNL     1       2.063   6.160  17.768  0.00  0.00    +0.000 F 
ATOM      7  C   UNL     1       4.311   5.784  17.244  0.00  0.00    +0.000 A 
ENDROOT
BRANCH   1   8
ATOM      8  S   UNL     1       6.880   5.417  16.423  0.00  0.00    +0.000 S 
ATOM      9  O   UNL     1       7.545   6.676  16.613  0.00  0.00    +0.000 OA
ATOM     10  O   UNL     1       6.398   4.963  15.134  0.00  0.00    +0.000 OA
BRANCH   8  11
ATOM     11  N   UNL     1       7.923   4.213  16.956  0.00  0.00    +0.000 NA
ATOM     12  H   UNL     1       8.660   4.630  17.523  0.00  0.00    +0.000 HD
ATOM     13  H   UNL     1       8.269   3.650  16.182  0.00  0.00    +0.000 HD
ENDBRANCH   8  11
ENDBRANCH   1   8
BRANCH   4  14
ATOM     14  S   UNL     1       2.126   4.953  20.553  0.00  0.00    +0.000 S 
ATOM     15  O   UNL     1       2.696   4.367  21.748  0.00  0.00    +0.000 OA
ATOM     16  O   UNL     1       1.481   6.255  20.616  0.00  0.00    +0.000 OA
BRANCH  14  17
ATOM     17  C   UNL     1       0.965   3.773  19.895  0.00  0.00    +0.000 C 
BRANCH  17  18
ATOM     18  C   UNL     1       1.593   2.383  19.768  0.00  0.00    +0.000 C 
BRANCH  18  19
ATOM     19  C   UNL     1       1.793   2.006  18.300  0.00  0.00    +0.000 C 
BRANCH  19  20
ATOM     20  C   UNL     1       3.269   1.940  17.925  0.00  0.00    +0.000 C 
BRANCH  20  21
ATOM     21  O   UNL     1       3.816   0.706  18.366  0.00  0.00    +0.000 OA
ATOM     22  H   UNL     1       4.288   0.873  19.201  0.00  0.00    +0.000 HD
ENDBRANCH  20  21
ENDBRANCH  19  20
ENDBRANCH  18  19
ENDBRANCH  17  18
ENDBRANCH  14  17
ENDBRANCH   4  14
TORSDOF 8
ENDMDL
MODEL 4
REMARK VINA RESULT:      -6.8      3.498      6.035
REMARK  Name = 
REMARK  8 active torsions:
REMARK  status: ('A' for Active; 'I' for Inactive)
REMARK    1  A    between atoms: N_1  and  S_2
REMARK    2  A    between atoms: S_2  and  C_5
REMARK    3  A    between atoms: C_8  and  S_9
REMARK    4  A    between atoms: S_9  and  C_12
REMARK    5  A    between atoms: C_12  and  C_13
REMARK    6  A    between atoms: C_13  and  C_14
REMARK    7  A    between atoms: C_14  and  C_15
REMARK    8  A    between atoms: C_15  and  O_16
REMARK                            x       y       z     vdW  Elec       q    Type
REMARK                         _______ _______ _______ _____ _____    ______ ____
ROOT
ATOM      1  C   UNL     1       5.591   5.567  17.652  0.00  0.00    +0.000 A 
ATOM      2  C   UNL     1       5.761   4.824  18.820  0.00  0.00    +0.000 A 
ATOM      3  C   UNL     1       4.681   4.674  19.694  0.00  0.00    +0.000 A 
ATOM      4  C   UNL     1       3.443   5.258  19.387  0.00  0.00    +0.000 A 
ATOM      5  C   UNL     1       3.299   6.028  18.241  0.00  0.00    +0.000 A 
ATOM      6  F   UNL     1       2.140   6.621  17.929  0.00  0.00    +0.000 F 
ATOM      7  C   UNL     1       4.367   6.183  17.364  0.00  0.00    +0.000 A 
ENDROOT
BRANCH   1   8
ATOM      8  S   UNL     1       6.918   5.776  16.506  0.00  0.00    +0.000 S 
ATOM      9  O   UNL     1       7.661   4.548  16.441  0.00  0.00    +0.000 OA
ATOM     10  O   UNL     1       7.539   7.065  16.733  0.00  0.00    +0.000 OA
BRANCH   8  11
ATOM     11  N   UNL     1       6.082   5.933  15.058  0.00  0.00    +0.000 NA
ATOM     12  H   UNL     1       6.570   6.594  14.455  0.00  0.00    +0.000 HD
ATOM     13  H   UNL     1       5.104   6.166  15.216  0.00  0.00    +0.000 HD
ENDBRANCH   8  11
ENDBRANCH   1   8
BRANCH   4  14
ATOM     14  S   UNL     1       2.096   5.031  20.515  0.00  0.00    +0.000 S 
ATOM     15  O   UNL     1       2.632   4.306  21.649  0.00  0.00    +0.000 OA
ATOM     16  O   UNL     1       1.489   6.338  20.707  0.00  0.00    +0.000 OA
BRANCH  14  17
ATOM     17  C   UNL     1       0.911   3.962  19.725  0.00  0.00    +0.000 C 
BRANCH  17  18
ATOM     18  C   UNL     1       1.468   3.373  18.426  0.00  0.00    +0.000 C 
BRANCH  18  19
ATOM     19  C   UNL     1       2.085   1.996  18.673  0.00  0.00    +0.000 C 
BRANCH  19  20
ATOM     20  C   UNL     1       3.407   1.824  17.933  0.00  0.00    +0.000 C 
BRANCH  20  21
ATOM     21  O   UNL     1       4.163   0.790  18.547  0.00  0.00    +0.000 OA
ATOM     22  H   UNL     1       4.796   1.209  19.157  0.00  0.00    +0.000 HD
ENDBRANCH  20  21
ENDBRANCH  19  20
ENDBRANCH  18  19
ENDBRANCH  17  18
ENDBRANCH  14  17
ENDBRANCH   4  14
TORSDOF 8
ENDMDL
MODEL 5
REMARK VINA RESULT:      -6.7      2.614      3.950
REMARK  Name = 
REMARK  8 active torsions:
REMARK  status: ('A' for Active; 'I' for Inactive)
REMARK    1  A    between atoms: N_1  and  S_2
REMARK    2  A    between atoms: S_2  and  C_5
REMARK    3  A    between atoms: C_8  and  S_9
REMARK    4  A    between atoms: S_9  and  C_12
REMARK    5  A    between atoms: C_12  and  C_13
REMARK    6  A    between atoms: C_13  and  C_14
REMARK    7  A    between atoms: C_14  and  C_15
REMARK    8  A    between atoms: C_15  and  O_16
REMARK                            x       y       z     vdW  Elec       q    Type
REMARK                         _______ _______ _______ _____ _____    ______ ____
ROOT
ATOM      1  C   UNL     1       2.931   3.912  19.188  0.00  0.00    +0.000 A 
ATOM      2  C   UNL     1       3.459   3.028  18.248  0.00  0.00    +0.000 A 
ATOM      3  C   UNL     1       4.260   3.529  17.218  0.00  0.00    +0.000 A 
ATOM      4  C   UNL     1       4.533   4.903  17.145  0.00  0.00    +0.000 A 
ATOM      5  C   UNL     1       3.968   5.777  18.064  0.00  0.00    +0.000 A 
ATOM      6  F   UNL     1       4.184   7.096  18.010  0.00  0.00    +0.000 F 
ATOM      7  C   UNL     1       3.169   5.289  19.093  0.00  0.00    +0.000 A 
ENDROOT
BRANCH   1   8
ATOM      8  S   UNL     1       1.925   3.331  20.518  0.00  0.00    +0.000 S 
ATOM      9  O   UNL     1       2.462   3.840  21.750  0.00  0.00    +0.000 OA
ATOM     10  O   UNL     1       1.623   1.931  20.305  0.00  0.00    +0.000 OA
BRANCH   8  11
ATOM     11  N   UNL     1       0.486   4.146  20.224  0.00  0.00    +0.000 NA
ATOM     12  H   UNL     1       0.154   3.921  19.287  0.00  0.00    +0.000 HD
ATOM     13  H   UNL     1       0.581   5.144  20.397  0.00  0.00    +0.000 HD
ENDBRANCH   8  11
ENDBRANCH   1   8
BRANCH   4  14
ATOM     14  S   UNL     1       5.564   5.494  15.832  0.00  0.00    +0.000 S 
ATOM     15  O   UNL     1       5.612   4.436  14.844  0.00  0.00    +0.000 OA
ATOM     16  O   UNL     1       5.062   6.809  15.467  0.00  0.00    +0.000 OA
BRANCH  14  17
ATOM     17  C   UNL     1       7.211   5.674  16.486  0.00  0.00    +0.000 C 
BRANCH  17  18
ATOM     18  C   UNL     1       7.411   7.049  17.127  0.00  0.00    +0.000 C 
BRANCH  18  19
ATOM     19  C   UNL     1       7.945   6.914  18.552  0.00  0.00    +0.000 C 
BRANCH  19  20
ATOM     20  C   UNL     1       7.552   5.584  19.185  0.00  0.00    +0.000 C 
BRANCH  20  21
ATOM     21  O   UNL     1       8.075   5.512  20.503  0.00  0.00    +0.000 OA
ATOM     22  H   UNL     1       8.914   6.006  20.516  0.00  0.00    +0.000 HD
ENDBRANCH  20  21
ENDBRANCH  19  20
ENDBRANCH  18  19
ENDBRANCH  17  18
ENDBRANCH  14  17
ENDBRANCH   4  14
TORSDOF 8
ENDMDL
MODEL 6
REMARK VINA RESULT:      -6.6      1.097      1.140
REMARK  Name = 
REMARK  8 active torsions:
REMARK  status: ('A' for Active; 'I' for Inactive)
REMARK    1  A    between atoms: N_1  and  S_2
REMARK    2  A    between atoms: S_2  and  C_5
REMARK    3  A    between atoms: C_8  and  S_9
REMARK    4  A    between atoms: S_9  and  C_12
REMARK    5  A    between atoms: C_12  and  C_13
REMARK    6  A    between atoms: C_13  and  C_14
REMARK    7  A    between atoms: C_14  and  C_15
REMARK    8  A    between atoms: C_15  and  O_16
REMARK                            x       y       z     vdW  Elec       q    Type
REMARK                         _______ _______ _______ _____ _____    ______ ____
ROOT
ATOM      1  C   UNL     1       3.317   4.319  19.166  0.00  0.00    +0.000 A 
ATOM      2  C   UNL     1       3.174   3.603  17.979  0.00  0.00    +0.000 A 
ATOM      3  C   UNL     1       4.137   3.747  16.976  0.00  0.00    +0.000 A 
ATOM      4  C   UNL     1       5.236   4.597  17.175  0.00  0.00    +0.000 A 
ATOM      5  C   UNL     1       5.345   5.334  18.346  0.00  0.00    +0.000 A 
ATOM      6  F   UNL     1       6.365   6.174  18.560  0.00  0.00    +0.000 F 
ATOM      7  C   UNL     1       4.392   5.197  19.351  0.00  0.00    +0.000 A 
ENDROOT
BRANCH   1   8
ATOM      8  S   UNL     1       2.138   4.162  20.471  0.00  0.00    +0.000 S 
ATOM      9  O   UNL     1       1.684   5.476  20.835  0.00  0.00    +0.000 OA
ATOM     10  O   UNL     1       2.627   3.199  21.436  0.00  0.00    +0.000 OA
BRANCH   8  11
ATOM     11  N   UNL     1       0.870   3.395  19.680  0.00  0.00    +0.000 NA
ATOM     12  H   UNL     1       0.124   4.067  19.503  0.00  0.00    +0.000 HD
ATOM     13  H   UNL     1       0.564   2.566  20.185  0.00  0.00    +0.000 HD
ENDBRANCH   8  11
ENDBRANCH   1   8
BRANCH   4  14
ATOM     14  S   UNL     1       6.440   4.740  15.885  0.00  0.00    +0.000 S 
ATOM     15  O   UNL     1       6.232   6.037  15.275  0.00  0.00    +0.000 OA
ATOM     16  O   UNL     1       7.727   4.411  16.478  0.00  0.00    +0.000 OA
BRANCH  14  17
ATOM     17  C   UNL     1       6.051   3.515  14.652  0.00  0.00    +0.000 C 
BRANCH  17  18
ATOM     18  C   UNL     1       6.444   3.988  13.250  0.00  0.00    +0.000 C 
BRANCH  18  19
ATOM     19  C   UNL     1       5.403   3.559  12.218  0.00  0.00    +0.000 C 
BRANCH  19  20
ATOM     20  C   UNL     1       5.719   2.191  11.624  0.00  0.00    +0.000 C 
BRANCH  20  21
ATOM     21  O   UNL     1       7.126   2.041  11.500  0.00  0.00    +0.000 OA
ATOM     22  H   UNL     1       7.526   2.924  11.587  0.00  0.00    +0.000 HD
ENDBRANCH  20  21
ENDBRANCH  19  20
ENDBRANCH  18  19
ENDBRANCH  17  18
ENDBRANCH  14  17
ENDBRANCH   4  14
TORSDOF 8
ENDMDL
MODEL 7
REMARK VINA RESULT:      -6.6      1.325      1.527
REMARK  Name = 
REMARK  8 active torsions:
REMARK  status: ('A' for Active; 'I' for Inactive)
REMARK    1  A    between atoms: N_1  and  S_2
REMARK    2  A    between atoms: S_2  and  C_5
REMARK    3  A    between atoms: C_8  and  S_9
REMARK    4  A    between atoms: S_9  and  C_12
REMARK    5  A    between atoms: C_12  and  C_13
REMARK    6  A    between atoms: C_13  and  C_14
REMARK    7  A    between atoms: C_14  and  C_15
REMARK    8  A    between atoms: C_15  and  O_16
REMARK                            x       y       z     vdW  Elec       q    Type
REMARK                         _______ _______ _______ _____ _____    ______ ____
ROOT
ATOM      1  C   UNL     1       3.097   3.869  19.173  0.00  0.00    +0.000 A 
ATOM      2  C   UNL     1       2.579   4.821  18.295  0.00  0.00    +0.000 A 
ATOM      3  C   UNL     1       3.454   5.531  17.468  0.00  0.00    +0.000 A 
ATOM      4  C   UNL     1       4.832   5.276  17.520  0.00  0.00    +0.000 A 
ATOM      5  C   UNL     1       5.338   4.355  18.427  0.00  0.00    +0.000 A 
ATOM      6  F   UNL     1       6.649   4.104  18.523  0.00  0.00    +0.000 F 
ATOM      7  C   UNL     1       4.476   3.642  19.254  0.00  0.00    +0.000 A 
ENDROOT
BRANCH   1   8
ATOM      8  S   UNL     1       2.035   2.933  20.229  0.00  0.00    +0.000 S 
ATOM      9  O   UNL     1       2.656   2.827  21.520  0.00  0.00    +0.000 OA
ATOM     10  O   UNL     1       1.531   1.789  19.497  0.00  0.00    +0.000 OA
BRANCH   8  11
ATOM     11  N   UNL     1       0.725   3.973  20.386  0.00  0.00    +0.000 NA
ATOM     12  H   UNL     1       0.295   3.840  21.301  0.00  0.00    +0.000 HD
ATOM     13  H   UNL     1       0.076   3.873  19.609  0.00  0.00    +0.000 HD
ENDBRANCH   8  11
ENDBRANCH   1   8
BRANCH   4  14
ATOM     14  S   UNL     1       5.904   6.188  16.445  0.00  0.00    +0.000 S 
ATOM     15  O   UNL     1       5.044   6.918  15.536  0.00  0.00    +0.000 OA
ATOM     16  O   UNL     1       6.838   6.905  17.299  0.00  0.00    +0.000 OA
BRANCH  14  17
ATOM     17  C   UNL     1       6.814   5.008  15.470  0.00  0.00    +0.000 C 
BRANCH  17  18
ATOM     18  C   UNL     1       5.876   4.122  14.646  0.00  0.00    +0.000 C 
BRANCH  18  19
ATOM     19  C   UNL     1       6.471   3.828  13.270  0.00  0.00    +0.000 C 
BRANCH  19  20
ATOM     20  C   UNL     1       5.431   3.268  12.307  0.00  0.00    +0.000 C 
BRANCH  20  21
ATOM     21  O   UNL     1       5.907   2.051  11.749  0.00  0.00    +0.000 OA
ATOM     22  H   UNL     1       5.261   1.355  11.964  0.00  0.00    +0.000 HD
ENDBRANCH  20  21
ENDBRANCH  19  20
ENDBRANCH  18  19
ENDBRANCH  17  18
ENDBRANCH  14  17
ENDBRANCH   4  14
TORSDOF 8
ENDMDL
MODEL 8
REMARK VINA RESULT:      -6.6      2.718      4.074
REMARK  Name = 
REMARK  8 active torsions:
REMARK  status: ('A' for Active; 'I' for Inactive)
REMARK    1  A    between atoms: N_1  and  S_2
REMARK    2  A    between atoms: S_2  and  C_5
REMARK    3  A    between atoms: C_8  and  S_9
REMARK    4  A    between atoms: S_9  and  C_12
REMARK    5  A    between atoms: C_12  and  C_13
REMARK    6  A    between atoms: C_13  and  C_14
REMARK    7  A    between atoms: C_14  and  C_15
REMARK    8  A    between atoms: C_15  and  O_16
REMARK                            x       y       z     vdW  Elec       q    Type
REMARK                         _______ _______ _______ _____ _____    ______ ____
ROOT
ATOM      1  C   UNL     1       2.448   4.133  18.686  0.00  0.00    +0.000 A 
ATOM      2  C   UNL     1       2.548   5.506  18.464  0.00  0.00    +0.000 A 
ATOM      3  C   UNL     1       3.504   5.981  17.562  0.00  0.00    +0.000 A 
ATOM      4  C   UNL     1       4.342   5.081  16.887  0.00  0.00    +0.000 A 
ATOM      5  C   UNL     1       4.259   3.720  17.148  0.00  0.00    +0.000 A 
ATOM      6  F   UNL     1       5.059   2.834  16.542  0.00  0.00    +0.000 F 
ATOM      7  C   UNL     1       3.310   3.236  18.043  0.00  0.00    +0.000 A 
ENDROOT
BRANCH   1   8
ATOM      8  S   UNL     1       1.248   3.477  19.803  0.00  0.00    +0.000 S 
ATOM      9  O   UNL     1       0.443   2.520  19.096  0.00  0.00    +0.000 OA
ATOM     10  O   UNL     1       0.686   4.562  20.582  0.00  0.00    +0.000 OA
BRANCH   8  11
ATOM     11  N   UNL     1       2.222   2.621  20.871  0.00  0.00    +0.000 NA
ATOM     12  H   UNL     1       1.655   2.269  21.641  0.00  0.00    +0.000 HD
ATOM     13  H   UNL     1       3.022   3.175  21.170  0.00  0.00    +0.000 HD
ENDBRANCH   8  11
ENDBRANCH   1   8
BRANCH   4  14
ATOM     14  S   UNL     1       5.530   5.725  15.743  0.00  0.00    +0.000 S 
ATOM     15  O   UNL     1       5.616   4.766  14.661  0.00  0.00    +0.000 OA
ATOM     16  O   UNL     1       5.142   7.100  15.469  0.00  0.00    +0.000 OA
BRANCH  14  17
ATOM     17  C   UNL     1       7.112   5.731  16.561  0.00  0.00    +0.000 C 
BRANCH  17  18
ATOM     18  C   UNL     1       7.401   7.088  17.208  0.00  0.00    +0.000 C 
BRANCH  18  19
ATOM     19  C   UNL     1       7.960   6.913  18.620  0.00  0.00    +0.000 C 
BRANCH  19  20
ATOM     20  C   UNL     1       7.779   5.488  19.130  0.00  0.00    +0.000 C 
BRANCH  20  21
ATOM     21  O   UNL     1       8.002   5.454  20.533  0.00  0.00    +0.000 OA
ATOM     22  H   UNL     1       8.774   6.015  20.723  0.00  0.00    +0.000 HD
ENDBRANCH  20  21
ENDBRANCH  19  20
ENDBRANCH  18  19
ENDBRANCH  17  18
ENDBRANCH  14  17
ENDBRANCH   4  14
TORSDOF 8
ENDMDL
MODEL 9
REMARK VINA RESULT:      -6.6      2.609      3.951
REMARK  Name = 
REMARK  8 active torsions:
REMARK  status: ('A' for Active; 'I' for Inactive)
REMARK    1  A    between atoms: N_1  and  S_2
REMARK    2  A    between atoms: S_2  and  C_5
REMARK    3  A    between atoms: C_8  and  S_9
REMARK    4  A    between atoms: S_9  and  C_12
REMARK    5  A    between atoms: C_12  and  C_13
REMARK    6  A    between atoms: C_13  and  C_14
REMARK    7  A    between atoms: C_14  and  C_15
REMARK    8  A    between atoms: C_15  and  O_16
REMARK                            x       y       z     vdW  Elec       q    Type
REMARK                         _______ _______ _______ _____ _____    ______ ____
ROOT
ATOM      1  C   UNL     1       2.501   4.036  18.589  0.00  0.00    +0.000 A 
ATOM      2  C   UNL     1       3.074   3.175  17.655  0.00  0.00    +0.000 A 
ATOM      3  C   UNL     1       4.006   3.680  16.745  0.00  0.00    +0.000 A 
ATOM      4  C   UNL     1       4.363   5.037  16.786  0.00  0.00    +0.000 A 
ATOM      5  C   UNL     1       3.756   5.891  17.695  0.00  0.00    +0.000 A 
ATOM      6  F   UNL     1       4.052   7.196  17.746  0.00  0.00    +0.000 F 
ATOM      7  C   UNL     1       2.826   5.398  18.605  0.00  0.00    +0.000 A 
ENDROOT
BRANCH   1   8
ATOM      8  S   UNL     1       1.328   3.447  19.771  0.00  0.00    +0.000 S 
ATOM      9  O   UNL     1       0.476   2.487  19.127  0.00  0.00    +0.000 OA
ATOM     10  O   UNL     1       0.821   4.570  20.533  0.00  0.00    +0.000 OA
BRANCH   8  11
ATOM     11  N   UNL     1       2.323   2.604  20.831  0.00  0.00    +0.000 NA
ATOM     12  H   UNL     1       1.848   2.494  21.726  0.00  0.00    +0.000 HD
ATOM     13  H   UNL     1       3.241   3.036  20.903  0.00  0.00    +0.000 HD
ENDBRANCH   8  11
ENDBRANCH   1   8
BRANCH   4  14
ATOM     14  S   UNL     1       5.560   5.633  15.624  0.00  0.00    +0.000 S 
ATOM     15  O   UNL     1       5.783   4.557  14.681  0.00  0.00    +0.000 OA
ATOM     16  O   UNL     1       5.080   6.924  15.157  0.00  0.00    +0.000 OA
BRANCH  14  17
ATOM     17  C   UNL     1       7.087   5.878  16.508  0.00  0.00    +0.000 C 
BRANCH  17  18
ATOM     18  C   UNL     1       7.496   4.619  17.276  0.00  0.00    +0.000 C 
BRANCH  18  19
ATOM     19  C   UNL     1       7.101   4.726  18.749  0.00  0.00    +0.000 C 
BRANCH  19  20
ATOM     20  C   UNL     1       7.862   5.836  19.464  0.00  0.00    +0.000 C 
BRANCH  20  21
ATOM     21  O   UNL     1       8.221   5.402  20.768  0.00  0.00    +0.000 OA
ATOM     22  H   UNL     1       8.069   6.145  21.378  0.00  0.00    +0.000 HD
ENDBRANCH  20  21
ENDBRANCH  19  20
ENDBRANCH  18  19
ENDBRANCH  17  18
ENDBRANCH  14  17
ENDBRANCH   4  14
TORSDOF 8
ENDMDL
