MODEL 1
REMARK VINA RESULT:      -8.0      0.000      0.000
REMARK  Name = 
REMARK  3 active torsions:
REMARK  status: ('A' for Active; 'I' for Inactive)
REMARK    1  A    between atoms: C_1  and  O_2
REMARK    2  A    between atoms: O_2  and  C_3
REMARK    3  A    between atoms: C_7  and  C_8
REMARK                            x       y       z     vdW  Elec       q    Type
REMARK                         _______ _______ _______ _____ _____    ______ ____
ROOT
ATOM      1  C   UNL     1       5.928   5.212  16.059  0.00  0.00    +0.000 C 
ATOM      2  C   UNL     1       6.364   4.163  17.086  0.00  0.00    +0.000 C 
ATOM      3  C   UNL     1       6.105   4.856  18.397  0.00  0.00    +0.000 C 
ATOM      4  O   UNL     1       6.933   5.003  19.274  0.00  0.00    +0.000 OA
ATOM      5  C   UNL     1       4.680   5.241  18.597  0.00  0.00    +0.000 A 
ATOM      6  C   UNL     1       4.145   5.127  19.876  0.00  0.00    +0.000 A 
ATOM      7  C   UNL     1       2.930   4.493  19.922  0.00  0.00    +0.000 A 
ATOM      8  C   UNL     1       2.254   4.112  18.780  0.00  0.00    +0.000 A 
ATOM      9  C   UNL     1       2.673   4.479  17.515  0.00  0.00    +0.000 A 
ATOM     10  C   UNL     1       3.922   5.080  17.416  0.00  0.00    +0.000 A 
ATOM     11  N   UNL     1       4.457   5.416  16.149  0.00  0.00    +0.000 N 
ATOM     12  O   UNL     1       1.222   3.269  19.062  0.00  0.00    +0.000 OA
ATOM     13  C   UNL     1       1.405   3.085  20.481  0.00  0.00    +0.000 C 
ATOM     14  O   UNL     1       2.349   4.014  21.054  0.00  0.00    +0.000 OA
ATOM     15  H   UNL     1       4.289   6.416  15.993  0.00  0.00    +0.000 HD
ENDROOT
BRANCH   1  20
ATOM     16  C   UNL     1       5.958   3.563  12.624  0.00  0.00    +0.000 A 
ATOM     17  C   UNL     1       7.122   4.091  12.067  0.00  0.00    +0.000 A 
ATOM     18  C   UNL     1       7.883   5.029  12.761  0.00  0.00    +0.000 A 
ATOM     19  C   UNL     1       7.488   5.428  14.046  0.00  0.00    +0.000 A 
ATOM     20  C   UNL     1       6.337   4.890  14.640  0.00  0.00    +0.000 A 
ATOM     21  C   UNL     1       5.566   3.971  13.901  0.00  0.00    +0.000 A 
BRANCH  16  23
ATOM     22  C   UNL     1       4.117   3.072  11.200  0.00  0.00    +0.000 C 
ATOM     23  O   UNL     1       5.312   2.647  11.841  0.00  0.00    +0.000 OA
ENDBRANCH  16  23
ENDBRANCH   1  20
TORSDOF 2
ENDMDL
MODEL 2
REMARK VINA RESULT:      -7.6      4.901      8.188
REMARK  Name = 
REMARK  3 active torsions:
REMARK  status: ('A' for Active; 'I' for Inactive)
REMARK    1  A    between atoms: C_1  and  O_2
REMARK    2  A    between atoms: O_2  and  C_3
REMARK    3  A    between atoms: C_7  and  C_8
REMARK                            x       y       z     vdW  Elec       q    Type
REMARK                         _______ _______ _______ _____ _____    ______ ____
ROOT
ATOM      1  C   UNL     1       1.972   8.387  19.680  0.00  0.00    +0.000 C 
ATOM      2  C   UNL     1       1.895   7.850  18.248  0.00  0.00    +0.000 C 
ATOM      3  C   UNL     1       3.156   7.036  18.132  0.00  0.00    +0.000 C 
ATOM      4  O   UNL     1       3.990   7.178  17.261  0.00  0.00    +0.000 OA
ATOM      5  C   UNL     1       3.240   5.922  19.118  0.00  0.00    +0.000 A 
ATOM      6  C   UNL     1       3.802   4.721  18.701  0.00  0.00    +0.000 A 
ATOM      7  C   UNL     1       3.066   3.611  19.028  0.00  0.00    +0.000 A 
ATOM      8  C   UNL     1       1.928   3.687  19.807  0.00  0.00    +0.000 A 
ATOM      9  C   UNL     1       1.539   4.852  20.439  0.00  0.00    +0.000 A 
ATOM     10  C   UNL     1       2.227   6.012  20.099  0.00  0.00    +0.000 A 
ATOM     11  N   UNL     1       1.840   7.260  20.642  0.00  0.00    +0.000 N 
ATOM     12  O   UNL     1       1.217   2.525  19.775  0.00  0.00    +0.000 OA
ATOM     13  C   UNL     1       1.978   1.770  18.809  0.00  0.00    +0.000 C 
ATOM     14  O   UNL     1       3.251   2.373  18.497  0.00  0.00    +0.000 OA
ATOM     15  H   UNL     1       2.469   7.469  21.426  0.00  0.00    +0.000 HD
ENDROOT
BRANCH   1  20
ATOM     16  C   UNL     1      -0.188  10.816  21.669  0.00  0.00    +0.000 A 
ATOM     17  C   UNL     1      -1.012  11.341  20.674  0.00  0.00    +0.000 A 
ATOM     18  C   UNL     1      -0.848  10.969  19.341  0.00  0.00    +0.000 A 
ATOM     19  C   UNL     1       0.141  10.035  19.000  0.00  0.00    +0.000 A 
ATOM     20  C   UNL     1       0.963   9.470  19.985  0.00  0.00    +0.000 A 
ATOM     21  C   UNL     1       0.800   9.893  21.320  0.00  0.00    +0.000 A 
BRANCH  16  23
ATOM     22  C   UNL     1      -1.731  11.861  23.147  0.00  0.00    +0.000 C 
ATOM     23  O   UNL     1      -0.461  11.258  22.933  0.00  0.00    +0.000 OA
ENDBRANCH  16  23
ENDBRANCH   1  20
TORSDOF 2
ENDMDL
MODEL 3
REMARK VINA RESULT:      -7.5      1.660      6.753
REMARK  Name = 
REMARK  3 active torsions:
REMARK  status: ('A' for Active; 'I' for Inactive)
REMARK    1  A    between atoms: C_1  and  O_2
REMARK    2  A    between atoms: O_2  and  C_3
REMARK    3  A    between atoms: C_7  and  C_8
REMARK                            x       y       z     vdW  Elec       q    Type
REMARK                         _______ _______ _______ _____ _____    ______ ____
ROOT
ATOM      1  C   UNL     1       4.922   5.307  18.351  0.00  0.00    +0.000 C 
ATOM      2  C   UNL     1       4.849   6.483  17.372  0.00  0.00    +0.000 C 
ATOM      3  C   UNL     1       6.274   6.612  16.905  0.00  0.00    +0.000 C 
ATOM      4  O   UNL     1       6.925   7.636  16.955  0.00  0.00    +0.000 OA
ATOM      5  C   UNL     1       6.795   5.388  16.234  0.00  0.00    +0.000 A 
ATOM      6  C   UNL     1       7.640   5.552  15.141  0.00  0.00    +0.000 A 
ATOM      7  C   UNL     1       7.309   4.783  14.055  0.00  0.00    +0.000 A 
ATOM      8  C   UNL     1       6.295   3.847  14.097  0.00  0.00    +0.000 A 
ATOM      9  C   UNL     1       5.650   3.507  15.271  0.00  0.00    +0.000 A 
ATOM     10  C   UNL     1       5.918   4.292  16.387  0.00  0.00    +0.000 A 
ATOM     11  N   UNL     1       5.241   4.058  17.607  0.00  0.00    +0.000 N 
ATOM     12  O   UNL     1       5.963   3.405  12.852  0.00  0.00    +0.000 OA
ATOM     13  C   UNL     1       6.801   4.248  12.035  0.00  0.00    +0.000 C 
ATOM     14  O   UNL     1       7.794   4.967  12.798  0.00  0.00    +0.000 OA
ATOM     15  H   UNL     1       5.862   3.508  18.211  0.00  0.00    +0.000 HD
ENDROOT
BRANCH   1  20
ATOM     16  C   UNL     1       1.883   3.650  19.944  0.00  0.00    +0.000 A 
ATOM     17  C   UNL     1       1.264   4.733  20.567  0.00  0.00    +0.000 A 
ATOM     18  C   UNL     1       1.843   6.000  20.536  0.00  0.00    +0.000 A 
ATOM     19  C   UNL     1       3.049   6.194  19.847  0.00  0.00    +0.000 A 
ATOM     20  C   UNL     1       3.677   5.127  19.189  0.00  0.00    +0.000 A 
ATOM     21  C   UNL     1       3.089   3.848  19.269  0.00  0.00    +0.000 A 
BRANCH  16  23
ATOM     22  C   UNL     1       0.624   1.950  18.855  0.00  0.00    +0.000 C 
ATOM     23  O   UNL     1       1.206   2.467  20.045  0.00  0.00    +0.000 OA
ENDBRANCH  16  23
ENDBRANCH   1  20
TORSDOF 2
ENDMDL
MODEL 4
REMARK VINA RESULT:      -7.5      1.864      7.122
REMARK  Name = 
REMARK  3 active torsions:
REMARK  status: ('A' for Active; 'I' for Inactive)
REMARK    1  A    between atoms: C_1  and  O_2
REMARK    2  A    between atoms: O_2  and  C_3
REMARK    3  A    between atoms: C_7  and  C_8
REMARK                            x       y       z     vdW  Elec       q    Type
REMARK                         _______ _______ _______ _____ _____    ______ ____
ROOT
ATOM      1  C   UNL     1       4.757   5.108  18.178  0.00  0.00    +0.000 C 
ATOM      2  C   UNL     1       4.708   6.318  17.242  0.00  0.00    +0.000 C 
ATOM      3  C   UNL     1       6.149   6.481  16.837  0.00  0.00    +0.000 C 
ATOM      4  O   UNL     1       6.785   7.510  16.952  0.00  0.00    +0.000 OA
ATOM      5  C   UNL     1       6.712   5.290  16.142  0.00  0.00    +0.000 A 
ATOM      6  C   UNL     1       7.597   5.504  15.091  0.00  0.00    +0.000 A 
ATOM      7  C   UNL     1       7.319   4.774  13.964  0.00  0.00    +0.000 A 
ATOM      8  C   UNL     1       6.316   3.826  13.931  0.00  0.00    +0.000 A 
ATOM      9  C   UNL     1       5.629   3.434  15.064  0.00  0.00    +0.000 A 
ATOM     10  C   UNL     1       5.843   4.179  16.218  0.00  0.00    +0.000 A 
ATOM     11  N   UNL     1       5.121   3.891  17.401  0.00  0.00    +0.000 N 
ATOM     12  O   UNL     1       6.040   3.428  12.657  0.00  0.00    +0.000 OA
ATOM     13  C   UNL     1       6.899   4.311  11.907  0.00  0.00    +0.000 C 
ATOM     14  O   UNL     1       7.851   5.011  12.736  0.00  0.00    +0.000 OA
ATOM     15  H   UNL     1       5.725   3.325  18.008  0.00  0.00    +0.000 HD
ENDROOT
BRANCH   1  20
ATOM     16  C   UNL     1       1.780   5.793  20.455  0.00  0.00    +0.000 A 
ATOM     17  C   UNL     1       1.221   4.522  20.581  0.00  0.00    +0.000 A 
ATOM     18  C   UNL     1       1.756   3.436  19.890  0.00  0.00    +0.000 A 
ATOM     19  C   UNL     1       2.886   3.619  19.079  0.00  0.00    +0.000 A 
ATOM     20  C   UNL     1       3.482   4.882  18.958  0.00  0.00    +0.000 A 
ATOM     21  C   UNL     1       2.898   5.970  19.638  0.00  0.00    +0.000 A 
BRANCH  16  23
ATOM     22  C   UNL     1       1.422   8.115  20.829  0.00  0.00    +0.000 C 
ATOM     23  O   UNL     1       1.163   6.766  21.192  0.00  0.00    +0.000 OA
ENDBRANCH  16  23
ENDBRANCH   1  20
TORSDOF 2
ENDMDL
MODEL 5
REMARK VINA RESULT:      -7.4      1.616      7.105
REMARK  Name = 
REMARK  3 active torsions:
REMARK  status: ('A' for Active; 'I' for Inactive)
REMARK    1  A    between atoms: C_1  and  O_2
REMARK    2  A    between atoms: O_2  and  C_3
REMARK    3  A    between atoms: C_7  and  C_8
REMARK                            x       y       z     vdW  Elec       q    Type
REMARK                         _______ _______ _______ _____ _____    ______ ____
ROOT
ATOM      1  C   UNL     1       4.626   4.730  17.884  0.00  0.00    +0.000 C 
ATOM      2  C   UNL     1       4.540   6.024  17.070  0.00  0.00    +0.000 C 
ATOM      3  C   UNL     1       5.986   6.336  16.790  0.00  0.00    +0.000 C 
ATOM      4  O   UNL     1       6.526   7.392  17.052  0.00  0.00    +0.000 OA
ATOM      5  C   UNL     1       6.690   5.268  16.026  0.00  0.00    +0.000 A 
ATOM      6  C   UNL     1       7.622   5.655  15.069  0.00  0.00    +0.000 A 
ATOM      7  C   UNL     1       7.480   5.026  13.859  0.00  0.00    +0.000 A 
ATOM      8  C   UNL     1       6.563   4.013  13.659  0.00  0.00    +0.000 A 
ATOM      9  C   UNL     1       5.837   3.457  14.695  0.00  0.00    +0.000 A 
ATOM     10  C   UNL     1       5.913   4.093  15.929  0.00  0.00    +0.000 A 
ATOM     11  N   UNL     1       5.139   3.631  17.021  0.00  0.00    +0.000 N 
ATOM     12  O   UNL     1       6.405   3.730  12.336  0.00  0.00    +0.000 OA
ATOM     13  C   UNL     1       7.236   4.748  11.741  0.00  0.00    +0.000 C 
ATOM     14  O   UNL     1       8.071   5.428  12.702  0.00  0.00    +0.000 OA
ATOM     15  H   UNL     1       5.747   3.053  17.613  0.00  0.00    +0.000 HD
ENDROOT
BRANCH   1  20
ATOM     16  C   UNL     1       2.146   3.694  20.585  0.00  0.00    +0.000 A 
ATOM     17  C   UNL     1       1.009   3.410  19.830  0.00  0.00    +0.000 A 
ATOM     18  C   UNL     1       1.001   3.603  18.450  0.00  0.00    +0.000 A 
ATOM     19  C   UNL     1       2.160   4.064  17.809  0.00  0.00    +0.000 A 
ATOM     20  C   UNL     1       3.326   4.330  18.542  0.00  0.00    +0.000 A 
ATOM     21  C   UNL     1       3.294   4.161  19.941  0.00  0.00    +0.000 A 
BRANCH  16  23
ATOM     22  C   UNL     1       1.288   2.296  22.308  0.00  0.00    +0.000 C 
ATOM     23  O   UNL     1       2.021   3.452  21.924  0.00  0.00    +0.000 OA
ENDBRANCH  16  23
ENDBRANCH   1  20
TORSDOF 2
ENDMDL
MODEL 6
REMARK VINA RESULT:      -7.4      5.627      7.749
REMARK  Name = 
REMARK  3 active torsions:
REMARK  status: ('A' for Active; 'I' for Inactive)
REMARK    1  A    between atoms: C_1  and  O_2
REMARK    2  A    between atoms: O_2  and  C_3
REMARK    3  A    between atoms: C_7  and  C_8
REMARK                            x       y       z     vdW  Elec       q    Type
REMARK                         _______ _______ _______ _____ _____    ______ ____
ROOT
ATOM      1  C   UNL     1       2.051   7.819  19.977  0.00  0.00    +0.000 C 
ATOM      2  C   UNL     1       1.001   7.797  21.091  0.00  0.00    +0.000 C 
ATOM      3  C   UNL     1       1.105   9.182  21.671  0.00  0.00    +0.000 C 
ATOM      4  O   UNL     1       1.292   9.424  22.847  0.00  0.00    +0.000 OA
ATOM      5  C   UNL     1       0.819  10.264  20.688  0.00  0.00    +0.000 A 
ATOM      6  C   UNL     1       0.124  11.384  21.131  0.00  0.00    +0.000 A 
ATOM      7  C   UNL     1      -0.918  11.756  20.321  0.00  0.00    +0.000 A 
ATOM      8  C   UNL     1      -1.168  11.136  19.113  0.00  0.00    +0.000 A 
ATOM      9  C   UNL     1      -0.303  10.210  18.563  0.00  0.00    +0.000 A 
ATOM     10  C   UNL     1       0.740   9.767  19.368  0.00  0.00    +0.000 A 
ATOM     11  N   UNL     1       1.624   8.762  18.908  0.00  0.00    +0.000 N 
ATOM     12  O   UNL     1      -2.391  11.474  18.616  0.00  0.00    +0.000 OA
ATOM     13  C   UNL     1      -2.908  12.276  19.697  0.00  0.00    +0.000 C 
ATOM     14  O   UNL     1      -1.904  12.622  20.675  0.00  0.00    +0.000 OA
ATOM     15  H   UNL     1       2.475   9.225  18.568  0.00  0.00    +0.000 HD
ENDROOT
BRANCH   1  20
ATOM     16  C   UNL     1       2.496   4.043  19.736  0.00  0.00    +0.000 A 
ATOM     17  C   UNL     1       3.079   3.906  18.477  0.00  0.00    +0.000 A 
ATOM     18  C   UNL     1       3.284   5.017  17.662  0.00  0.00    +0.000 A 
ATOM     19  C   UNL     1       2.923   6.292  18.124  0.00  0.00    +0.000 A 
ATOM     20  C   UNL     1       2.361   6.459  19.397  0.00  0.00    +0.000 A 
ATOM     21  C   UNL     1       2.131   5.313  20.186  0.00  0.00    +0.000 A 
BRANCH  16  23
ATOM     22  C   UNL     1       1.519   2.900  21.580  0.00  0.00    +0.000 C 
ATOM     23  O   UNL     1       2.359   2.875  20.435  0.00  0.00    +0.000 OA
ENDBRANCH  16  23
ENDBRANCH   1  20
TORSDOF 2
ENDMDL
MODEL 7
REMARK VINA RESULT:      -7.4      4.979      7.645
REMARK  Name = 
REMARK  3 active torsions:
REMARK  status: ('A' for Active; 'I' for Inactive)
REMARK    1  A    between atoms: C_1  and  O_2
REMARK    2  A    between atoms: O_2  and  C_3
REMARK    3  A    between atoms: C_7  and  C_8
REMARK                            x       y       z     vdW  Elec       q    Type
REMARK                         _______ _______ _______ _____ _____    ______ ____
ROOT
ATOM      1  C   UNL     1       1.876   8.499  19.530  0.00  0.00    +0.000 C 
ATOM      2  C   UNL     1       1.857   7.901  18.120  0.00  0.00    +0.000 C 
ATOM      3  C   UNL     1       3.176   7.178  18.051  0.00  0.00    +0.000 C 
ATOM      4  O   UNL     1       4.009   7.346  17.183  0.00  0.00    +0.000 OA
ATOM      5  C   UNL     1       3.328   6.114  19.083  0.00  0.00    +0.000 A 
ATOM      6  C   UNL     1       3.983   4.941  18.721  0.00  0.00    +0.000 A 
ATOM      7  C   UNL     1       3.326   3.795  19.086  0.00  0.00    +0.000 A 
ATOM      8  C   UNL     1       2.176   3.817  19.849  0.00  0.00    +0.000 A 
ATOM      9  C   UNL     1       1.694   4.975  20.429  0.00  0.00    +0.000 A 
ATOM     10  C   UNL     1       2.300   6.168  20.048  0.00  0.00    +0.000 A 
ATOM     11  N   UNL     1       1.815   7.405  20.536  0.00  0.00    +0.000 N 
ATOM     12  O   UNL     1       1.553   2.606  19.858  0.00  0.00    +0.000 OA
ATOM     13  C   UNL     1       2.379   1.871  18.932  0.00  0.00    +0.000 C 
ATOM     14  O   UNL     1       3.609   2.554  18.608  0.00  0.00    +0.000 OA
ATOM     15  H   UNL     1       2.416   7.691  21.317  0.00  0.00    +0.000 HD
ENDROOT
BRANCH   1  20
ATOM     16  C   UNL     1      -0.756  11.170  18.855  0.00  0.00    +0.000 A 
ATOM     17  C   UNL     1      -1.112  11.550  20.148  0.00  0.00    +0.000 A 
ATOM     18  C   UNL     1      -0.557  10.914  21.257  0.00  0.00    +0.000 A 
ATOM     19  C   UNL     1       0.391   9.897  21.069  0.00  0.00    +0.000 A 
ATOM     20  C   UNL     1       0.787   9.516  19.779  0.00  0.00    +0.000 A 
ATOM     21  C   UNL     1       0.181  10.151  18.675  0.00  0.00    +0.000 A 
BRANCH  16  23
ATOM     22  C   UNL     1      -2.347  11.199  17.086  0.00  0.00    +0.000 C 
ATOM     23  O   UNL     1      -1.369  11.880  17.861  0.00  0.00    +0.000 OA
ENDBRANCH  16  23
ENDBRANCH   1  20
TORSDOF 2
ENDMDL
MODEL 8
REMARK VINA RESULT:      -7.4      5.060      8.331
REMARK  Name = 
REMARK  3 active torsions:
REMARK  status: ('A' for Active; 'I' for Inactive)
REMARK    1  A    between atoms: C_1  and  O_2
REMARK    2  A    between atoms: O_2  and  C_3
REMARK    3  A    between atoms: C_7  and  C_8
REMARK                            x       y       z     vdW  Elec       q    Type
REMARK                         _______ _______ _______ _____ _____    ______ ____
ROOT
ATOM      1  C   UNL     1       1.753   8.387  20.378  0.00  0.00    +0.000 C 
ATOM      2  C   UNL     1       1.484   8.171  18.886  0.00  0.00    +0.000 C 
ATOM      3  C   UNL     1       2.756   7.520  18.412  0.00  0.00    +0.000 C 
ATOM      4  O   UNL     1       3.435   7.924  17.490  0.00  0.00    +0.000 OA
ATOM      5  C   UNL     1       3.056   6.230  19.095  0.00  0.00    +0.000 A 
ATOM      6  C   UNL     1       3.615   5.205  18.339  0.00  0.00    +0.000 A 
ATOM      7  C   UNL     1       3.003   3.988  18.502  0.00  0.00    +0.000 A 
ATOM      8  C   UNL     1       1.998   3.788  19.427  0.00  0.00    +0.000 A 
ATOM      9  C   UNL     1       1.647   4.747  20.358  0.00  0.00    +0.000 A 
ATOM     10  C   UNL     1       2.206   6.011  20.201  0.00  0.00    +0.000 A 
ATOM     11  N   UNL     1       1.838   7.069  21.065  0.00  0.00    +0.000 N 
ATOM     12  O   UNL     1       1.359   2.601  19.229  0.00  0.00    +0.000 OA
ATOM     13  C   UNL     1       2.001   2.148  18.020  0.00  0.00    +0.000 C 
ATOM     14  O   UNL     1       3.174   2.918  17.680  0.00  0.00    +0.000 OA
ATOM     15  H   UNL     1       2.568   7.158  21.781  0.00  0.00    +0.000 HD
ENDROOT
BRANCH   1  20
ATOM     16  C   UNL     1      -0.751  11.208  20.915  0.00  0.00    +0.000 A 
ATOM     17  C   UNL     1      -1.003  11.107  22.282  0.00  0.00    +0.000 A 
ATOM     18  C   UNL     1      -0.420  10.094  23.042  0.00  0.00    +0.000 A 
ATOM     19  C   UNL     1       0.452   9.183  22.428  0.00  0.00    +0.000 A 
ATOM     20  C   UNL     1       0.744   9.281  21.061  0.00  0.00    +0.000 A 
ATOM     21  C   UNL     1       0.111  10.292  20.309  0.00  0.00    +0.000 A 
BRANCH  16  23
ATOM     22  C   UNL     1      -1.327  12.283  18.872  0.00  0.00    +0.000 C 
ATOM     23  O   UNL     1      -1.380  12.251  20.292  0.00  0.00    +0.000 OA
ENDBRANCH  16  23
ENDBRANCH   1  20
TORSDOF 2
ENDMDL
MODEL 9
REMARK VINA RESULT:      -7.4      6.474      8.282
REMARK  Name = 
REMARK  3 active torsions:
REMARK  status: ('A' for Active; 'I' for Inactive)
REMARK    1  A    between atoms: C_1  and  O_2
REMARK    2  A    between atoms: O_2  and  C_3
REMARK    3  A    between atoms: C_7  and  C_8
REMARK                            x       y       z     vdW  Elec       q    Type
REMARK                         _______ _______ _______ _____ _____    ______ ____
ROOT
ATOM      1  C   UNL     1       1.498   9.326  19.066  0.00  0.00    +0.000 C 
ATOM      2  C   UNL     1       0.646   9.285  20.338  0.00  0.00    +0.000 C 
ATOM      3  C   UNL     1       0.254  10.727  20.519  0.00  0.00    +0.000 C 
ATOM      4  O   UNL     1       0.438  11.369  21.533  0.00  0.00    +0.000 OA
ATOM      5  C   UNL     1      -0.520  11.283  19.374  0.00  0.00    +0.000 A 
ATOM      6  C   UNL     1      -1.555  12.170  19.653  0.00  0.00    +0.000 A 
ATOM      7  C   UNL     1      -2.728  11.888  19.002  0.00  0.00    +0.000 A 
ATOM      8  C   UNL     1      -2.826  10.879  18.064  0.00  0.00    +0.000 A 
ATOM      9  C   UNL     1      -1.722  10.189  17.601  0.00  0.00    +0.000 A 
ATOM     10  C   UNL     1      -0.520  10.408  18.265  0.00  0.00    +0.000 A 
ATOM     11  N   UNL     1       0.640   9.683  17.903  0.00  0.00    +0.000 N 
ATOM     12  O   UNL     1      -4.123  10.602  17.756  0.00  0.00    +0.000 OA
ATOM     13  C   UNL     1      -4.812  11.466  18.682  0.00  0.00    +0.000 C 
ATOM     14  O   UNL     1      -3.938  12.423  19.319  0.00  0.00    +0.000 OA
ATOM     15  H   UNL     1       1.208  10.283  17.294  0.00  0.00    +0.000 HD
ENDROOT
BRANCH   1  20
ATOM     16  C   UNL     1       2.941   5.837  19.577  0.00  0.00    +0.000 A 
ATOM     17  C   UNL     1       3.785   5.715  18.475  0.00  0.00    +0.000 A 
ATOM     18  C   UNL     1       3.859   6.726  17.518  0.00  0.00    +0.000 A 
ATOM     19  C   UNL     1       3.096   7.891  17.681  0.00  0.00    +0.000 A 
ATOM     20  C   UNL     1       2.261   8.050  18.796  0.00  0.00    +0.000 A 
ATOM     21  C   UNL     1       2.176   6.995  19.728  0.00  0.00    +0.000 A 
BRANCH  16  23
ATOM     22  C   UNL     1       1.719   4.256  20.869  0.00  0.00    +0.000 C 
ATOM     23  O   UNL     1       2.970   4.777  20.441  0.00  0.00    +0.000 OA
ENDBRANCH  16  23
ENDBRANCH   1  20
TORSDOF 2
ENDMDL
