MODEL 1
REMARK VINA RESULT:      -7.8      0.000      0.000
REMARK  Name = 
REMARK  4 active torsions:
REMARK  status: ('A' for Active; 'I' for Inactive)
REMARK    1  A    between atoms: C_2  and  C_11
REMARK    2  A    between atoms: N_3  and  C_4
REMARK    3  A    between atoms: C_14  and  C_15
REMARK    4  A    between atoms: C_15  and  C_16
REMARK                            x       y       z     vdW  Elec       q    Type
REMARK                         _______ _______ _______ _____ _____    ______ ____
ROOT
ATOM      1  C   UNL     1       7.809   7.893  17.982  0.00  0.00    +0.000 A 
ATOM      2  C   UNL     1       8.223   6.839  18.777  0.00  0.00    +0.000 A 
ATOM      3  S   UNL     1       7.461   5.394  18.293  0.00  0.00    +0.000 S 
ATOM      4  C   UNL     1       6.633   6.260  17.054  0.00  0.00    +0.000 A 
ATOM      5  N   UNL     1       6.903   7.551  16.977  0.00  0.00    +0.000 NA
ENDROOT
BRANCH   1   7
ATOM      6  O   UNL     1       7.946  10.140  17.396  0.00  0.00    +0.000 OA
ATOM      7  C   UNL     1       8.279   9.264  18.183  0.00  0.00    +0.000 C 
ATOM      8  N   UNL     1       9.127   9.416  19.269  0.00  0.00    +0.000 N 
ATOM      9  H   UNL     1       9.397   8.549  19.725  0.00  0.00    +0.000 HD
BRANCH   8  10
ATOM     10  C   UNL     1       9.749  10.621  19.647  0.00  0.00    +0.000 A 
ATOM     11  C   UNL     1       9.450  11.267  20.854  0.00  0.00    +0.000 A 
ATOM     12  C   UNL     1       9.988  12.517  21.154  0.00  0.00    +0.000 A 
ATOM     13  C   UNL     1      10.852  13.117  20.253  0.00  0.00    +0.000 A 
ATOM     14  F   UNL     1      11.344  14.333  20.523  0.00  0.00    +0.000 F 
ATOM     15  C   UNL     1      11.213  12.472  19.076  0.00  0.00    +0.000 A 
ATOM     16  C   UNL     1      10.670  11.213  18.777  0.00  0.00    +0.000 A 
ENDBRANCH   8  10
ENDBRANCH   1   7
BRANCH   4  17
ATOM     17  C   UNL     1       5.699   5.532  16.137  0.00  0.00    +0.000 C 
BRANCH  17  18
ATOM     18  C   UNL     1       4.414   5.107  16.808  0.00  0.00    +0.000 A 
ATOM     19  C   UNL     1       3.641   6.034  17.522  0.00  0.00    +0.000 A 
ATOM     20  C   UNL     1       2.439   5.646  18.118  0.00  0.00    +0.000 A 
ATOM     21  C   UNL     1       2.004   4.327  18.014  0.00  0.00    +0.000 A 
ATOM     22  C   UNL     1       2.774   3.391  17.326  0.00  0.00    +0.000 A 
ATOM     23  C   UNL     1       3.976   3.776  16.730  0.00  0.00    +0.000 A 
ENDBRANCH  17  18
ENDBRANCH   4  17
TORSDOF 4
ENDMDL
MODEL 2
REMARK VINA RESULT:      -7.8      0.055      1.031
REMARK  Name = 
REMARK  4 active torsions:
REMARK  status: ('A' for Active; 'I' for Inactive)
REMARK    1  A    between atoms: C_2  and  C_11
REMARK    2  A    between atoms: N_3  and  C_4
REMARK    3  A    between atoms: C_14  and  C_15
REMARK    4  A    between atoms: C_15  and  C_16
REMARK                            x       y       z     vdW  Elec       q    Type
REMARK                         _______ _______ _______ _____ _____    ______ ____
ROOT
ATOM      1  C   UNL     1       7.816   7.900  17.966  0.00  0.00    +0.000 A 
ATOM      2  C   UNL     1       8.238   6.836  18.743  0.00  0.00    +0.000 A 
ATOM      3  S   UNL     1       7.471   5.397  18.249  0.00  0.00    +0.000 S 
ATOM      4  C   UNL     1       6.629   6.278  17.031  0.00  0.00    +0.000 A 
ATOM      5  N   UNL     1       6.899   7.570  16.967  0.00  0.00    +0.000 NA
ENDROOT
BRANCH   1   7
ATOM      6  O   UNL     1       7.944  10.155  17.409  0.00  0.00    +0.000 OA
ATOM      7  C   UNL     1       8.287   9.268  18.180  0.00  0.00    +0.000 C 
ATOM      8  N   UNL     1       9.150   9.406  19.257  0.00  0.00    +0.000 N 
ATOM      9  H   UNL     1       9.426   8.533  19.697  0.00  0.00    +0.000 HD
BRANCH   8  10
ATOM     10  C   UNL     1       9.776  10.606  19.643  0.00  0.00    +0.000 A 
ATOM     11  C   UNL     1       9.426  11.285  20.817  0.00  0.00    +0.000 A 
ATOM     12  C   UNL     1       9.974  12.530  21.119  0.00  0.00    +0.000 A 
ATOM     13  C   UNL     1      10.899  13.092  20.255  0.00  0.00    +0.000 A 
ATOM     14  F   UNL     1      11.402  14.303  20.526  0.00  0.00    +0.000 F 
ATOM     15  C   UNL     1      11.309  12.413  19.114  0.00  0.00    +0.000 A 
ATOM     16  C   UNL     1      10.757  11.159  18.813  0.00  0.00    +0.000 A 
ENDBRANCH   8  10
ENDBRANCH   1   7
BRANCH   4  17
ATOM     17  C   UNL     1       5.685   5.562  16.115  0.00  0.00    +0.000 C 
BRANCH  17  18
ATOM     18  C   UNL     1       4.409   5.126  16.795  0.00  0.00    +0.000 A 
ATOM     19  C   UNL     1       3.990   3.789  16.737  0.00  0.00    +0.000 A 
ATOM     20  C   UNL     1       2.825   3.382  17.390  0.00  0.00    +0.000 A 
ATOM     21  C   UNL     1       2.063   4.309  18.099  0.00  0.00    +0.000 A 
ATOM     22  C   UNL     1       2.457   5.645  18.145  0.00  0.00    +0.000 A 
ATOM     23  C   UNL     1       3.621   6.054  17.492  0.00  0.00    +0.000 A 
ENDBRANCH  17  18
ENDBRANCH   4  17
TORSDOF 4
ENDMDL
MODEL 3
REMARK VINA RESULT:      -7.8      0.308      1.066
REMARK  Name = 
REMARK  4 active torsions:
REMARK  status: ('A' for Active; 'I' for Inactive)
REMARK    1  A    between atoms: C_2  and  C_11
REMARK    2  A    between atoms: N_3  and  C_4
REMARK    3  A    between atoms: C_14  and  C_15
REMARK    4  A    between atoms: C_15  and  C_16
REMARK                            x       y       z     vdW  Elec       q    Type
REMARK                         _______ _______ _______ _____ _____    ______ ____
ROOT
ATOM      1  C   UNL     1       7.696   7.670  17.901  0.00  0.00    +0.000 A 
ATOM      2  C   UNL     1       8.169   6.662  18.722  0.00  0.00    +0.000 A 
ATOM      3  S   UNL     1       7.451   5.172  18.311  0.00  0.00    +0.000 S 
ATOM      4  C   UNL     1       6.560   5.961  17.064  0.00  0.00    +0.000 A 
ATOM      5  N   UNL     1       6.779   7.257  16.933  0.00  0.00    +0.000 NA
ENDROOT
BRANCH   1   7
ATOM      6  O   UNL     1       7.695   9.906  17.260  0.00  0.00    +0.000 OA
ATOM      7  C   UNL     1       8.118   9.063  18.040  0.00  0.00    +0.000 C 
ATOM      8  N   UNL     1       9.032   9.277  19.062  0.00  0.00    +0.000 N 
ATOM      9  H   UNL     1       9.369   8.433  19.515  0.00  0.00    +0.000 HD
BRANCH   8  10
ATOM     10  C   UNL     1       9.625  10.516  19.370  0.00  0.00    +0.000 A 
ATOM     11  C   UNL     1      10.391  11.228  18.438  0.00  0.00    +0.000 A 
ATOM     12  C   UNL     1      11.065  12.393  18.800  0.00  0.00    +0.000 A 
ATOM     13  C   UNL     1      10.955  12.865  20.097  0.00  0.00    +0.000 A 
ATOM     14  F   UNL     1      11.629  13.965  20.457  0.00  0.00    +0.000 F 
ATOM     15  C   UNL     1      10.153  12.212  21.026  0.00  0.00    +0.000 A 
ATOM     16  C   UNL     1       9.474  11.040  20.658  0.00  0.00    +0.000 A 
ENDBRANCH   8  10
ENDBRANCH   1   7
BRANCH   4  17
ATOM     17  C   UNL     1       5.632   5.165  16.198  0.00  0.00    +0.000 C 
BRANCH  17  18
ATOM     18  C   UNL     1       4.319   4.841  16.871  0.00  0.00    +0.000 A 
ATOM     19  C   UNL     1       3.592   5.839  17.535  0.00  0.00    +0.000 A 
ATOM     20  C   UNL     1       2.364   5.544  18.132  0.00  0.00    +0.000 A 
ATOM     21  C   UNL     1       1.858   4.247  18.079  0.00  0.00    +0.000 A 
ATOM     22  C   UNL     1       2.582   3.242  17.441  0.00  0.00    +0.000 A 
ATOM     23  C   UNL     1       3.809   3.534  16.844  0.00  0.00    +0.000 A 
ENDBRANCH  17  18
ENDBRANCH   4  17
TORSDOF 4
ENDMDL
MODEL 4
REMARK VINA RESULT:      -7.7      0.291      1.480
REMARK  Name = 
REMARK  4 active torsions:
REMARK  status: ('A' for Active; 'I' for Inactive)
REMARK    1  A    between atoms: C_2  and  C_11
REMARK    2  A    between atoms: N_3  and  C_4
REMARK    3  A    between atoms: C_14  and  C_15
REMARK    4  A    between atoms: C_15  and  C_16
REMARK                            x       y       z     vdW  Elec       q    Type
REMARK                         _______ _______ _______ _____ _____    ______ ____
ROOT
ATOM      1  C   UNL     1       7.687   7.705  17.913  0.00  0.00    +0.000 A 
ATOM      2  C   UNL     1       8.160   6.691  18.727  0.00  0.00    +0.000 A 
ATOM      3  S   UNL     1       7.427   5.208  18.319  0.00  0.00    +0.000 S 
ATOM      4  C   UNL     1       6.531   6.006  17.082  0.00  0.00    +0.000 A 
ATOM      5  N   UNL     1       6.758   7.301  16.953  0.00  0.00    +0.000 NA
ENDROOT
BRANCH   1   7
ATOM      6  O   UNL     1       7.695   9.942  17.278  0.00  0.00    +0.000 OA
ATOM      7  C   UNL     1       8.120   9.095  18.052  0.00  0.00    +0.000 C 
ATOM      8  N   UNL     1       9.044   9.299  19.066  0.00  0.00    +0.000 N 
ATOM      9  H   UNL     1       9.380   8.452  19.514  0.00  0.00    +0.000 HD
BRANCH   8  10
ATOM     10  C   UNL     1       9.649  10.533  19.372  0.00  0.00    +0.000 A 
ATOM     11  C   UNL     1      10.463  11.211  18.456  0.00  0.00    +0.000 A 
ATOM     12  C   UNL     1      11.146  12.371  18.820  0.00  0.00    +0.000 A 
ATOM     13  C   UNL     1      10.996  12.871  20.102  0.00  0.00    +0.000 A 
ATOM     14  F   UNL     1      11.677  13.965  20.466  0.00  0.00    +0.000 F 
ATOM     15  C   UNL     1      10.148  12.252  21.013  0.00  0.00    +0.000 A 
ATOM     16  C   UNL     1       9.461  11.086  20.643  0.00  0.00    +0.000 A 
ENDBRANCH   8  10
ENDBRANCH   1   7
BRANCH   4  17
ATOM     17  C   UNL     1       5.589   5.220  16.223  0.00  0.00    +0.000 C 
BRANCH  17  18
ATOM     18  C   UNL     1       4.274   4.916  16.901  0.00  0.00    +0.000 A 
ATOM     19  C   UNL     1       3.737   3.621  16.870  0.00  0.00    +0.000 A 
ATOM     20  C   UNL     1       2.535   3.336  17.522  0.00  0.00    +0.000 A 
ATOM     21  C   UNL     1       1.855   4.344  18.202  0.00  0.00    +0.000 A 
ATOM     22  C   UNL     1       2.367   5.640  18.221  0.00  0.00    +0.000 A 
ATOM     23  C   UNL     1       3.568   5.927  17.570  0.00  0.00    +0.000 A 
ENDBRANCH  17  18
ENDBRANCH   4  17
TORSDOF 4
ENDMDL
MODEL 5
REMARK VINA RESULT:      -7.3      1.905      3.295
REMARK  Name = 
REMARK  4 active torsions:
REMARK  status: ('A' for Active; 'I' for Inactive)
REMARK    1  A    between atoms: C_2  and  C_11
REMARK    2  A    between atoms: N_3  and  C_4
REMARK    3  A    between atoms: C_14  and  C_15
REMARK    4  A    between atoms: C_15  and  C_16
REMARK                            x       y       z     vdW  Elec       q    Type
REMARK                         _______ _______ _______ _____ _____    ______ ____
ROOT
ATOM      1  C   UNL     1       7.495   7.410  17.703  0.00  0.00    +0.000 A 
ATOM      2  C   UNL     1       7.960   6.382  18.504  0.00  0.00    +0.000 A 
ATOM      3  S   UNL     1       7.244   4.903  18.049  0.00  0.00    +0.000 S 
ATOM      4  C   UNL     1       6.366   5.723  16.813  0.00  0.00    +0.000 A 
ATOM      5  N   UNL     1       6.588   7.022  16.716  0.00  0.00    +0.000 NA
ENDROOT
BRANCH   1   7
ATOM      6  O   UNL     1       7.486   9.664  17.129  0.00  0.00    +0.000 OA
ATOM      7  C   UNL     1       7.917   8.799  17.880  0.00  0.00    +0.000 C 
ATOM      8  N   UNL     1       8.838   8.984  18.901  0.00  0.00    +0.000 N 
ATOM      9  H   UNL     1       9.180   8.127  19.326  0.00  0.00    +0.000 HD
BRANCH   8  10
ATOM     10  C   UNL     1       9.432  10.214  19.242  0.00  0.00    +0.000 A 
ATOM     11  C   UNL     1      10.193  10.952  18.326  0.00  0.00    +0.000 A 
ATOM     12  C   UNL     1      10.869  12.106  18.718  0.00  0.00    +0.000 A 
ATOM     13  C   UNL     1      10.764  12.541  20.029  0.00  0.00    +0.000 A 
ATOM     14  F   UNL     1      11.439  13.631  20.416  0.00  0.00    +0.000 F 
ATOM     15  C   UNL     1       9.967  11.862  20.942  0.00  0.00    +0.000 A 
ATOM     16  C   UNL     1       9.287  10.701  20.544  0.00  0.00    +0.000 A 
ENDBRANCH   8  10
ENDBRANCH   1   7
BRANCH   4  17
ATOM     17  C   UNL     1       5.447   4.949  15.919  0.00  0.00    +0.000 C 
BRANCH  17  18
ATOM     18  C   UNL     1       6.047   4.643  14.567  0.00  0.00    +0.000 A 
ATOM     19  C   UNL     1       5.422   3.738  13.696  0.00  0.00    +0.000 A 
ATOM     20  C   UNL     1       5.963   3.479  12.436  0.00  0.00    +0.000 A 
ATOM     21  C   UNL     1       7.139   4.112  12.038  0.00  0.00    +0.000 A 
ATOM     22  C   UNL     1       7.781   4.996  12.903  0.00  0.00    +0.000 A 
ATOM     23  C   UNL     1       7.242   5.257  14.163  0.00  0.00    +0.000 A 
ENDBRANCH  17  18
ENDBRANCH   4  17
TORSDOF 4
ENDMDL
MODEL 6
REMARK VINA RESULT:      -7.3      1.831      3.169
REMARK  Name = 
REMARK  4 active torsions:
REMARK  status: ('A' for Active; 'I' for Inactive)
REMARK    1  A    between atoms: C_2  and  C_11
REMARK    2  A    between atoms: N_3  and  C_4
REMARK    3  A    between atoms: C_14  and  C_15
REMARK    4  A    between atoms: C_15  and  C_16
REMARK                            x       y       z     vdW  Elec       q    Type
REMARK                         _______ _______ _______ _____ _____    ______ ____
ROOT
ATOM      1  C   UNL     1       7.562   7.546  17.768  0.00  0.00    +0.000 A 
ATOM      2  C   UNL     1       8.072   6.503  18.520  0.00  0.00    +0.000 A 
ATOM      3  S   UNL     1       7.366   5.026  18.046  0.00  0.00    +0.000 S 
ATOM      4  C   UNL     1       6.431   5.867  16.867  0.00  0.00    +0.000 A 
ATOM      5  N   UNL     1       6.627   7.172  16.802  0.00  0.00    +0.000 NA
ENDROOT
BRANCH   1   7
ATOM      6  O   UNL     1       7.479   9.818  17.278  0.00  0.00    +0.000 OA
ATOM      7  C   UNL     1       7.966   8.937  17.973  0.00  0.00    +0.000 C 
ATOM      8  N   UNL     1       8.939   9.104  18.948  0.00  0.00    +0.000 N 
ATOM      9  H   UNL     1       9.320   8.241  19.323  0.00  0.00    +0.000 HD
BRANCH   8  10
ATOM     10  C   UNL     1       9.527  10.334  19.300  0.00  0.00    +0.000 A 
ATOM     11  C   UNL     1      10.343  11.050  18.415  0.00  0.00    +0.000 A 
ATOM     12  C   UNL     1      11.009  12.204  18.824  0.00  0.00    +0.000 A 
ATOM     13  C   UNL     1      10.841  12.660  20.120  0.00  0.00    +0.000 A 
ATOM     14  F   UNL     1      11.507  13.750  20.526  0.00  0.00    +0.000 F 
ATOM     15  C   UNL     1       9.991  12.003  21.001  0.00  0.00    +0.000 A 
ATOM     16  C   UNL     1       9.320  10.842  20.586  0.00  0.00    +0.000 A 
ENDBRANCH   8  10
ENDBRANCH   1   7
BRANCH   4  17
ATOM     17  C   UNL     1       5.493   5.104  15.982  0.00  0.00    +0.000 C 
BRANCH  17  18
ATOM     18  C   UNL     1       6.086   4.768  14.634  0.00  0.00    +0.000 A 
ATOM     19  C   UNL     1       7.279   5.370  14.208  0.00  0.00    +0.000 A 
ATOM     20  C   UNL     1       7.840   5.036  12.974  0.00  0.00    +0.000 A 
ATOM     21  C   UNL     1       7.209   4.106  12.150  0.00  0.00    +0.000 A 
ATOM     22  C   UNL     1       6.012   3.518  12.552  0.00  0.00    +0.000 A 
ATOM     23  C   UNL     1       5.449   3.850  13.785  0.00  0.00    +0.000 A 
ENDBRANCH  17  18
ENDBRANCH   4  17
TORSDOF 4
ENDMDL
MODEL 7
REMARK VINA RESULT:      -7.2      1.932      3.060
REMARK  Name = 
REMARK  4 active torsions:
REMARK  status: ('A' for Active; 'I' for Inactive)
REMARK    1  A    between atoms: C_2  and  C_11
REMARK    2  A    between atoms: N_3  and  C_4
REMARK    3  A    between atoms: C_14  and  C_15
REMARK    4  A    between atoms: C_15  and  C_16
REMARK                            x       y       z     vdW  Elec       q    Type
REMARK                         _______ _______ _______ _____ _____    ______ ____
ROOT
ATOM      1  C   UNL     1       7.482   7.387  17.686  0.00  0.00    +0.000 A 
ATOM      2  C   UNL     1       7.968   6.349  18.461  0.00  0.00    +0.000 A 
ATOM      3  S   UNL     1       7.262   4.871  17.988  0.00  0.00    +0.000 S 
ATOM      4  C   UNL     1       6.358   5.705  16.780  0.00  0.00    +0.000 A 
ATOM      5  N   UNL     1       6.564   7.008  16.705  0.00  0.00    +0.000 NA
ENDROOT
BRANCH   1   7
ATOM      6  O   UNL     1       7.434   9.652  17.160  0.00  0.00    +0.000 OA
ATOM      7  C   UNL     1       7.891   8.777  17.884  0.00  0.00    +0.000 C 
ATOM      8  N   UNL     1       8.832   8.951  18.888  0.00  0.00    +0.000 N 
ATOM      9  H   UNL     1       9.193   8.090  19.288  0.00  0.00    +0.000 HD
BRANCH   8  10
ATOM     10  C   UNL     1       9.419  10.181  19.242  0.00  0.00    +0.000 A 
ATOM     11  C   UNL     1       9.330  10.703  20.539  0.00  0.00    +0.000 A 
ATOM     12  C   UNL     1       9.816  11.974  20.838  0.00  0.00    +0.000 A 
ATOM     13  C   UNL     1      10.418  12.722  19.840  0.00  0.00    +0.000 A 
ATOM     14  F   UNL     1      10.855  13.957  20.116  0.00  0.00    +0.000 F 
ATOM     15  C   UNL     1      10.573  12.204  18.560  0.00  0.00    +0.000 A 
ATOM     16  C   UNL     1      10.084  10.923  18.262  0.00  0.00    +0.000 A 
ENDBRANCH   8  10
ENDBRANCH   1   7
BRANCH   4  17
ATOM     17  C   UNL     1       5.434   4.939  15.885  0.00  0.00    +0.000 C 
BRANCH  17  18
ATOM     18  C   UNL     1       6.027   4.644  14.527  0.00  0.00    +0.000 A 
ATOM     19  C   UNL     1       7.238   5.234  14.134  0.00  0.00    +0.000 A 
ATOM     20  C   UNL     1       7.799   4.938  12.890  0.00  0.00    +0.000 A 
ATOM     21  C   UNL     1       7.151   4.059  12.024  0.00  0.00    +0.000 A 
ATOM     22  C   UNL     1       5.937   3.484  12.394  0.00  0.00    +0.000 A 
ATOM     23  C   UNL     1       5.374   3.778  13.637  0.00  0.00    +0.000 A 
ENDBRANCH  17  18
ENDBRANCH   4  17
TORSDOF 4
ENDMDL
MODEL 8
REMARK VINA RESULT:      -7.2      7.247      9.459
REMARK  Name = 
REMARK  4 active torsions:
REMARK  status: ('A' for Active; 'I' for Inactive)
REMARK    1  A    between atoms: C_2  and  C_11
REMARK    2  A    between atoms: N_3  and  C_4
REMARK    3  A    between atoms: C_14  and  C_15
REMARK    4  A    between atoms: C_15  and  C_16
REMARK                            x       y       z     vdW  Elec       q    Type
REMARK                         _______ _______ _______ _____ _____    ______ ____
ROOT
ATOM      1  C   UNL     1       1.803   7.932  19.710  0.00  0.00    +0.000 A 
ATOM      2  C   UNL     1       1.504   8.163  21.041  0.00  0.00    +0.000 A 
ATOM      3  S   UNL     1       0.716   9.664  21.222  0.00  0.00    +0.000 S 
ATOM      4  C   UNL     1       0.819   9.909  19.519  0.00  0.00    +0.000 A 
ATOM      5  N   UNL     1       1.391   8.936  18.832  0.00  0.00    +0.000 NA
ENDROOT
BRANCH   1   7
ATOM      6  O   UNL     1       3.455   6.838  18.492  0.00  0.00    +0.000 OA
ATOM      7  C   UNL     1       2.506   6.732  19.257  0.00  0.00    +0.000 C 
ATOM      8  N   UNL     1       1.962   5.547  19.732  0.00  0.00    +0.000 N 
ATOM      9  H   UNL     1       1.092   5.652  20.245  0.00  0.00    +0.000 HD
BRANCH   8  10
ATOM     10  C   UNL     1       2.424   4.258  19.406  0.00  0.00    +0.000 A 
ATOM     11  C   UNL     1       3.409   3.607  20.160  0.00  0.00    +0.000 A 
ATOM     12  C   UNL     1       3.936   2.383  19.752  0.00  0.00    +0.000 A 
ATOM     13  C   UNL     1       3.458   1.791  18.595  0.00  0.00    +0.000 A 
ATOM     14  F   UNL     1       3.986   0.631  18.183  0.00  0.00    +0.000 F 
ATOM     15  C   UNL     1       2.439   2.386  17.860  0.00  0.00    +0.000 A 
ATOM     16  C   UNL     1       1.910   3.618  18.274  0.00  0.00    +0.000 A 
ENDBRANCH   8  10
ENDBRANCH   1   7
BRANCH   4  17
ATOM     17  C   UNL     1       0.251  11.156  18.913  0.00  0.00    +0.000 C 
BRANCH  17  18
ATOM     18  C   UNL     1      -1.174  10.993  18.440  0.00  0.00    +0.000 A 
ATOM     19  C   UNL     1      -2.206  11.754  19.008  0.00  0.00    +0.000 A 
ATOM     20  C   UNL     1      -3.518  11.624  18.550  0.00  0.00    +0.000 A 
ATOM     21  C   UNL     1      -3.813  10.724  17.527  0.00  0.00    +0.000 A 
ATOM     22  C   UNL     1      -2.800   9.947  16.970  0.00  0.00    +0.000 A 
ATOM     23  C   UNL     1      -1.487  10.075  17.426  0.00  0.00    +0.000 A 
ENDBRANCH  17  18
ENDBRANCH   4  17
TORSDOF 4
ENDMDL
MODEL 9
REMARK VINA RESULT:      -7.1      6.157      8.662
REMARK  Name = 
REMARK  4 active torsions:
REMARK  status: ('A' for Active; 'I' for Inactive)
REMARK    1  A    between atoms: C_2  and  C_11
REMARK    2  A    between atoms: N_3  and  C_4
REMARK    3  A    between atoms: C_14  and  C_15
REMARK    4  A    between atoms: C_15  and  C_16
REMARK                            x       y       z     vdW  Elec       q    Type
REMARK                         _______ _______ _______ _____ _____    ______ ____
ROOT
ATOM      1  C   UNL     1       1.787   8.027  19.691  0.00  0.00    +0.000 A 
ATOM      2  C   UNL     1       1.325   8.159  20.988  0.00  0.00    +0.000 A 
ATOM      3  S   UNL     1       0.416   9.592  21.151  0.00  0.00    +0.000 S 
ATOM      4  C   UNL     1       0.691   9.942  19.487  0.00  0.00    +0.000 A 
ATOM      5  N   UNL     1       1.405   9.050  18.822  0.00  0.00    +0.000 NA
ENDROOT
BRANCH   1   7
ATOM      6  O   UNL     1       2.863   5.995  20.046  0.00  0.00    +0.000 OA
ATOM      7  C   UNL     1       2.621   6.903  19.262  0.00  0.00    +0.000 C 
ATOM      8  N   UNL     1       3.105   7.022  17.968  0.00  0.00    +0.000 N 
ATOM      9  H   UNL     1       2.909   7.911  17.519  0.00  0.00    +0.000 HD
BRANCH   8  10
ATOM     10  C   UNL     1       3.964   6.101  17.339  0.00  0.00    +0.000 A 
ATOM     11  C   UNL     1       5.086   6.509  16.606  0.00  0.00    +0.000 A 
ATOM     12  C   UNL     1       5.854   5.590  15.894  0.00  0.00    +0.000 A 
ATOM     13  C   UNL     1       5.515   4.248  15.934  0.00  0.00    +0.000 A 
ATOM     14  F   UNL     1       6.232   3.367  15.224  0.00  0.00    +0.000 F 
ATOM     15  C   UNL     1       4.444   3.808  16.702  0.00  0.00    +0.000 A 
ATOM     16  C   UNL     1       3.673   4.736  17.418  0.00  0.00    +0.000 A 
ENDBRANCH   8  10
ENDBRANCH   1   7
BRANCH   4  17
ATOM     17  C   UNL     1       0.107  11.182  18.883  0.00  0.00    +0.000 C 
BRANCH  17  18
ATOM     18  C   UNL     1      -1.314  10.999  18.402  0.00  0.00    +0.000 A 
ATOM     19  C   UNL     1      -1.624  10.017  17.450  0.00  0.00    +0.000 A 
ATOM     20  C   UNL     1      -2.942   9.831  17.029  0.00  0.00    +0.000 A 
ATOM     21  C   UNL     1      -3.960  10.631  17.545  0.00  0.00    +0.000 A 
ATOM     22  C   UNL     1      -3.660  11.625  18.474  0.00  0.00    +0.000 A 
ATOM     23  C   UNL     1      -2.343  11.814  18.897  0.00  0.00    +0.000 A 
ENDBRANCH  17  18
ENDBRANCH   4  17
TORSDOF 4
ENDMDL
