MODEL 1
REMARK VINA RESULT:      -7.5      0.000      0.000
REMARK  Name = 
REMARK  5 active torsions:
REMARK  status: ('A' for Active; 'I' for Inactive)
REMARK    1  A    between atoms: N_1  and  C_2
REMARK    2  A    between atoms: C_6  and  N_7
REMARK    3  A    between atoms: C_8  and  C_10
REMARK    4  A    between atoms: C_10  and  N_11
REMARK    5  A    between atoms: N_14  and  C_15
REMARK                            x       y       z     vdW  Elec       q    Type
REMARK                         _______ _______ _______ _____ _____    ______ ____
ROOT
ATOM      1  C   UNL     1       8.029   7.492  17.652  0.00  0.00    +0.000 C 
ENDROOT
BRANCH   1   2
ATOM      2  N   UNL     1       6.740   6.914  18.080  0.00  0.00    +0.000 NA
ATOM      3  C   UNL     1       6.919   5.696  18.899  0.00  0.00    +0.000 C 
ATOM      4  C   UNL     1       5.541   5.133  19.279  0.00  0.00    +0.000 C 
ATOM      5  N   UNL     1       4.832   4.630  18.093  0.00  0.00    +0.000 N 
ATOM      6  C   UNL     1       5.287   5.163  16.796  0.00  0.00    +0.000 C 
ATOM      7  C   UNL     1       5.838   6.622  16.932  0.00  0.00    +0.000 C 
BRANCH   5   8
ATOM      8  C   UNL     1       3.669   3.883  18.251  0.00  0.00    +0.000 A 
ATOM      9  C   UNL     1       3.709   2.514  18.562  0.00  0.00    +0.000 A 
ATOM     10  C   UNL     1       2.539   1.756  18.738  0.00  0.00    +0.000 A 
ATOM     11  C   UNL     1       1.283   2.346  18.612  0.00  0.00    +0.000 A 
ATOM     12  C   UNL     1       1.204   3.698  18.319  0.00  0.00    +0.000 A 
ATOM     13  C   UNL     1       2.372   4.442  18.145  0.00  0.00    +0.000 A 
ATOM     14  F   UNL     1       2.201   5.740  17.844  0.00  0.00    +0.000 F 
ENDBRANCH   5   8
ENDBRANCH   1   2
BRANCH   1  16
ATOM     15  N   UNL     1       9.149   9.226  18.992  0.00  0.00    +0.000 N 
ATOM     16  C   UNL     1       8.169   8.980  18.039  0.00  0.00    +0.000 C 
ATOM     17  O   UNL     1       7.419   9.814  17.537  0.00  0.00    +0.000 OA
ATOM     18  H   UNL     1       9.658   8.397  19.287  0.00  0.00    +0.000 HD
BRANCH  15  23
ATOM     19  C   UNL     1       9.624  12.013  21.409  0.00  0.00    +0.000 A 
ATOM     20  C   UNL     1      10.316  12.938  20.626  0.00  0.00    +0.000 A 
ATOM     21  C   UNL     1      10.685  12.620  19.321  0.00  0.00    +0.000 A 
ATOM     22  C   UNL     1      10.323  11.391  18.769  0.00  0.00    +0.000 A 
ATOM     23  C   UNL     1       9.569  10.474  19.504  0.00  0.00    +0.000 A 
ATOM     24  C   UNL     1       9.211  10.806  20.823  0.00  0.00    +0.000 A 
BRANCH  19  25
ATOM     25  N   UNL     1       9.156  12.393  22.675  0.00  0.00    +0.000 N 
ATOM     26  H   UNL     1       9.892  12.696  23.306  0.00  0.00    +0.000 HD
ATOM     27  H   UNL     1       8.537  11.715  23.107  0.00  0.00    +0.000 HD
ENDBRANCH  19  25
ENDBRANCH  15  23
ENDBRANCH   1  16
TORSDOF 5
ENDMDL
MODEL 2
REMARK VINA RESULT:      -7.5      0.974      1.361
REMARK  Name = 
REMARK  5 active torsions:
REMARK  status: ('A' for Active; 'I' for Inactive)
REMARK    1  A    between atoms: N_1  and  C_2
REMARK    2  A    between atoms: C_6  and  N_7
REMARK    3  A    between atoms: C_8  and  C_10
REMARK    4  A    between atoms: C_10  and  N_11
REMARK    5  A    between atoms: N_14  and  C_15
REMARK                            x       y       z     vdW  Elec       q    Type
REMARK                         _______ _______ _______ _____ _____    ______ ____
ROOT
ATOM      1  C   UNL     1       7.945   7.385  17.670  0.00  0.00    +0.000 C 
ENDROOT
BRANCH   1   2
ATOM      2  N   UNL     1       6.640   6.857  18.114  0.00  0.00    +0.000 NA
ATOM      3  C   UNL     1       6.783   5.656  18.965  0.00  0.00    +0.000 C 
ATOM      4  C   UNL     1       5.388   5.145  19.359  0.00  0.00    +0.000 C 
ATOM      5  N   UNL     1       4.664   4.632  18.187  0.00  0.00    +0.000 N 
ATOM      6  C   UNL     1       5.133   5.118  16.877  0.00  0.00    +0.000 C 
ATOM      7  C   UNL     1       5.727   6.562  16.974  0.00  0.00    +0.000 C 
BRANCH   5   8
ATOM      8  C   UNL     1       3.479   3.925  18.365  0.00  0.00    +0.000 A 
ATOM      9  C   UNL     1       2.252   4.411  17.885  0.00  0.00    +0.000 A 
ATOM     10  C   UNL     1       1.053   3.697  18.047  0.00  0.00    +0.000 A 
ATOM     11  C   UNL     1       1.041   2.464  18.695  0.00  0.00    +0.000 A 
ATOM     12  C   UNL     1       2.235   1.945  19.169  0.00  0.00    +0.000 A 
ATOM     13  C   UNL     1       3.421   2.663  19.005  0.00  0.00    +0.000 A 
ATOM     14  F   UNL     1       4.526   2.094  19.513  0.00  0.00    +0.000 F 
ENDBRANCH   5   8
ENDBRANCH   1   2
BRANCH   1  16
ATOM     15  N   UNL     1       9.070   9.147  18.969  0.00  0.00    +0.000 N 
ATOM     16  C   UNL     1       8.118   8.885  17.992  0.00  0.00    +0.000 C 
ATOM     17  O   UNL     1       7.413   9.716  17.423  0.00  0.00    +0.000 OA
ATOM     18  H   UNL     1       9.541   8.318  19.321  0.00  0.00    +0.000 HD
BRANCH  15  23
ATOM     19  C   UNL     1       9.650  11.981  21.307  0.00  0.00    +0.000 A 
ATOM     20  C   UNL     1      10.303  12.891  20.476  0.00  0.00    +0.000 A 
ATOM     21  C   UNL     1      10.613  12.548  19.161  0.00  0.00    +0.000 A 
ATOM     22  C   UNL     1      10.228  11.308  18.650  0.00  0.00    +0.000 A 
ATOM     23  C   UNL     1       9.511  10.405  19.437  0.00  0.00    +0.000 A 
ATOM     24  C   UNL     1       9.212  10.762  20.764  0.00  0.00    +0.000 A 
BRANCH  19  25
ATOM     25  N   UNL     1       9.239  12.384  22.585  0.00  0.00    +0.000 N 
ATOM     26  H   UNL     1       9.958  12.277  23.295  0.00  0.00    +0.000 HD
ATOM     27  H   UNL     1       8.351  11.991  22.878  0.00  0.00    +0.000 HD
ENDBRANCH  19  25
ENDBRANCH  15  23
ENDBRANCH   1  16
TORSDOF 5
ENDMDL
MODEL 3
REMARK VINA RESULT:      -7.5      1.427      1.681
REMARK  Name = 
REMARK  5 active torsions:
REMARK  status: ('A' for Active; 'I' for Inactive)
REMARK    1  A    between atoms: N_1  and  C_2
REMARK    2  A    between atoms: C_6  and  N_7
REMARK    3  A    between atoms: C_8  and  C_10
REMARK    4  A    between atoms: C_10  and  N_11
REMARK    5  A    between atoms: N_14  and  C_15
REMARK                            x       y       z     vdW  Elec       q    Type
REMARK                         _______ _______ _______ _____ _____    ______ ____
ROOT
ATOM      1  C   UNL     1       7.164   7.530  17.270  0.00  0.00    +0.000 C 
ENDROOT
BRANCH   1   2
ATOM      2  N   UNL     1       6.093   6.882  18.053  0.00  0.00    +0.000 NA
ATOM      3  C   UNL     1       6.418   5.482  18.394  0.00  0.00    +0.000 C 
ATOM      4  C   UNL     1       5.249   4.865  19.177  0.00  0.00    +0.000 C 
ATOM      5  N   UNL     1       4.059   4.728  18.325  0.00  0.00    +0.000 N 
ATOM      6  C   UNL     1       4.018   5.592  17.131  0.00  0.00    +0.000 C 
ATOM      7  C   UNL     1       4.772   6.942  17.369  0.00  0.00    +0.000 C 
BRANCH   5   8
ATOM      8  C   UNL     1       2.968   3.992  18.778  0.00  0.00    +0.000 A 
ATOM      9  C   UNL     1       1.981   4.566  19.596  0.00  0.00    +0.000 A 
ATOM     10  C   UNL     1       0.869   3.835  20.047  0.00  0.00    +0.000 A 
ATOM     11  C   UNL     1       0.704   2.499  19.689  0.00  0.00    +0.000 A 
ATOM     12  C   UNL     1       1.650   1.902  18.871  0.00  0.00    +0.000 A 
ATOM     13  C   UNL     1       2.752   2.636  18.430  0.00  0.00    +0.000 A 
ATOM     14  F   UNL     1       3.628   1.973  17.659  0.00  0.00    +0.000 F 
ENDBRANCH   5   8
ENDBRANCH   1   2
BRANCH   1  16
ATOM     15  N   UNL     1       8.447   9.555  17.825  0.00  0.00    +0.000 N 
ATOM     16  C   UNL     1       8.212   8.228  18.162  0.00  0.00    +0.000 C 
ATOM     17  O   UNL     1       8.779   7.593  19.048  0.00  0.00    +0.000 OA
ATOM     18  H   UNL     1       7.878   9.894  17.054  0.00  0.00    +0.000 HD
BRANCH  15  23
ATOM     19  C   UNL     1       9.925  11.562  20.586  0.00  0.00    +0.000 A 
ATOM     20  C   UNL     1      10.871  12.321  19.895  0.00  0.00    +0.000 A 
ATOM     21  C   UNL     1      11.069  12.127  18.530  0.00  0.00    +0.000 A 
ATOM     22  C   UNL     1      10.289  11.205  17.832  0.00  0.00    +0.000 A 
ATOM     23  C   UNL     1       9.287  10.482  18.481  0.00  0.00    +0.000 A 
ATOM     24  C   UNL     1       9.103  10.684  19.861  0.00  0.00    +0.000 A 
BRANCH  19  25
ATOM     25  N   UNL     1       9.654  11.853  21.930  0.00  0.00    +0.000 N 
ATOM     26  H   UNL     1      10.044  11.177  22.579  0.00  0.00    +0.000 HD
ATOM     27  H   UNL     1       8.676  12.048  22.122  0.00  0.00    +0.000 HD
ENDBRANCH  19  25
ENDBRANCH  15  23
ENDBRANCH   1  16
TORSDOF 5
ENDMDL
MODEL 4
REMARK VINA RESULT:      -7.4      1.432      1.958
REMARK  Name = 
REMARK  5 active torsions:
REMARK  status: ('A' for Active; 'I' for Inactive)
REMARK    1  A    between atoms: N_1  and  C_2
REMARK    2  A    between atoms: C_6  and  N_7
REMARK    3  A    between atoms: C_8  and  C_10
REMARK    4  A    between atoms: C_10  and  N_11
REMARK    5  A    between atoms: N_14  and  C_15
REMARK                            x       y       z     vdW  Elec       q    Type
REMARK                         _______ _______ _______ _____ _____    ______ ____
ROOT
ATOM      1  C   UNL     1       7.773   7.477  17.525  0.00  0.00    +0.000 C 
ENDROOT
BRANCH   1   2
ATOM      2  N   UNL     1       6.562   6.947  18.182  0.00  0.00    +0.000 NA
ATOM      3  C   UNL     1       6.792   5.622  18.794  0.00  0.00    +0.000 C 
ATOM      4  C   UNL     1       5.484   5.121  19.427  0.00  0.00    +0.000 C 
ATOM      5  N   UNL     1       4.477   4.834  18.396  0.00  0.00    +0.000 N 
ATOM      6  C   UNL     1       4.679   5.498  17.095  0.00  0.00    +0.000 C 
ATOM      7  C   UNL     1       5.397   6.880  17.256  0.00  0.00    +0.000 C 
BRANCH   5   8
ATOM      8  C   UNL     1       3.307   4.165  18.743  0.00  0.00    +0.000 A 
ATOM      9  C   UNL     1       2.337   4.756  19.567  0.00  0.00    +0.000 A 
ATOM     10  C   UNL     1       1.146   4.093  19.911  0.00  0.00    +0.000 A 
ATOM     11  C   UNL     1       0.883   2.811  19.434  0.00  0.00    +0.000 A 
ATOM     12  C   UNL     1       1.811   2.201  18.606  0.00  0.00    +0.000 A 
ATOM     13  C   UNL     1       2.991   2.867  18.272  0.00  0.00    +0.000 A 
ATOM     14  F   UNL     1       3.841   2.193  17.481  0.00  0.00    +0.000 F 
ENDBRANCH   5   8
ENDBRANCH   1   2
BRANCH   1  16
ATOM     15  N   UNL     1       9.049   9.065  18.906  0.00  0.00    +0.000 N 
ATOM     16  C   UNL     1       8.074   8.937  17.924  0.00  0.00    +0.000 C 
ATOM     17  O   UNL     1       7.440   9.854  17.407  0.00  0.00    +0.000 OA
ATOM     18  H   UNL     1       9.450   8.182  19.209  0.00  0.00    +0.000 HD
BRANCH  15  23
ATOM     19  C   UNL     1      11.171  12.110  19.151  0.00  0.00    +0.000 A 
ATOM     20  C   UNL     1      10.788  12.610  20.396  0.00  0.00    +0.000 A 
ATOM     21  C   UNL     1       9.783  11.982  21.128  0.00  0.00    +0.000 A 
ATOM     22  C   UNL     1       9.184  10.819  20.644  0.00  0.00    +0.000 A 
ATOM     23  C   UNL     1       9.597  10.255  19.435  0.00  0.00    +0.000 A 
ATOM     24  C   UNL     1      10.607  10.904  18.704  0.00  0.00    +0.000 A 
BRANCH  19  25
ATOM     25  N   UNL     1      12.264  12.681  18.484  0.00  0.00    +0.000 N 
ATOM     26  H   UNL     1      13.090  12.778  19.066  0.00  0.00    +0.000 HD
ATOM     27  H   UNL     1      12.044  13.538  17.987  0.00  0.00    +0.000 HD
ENDBRANCH  19  25
ENDBRANCH  15  23
ENDBRANCH   1  16
TORSDOF 5
ENDMDL
MODEL 5
REMARK VINA RESULT:      -7.4      1.273      1.312
REMARK  Name = 
REMARK  5 active torsions:
REMARK  status: ('A' for Active; 'I' for Inactive)
REMARK    1  A    between atoms: N_1  and  C_2
REMARK    2  A    between atoms: C_6  and  N_7
REMARK    3  A    between atoms: C_8  and  C_10
REMARK    4  A    between atoms: C_10  and  N_11
REMARK    5  A    between atoms: N_14  and  C_15
REMARK                            x       y       z     vdW  Elec       q    Type
REMARK                         _______ _______ _______ _____ _____    ______ ____
ROOT
ATOM      1  C   UNL     1       7.180   7.532  17.198  0.00  0.00    +0.000 C 
ENDROOT
BRANCH   1   2
ATOM      2  N   UNL     1       6.048   6.951  17.947  0.00  0.00    +0.000 NA
ATOM      3  C   UNL     1       6.363   5.611  18.484  0.00  0.00    +0.000 C 
ATOM      4  C   UNL     1       5.132   5.057  19.220  0.00  0.00    +0.000 C 
ATOM      5  N   UNL     1       4.035   4.785  18.279  0.00  0.00    +0.000 N 
ATOM      6  C   UNL     1       4.098   5.499  16.992  0.00  0.00    +0.000 C 
ATOM      7  C   UNL     1       4.801   6.890  17.136  0.00  0.00    +0.000 C 
BRANCH   5   8
ATOM      8  C   UNL     1       2.918   4.077  18.711  0.00  0.00    +0.000 A 
ATOM      9  C   UNL     1       2.600   2.813  18.188  0.00  0.00    +0.000 A 
ATOM     10  C   UNL     1       1.482   2.084  18.629  0.00  0.00    +0.000 A 
ATOM     11  C   UNL     1       0.643   2.596  19.617  0.00  0.00    +0.000 A 
ATOM     12  C   UNL     1       0.934   3.834  20.167  0.00  0.00    +0.000 A 
ATOM     13  C   UNL     1       2.045   4.551  19.721  0.00  0.00    +0.000 A 
ATOM     14  F   UNL     1       2.239   5.749  20.295  0.00  0.00    +0.000 F 
ENDBRANCH   5   8
ENDBRANCH   1   2
BRANCH   1  16
ATOM     15  N   UNL     1       8.451   9.553  17.794  0.00  0.00    +0.000 N 
ATOM     16  C   UNL     1       8.207   8.225  18.119  0.00  0.00    +0.000 C 
ATOM     17  O   UNL     1       8.752   7.585  19.016  0.00  0.00    +0.000 OA
ATOM     18  H   UNL     1       7.901   9.896  17.010  0.00  0.00    +0.000 HD
BRANCH  15  23
ATOM     19  C   UNL     1       9.892  11.515  20.606  0.00  0.00    +0.000 A 
ATOM     20  C   UNL     1      10.829  12.304  19.937  0.00  0.00    +0.000 A 
ATOM     21  C   UNL     1      11.034  12.145  18.568  0.00  0.00    +0.000 A 
ATOM     22  C   UNL     1      10.269  11.229  17.845  0.00  0.00    +0.000 A 
ATOM     23  C   UNL     1       9.276  10.477  18.475  0.00  0.00    +0.000 A 
ATOM     24  C   UNL     1       9.086  10.643  19.858  0.00  0.00    +0.000 A 
BRANCH  19  25
ATOM     25  N   UNL     1       9.613  11.770  21.956  0.00  0.00    +0.000 N 
ATOM     26  H   UNL     1      10.280  12.396  22.398  0.00  0.00    +0.000 HD
ATOM     27  H   UNL     1       9.447  10.936  22.509  0.00  0.00    +0.000 HD
ENDBRANCH  19  25
ENDBRANCH  15  23
ENDBRANCH   1  16
TORSDOF 5
ENDMDL
MODEL 6
REMARK VINA RESULT:      -7.4      1.338      1.721
REMARK  Name = 
REMARK  5 active torsions:
REMARK  status: ('A' for Active; 'I' for Inactive)
REMARK    1  A    between atoms: N_1  and  C_2
REMARK    2  A    between atoms: C_6  and  N_7
REMARK    3  A    between atoms: C_8  and  C_10
REMARK    4  A    between atoms: C_10  and  N_11
REMARK    5  A    between atoms: N_14  and  C_15
REMARK                            x       y       z     vdW  Elec       q    Type
REMARK                         _______ _______ _______ _____ _____    ______ ____
ROOT
ATOM      1  C   UNL     1       7.765   7.202  17.584  0.00  0.00    +0.000 C 
ENDROOT
BRANCH   1   2
ATOM      2  N   UNL     1       6.552   6.690  18.253  0.00  0.00    +0.000 NA
ATOM      3  C   UNL     1       6.720   5.302  18.729  0.00  0.00    +0.000 C 
ATOM      4  C   UNL     1       5.412   4.827  19.381  0.00  0.00    +0.000 C 
ATOM      5  N   UNL     1       4.340   4.704  18.382  0.00  0.00    +0.000 N 
ATOM      6  C   UNL     1       4.526   5.473  17.139  0.00  0.00    +0.000 C 
ATOM      7  C   UNL     1       5.343   6.785  17.387  0.00  0.00    +0.000 C 
BRANCH   5   8
ATOM      8  C   UNL     1       3.145   4.080  18.728  0.00  0.00    +0.000 A 
ATOM      9  C   UNL     1       2.779   2.837  18.186  0.00  0.00    +0.000 A 
ATOM     10  C   UNL     1       1.582   2.193  18.540  0.00  0.00    +0.000 A 
ATOM     11  C   UNL     1       0.707   2.772  19.457  0.00  0.00    +0.000 A 
ATOM     12  C   UNL     1       1.041   3.991  20.024  0.00  0.00    +0.000 A 
ATOM     13  C   UNL     1       2.232   4.624  19.665  0.00  0.00    +0.000 A 
ATOM     14  F   UNL     1       2.466   5.810  20.248  0.00  0.00    +0.000 F 
ENDBRANCH   5   8
ENDBRANCH   1   2
BRANCH   1  16
ATOM     15  N   UNL     1       8.902   8.970  18.863  0.00  0.00    +0.000 N 
ATOM     16  C   UNL     1       7.996   8.705  17.844  0.00  0.00    +0.000 C 
ATOM     17  O   UNL     1       7.369   9.540  17.195  0.00  0.00    +0.000 OA
ATOM     18  H   UNL     1       9.309   8.139  19.282  0.00  0.00    +0.000 HD
BRANCH  15  23
ATOM     19  C   UNL     1      10.459  12.344  18.700  0.00  0.00    +0.000 A 
ATOM     20  C   UNL     1      10.397  12.739  20.037  0.00  0.00    +0.000 A 
ATOM     21  C   UNL     1       9.783  11.922  20.984  0.00  0.00    +0.000 A 
ATOM     22  C   UNL     1       9.267  10.680  20.612  0.00  0.00    +0.000 A 
ATOM     23  C   UNL     1       9.379  10.228  19.296  0.00  0.00    +0.000 A 
ATOM     24  C   UNL     1       9.995  11.066  18.350  0.00  0.00    +0.000 A 
BRANCH  19  25
ATOM     25  N   UNL     1      11.185  13.119  17.785  0.00  0.00    +0.000 N 
ATOM     26  H   UNL     1      11.256  12.699  16.863  0.00  0.00    +0.000 HD
ATOM     27  H   UNL     1      12.085  13.435  18.132  0.00  0.00    +0.000 HD
ENDBRANCH  19  25
ENDBRANCH  15  23
ENDBRANCH   1  16
TORSDOF 5
ENDMDL
MODEL 7
REMARK VINA RESULT:      -7.3      1.720      1.967
REMARK  Name = 
REMARK  5 active torsions:
REMARK  status: ('A' for Active; 'I' for Inactive)
REMARK    1  A    between atoms: N_1  and  C_2
REMARK    2  A    between atoms: C_6  and  N_7
REMARK    3  A    between atoms: C_8  and  C_10
REMARK    4  A    between atoms: C_10  and  N_11
REMARK    5  A    between atoms: N_14  and  C_15
REMARK                            x       y       z     vdW  Elec       q    Type
REMARK                         _______ _______ _______ _____ _____    ______ ____
ROOT
ATOM      1  C   UNL     1       7.268   7.377  17.233  0.00  0.00    +0.000 C 
ENDROOT
BRANCH   1   2
ATOM      2  N   UNL     1       6.109   6.845  17.977  0.00  0.00    +0.000 NA
ATOM      3  C   UNL     1       6.374   5.504  18.539  0.00  0.00    +0.000 C 
ATOM      4  C   UNL     1       5.117   5.002  19.267  0.00  0.00    +0.000 C 
ATOM      5  N   UNL     1       4.024   4.749  18.318  0.00  0.00    +0.000 N 
ATOM      6  C   UNL     1       4.125   5.440  17.020  0.00  0.00    +0.000 C 
ATOM      7  C   UNL     1       4.870   6.810  17.151  0.00  0.00    +0.000 C 
BRANCH   5   8
ATOM      8  C   UNL     1       2.879   4.084  18.746  0.00  0.00    +0.000 A 
ATOM      9  C   UNL     1       2.509   2.838  18.215  0.00  0.00    +0.000 A 
ATOM     10  C   UNL     1       1.363   2.152  18.652  0.00  0.00    +0.000 A 
ATOM     11  C   UNL     1       0.547   2.691  19.645  0.00  0.00    +0.000 A 
ATOM     12  C   UNL     1       0.889   3.912  20.204  0.00  0.00    +0.000 A 
ATOM     13  C   UNL     1       2.028   4.586  19.761  0.00  0.00    +0.000 A 
ATOM     14  F   UNL     1       2.271   5.771  20.343  0.00  0.00    +0.000 F 
ENDBRANCH   5   8
ENDBRANCH   1   2
BRANCH   1  16
ATOM     15  N   UNL     1       8.206   9.599  17.721  0.00  0.00    +0.000 N 
ATOM     16  C   UNL     1       8.177   8.265  18.109  0.00  0.00    +0.000 C 
ATOM     17  O   UNL     1       8.821   7.762  19.027  0.00  0.00    +0.000 OA
ATOM     18  H   UNL     1       7.605   9.814  16.930  0.00  0.00    +0.000 HD
BRANCH  15  23
ATOM     19  C   UNL     1       9.459  13.051  18.313  0.00  0.00    +0.000 A 
ATOM     20  C   UNL     1      10.201  12.876  19.481  0.00  0.00    +0.000 A 
ATOM     21  C   UNL     1      10.238  11.635  20.113  0.00  0.00    +0.000 A 
ATOM     22  C   UNL     1       9.570  10.543  19.555  0.00  0.00    +0.000 A 
ATOM     23  C   UNL     1       8.878  10.671  18.350  0.00  0.00    +0.000 A 
ATOM     24  C   UNL     1       8.844  11.932  17.728  0.00  0.00    +0.000 A 
BRANCH  19  25
ATOM     25  N   UNL     1       9.530  14.271  17.626  0.00  0.00    +0.000 N 
ATOM     26  H   UNL     1       8.970  14.294  16.779  0.00  0.00    +0.000 HD
ATOM     27  H   UNL     1      10.476  14.603  17.468  0.00  0.00    +0.000 HD
ENDBRANCH  19  25
ENDBRANCH  15  23
ENDBRANCH   1  16
TORSDOF 5
ENDMDL
MODEL 8
REMARK VINA RESULT:      -7.2      6.044      8.671
REMARK  Name = 
REMARK  5 active torsions:
REMARK  status: ('A' for Active; 'I' for Inactive)
REMARK    1  A    between atoms: N_1  and  C_2
REMARK    2  A    between atoms: C_6  and  N_7
REMARK    3  A    between atoms: C_8  and  C_10
REMARK    4  A    between atoms: C_10  and  N_11
REMARK    5  A    between atoms: N_14  and  C_15
REMARK                            x       y       z     vdW  Elec       q    Type
REMARK                         _______ _______ _______ _____ _____    ______ ____
ROOT
ATOM      1  C   UNL     1       1.532  10.251  19.050  0.00  0.00    +0.000 C 
ENDROOT
BRANCH   1   2
ATOM      2  N   UNL     1       1.433   8.784  18.919  0.00  0.00    +0.000 NA
ATOM      3  C   UNL     1       1.857   8.083  20.149  0.00  0.00    +0.000 C 
ATOM      4  C   UNL     1       1.760   6.566  19.928  0.00  0.00    +0.000 C 
ATOM      5  N   UNL     1       2.746   6.114  18.936  0.00  0.00    +0.000 N 
ATOM      6  C   UNL     1       3.262   7.149  18.023  0.00  0.00    +0.000 C 
ATOM      7  C   UNL     1       2.198   8.264  17.752  0.00  0.00    +0.000 C 
BRANCH   5   8
ATOM      8  C   UNL     1       2.969   4.752  18.758  0.00  0.00    +0.000 A 
ATOM      9  C   UNL     1       4.027   4.088  19.401  0.00  0.00    +0.000 A 
ATOM     10  C   UNL     1       4.251   2.710  19.238  0.00  0.00    +0.000 A 
ATOM     11  C   UNL     1       3.416   1.945  18.426  0.00  0.00    +0.000 A 
ATOM     12  C   UNL     1       2.353   2.562  17.787  0.00  0.00    +0.000 A 
ATOM     13  C   UNL     1       2.140   3.932  17.953  0.00  0.00    +0.000 A 
ATOM     14  F   UNL     1       1.099   4.449  17.281  0.00  0.00    +0.000 F 
ENDBRANCH   5   8
ENDBRANCH   1   2
BRANCH   1  16
ATOM     15  N   UNL     1      -0.653  10.254  17.918  0.00  0.00    +0.000 N 
ATOM     16  C   UNL     1       0.194  10.964  18.759  0.00  0.00    +0.000 C 
ATOM     17  O   UNL     1      -0.019  12.079  19.232  0.00  0.00    +0.000 OA
ATOM     18  H   UNL     1      -0.288   9.350  17.629  0.00  0.00    +0.000 HD
BRANCH  15  23
ATOM     19  C   UNL     1      -3.689  10.482  15.781  0.00  0.00    +0.000 A 
ATOM     20  C   UNL     1      -4.536  11.240  16.590  0.00  0.00    +0.000 A 
ATOM     21  C   UNL     1      -4.134  11.622  17.868  0.00  0.00    +0.000 A 
ATOM     22  C   UNL     1      -2.860  11.291  18.331  0.00  0.00    +0.000 A 
ATOM     23  C   UNL     1      -1.965  10.595  17.517  0.00  0.00    +0.000 A 
ATOM     24  C   UNL     1      -2.388  10.209  16.233  0.00  0.00    +0.000 A 
BRANCH  19  25
ATOM     25  N   UNL     1      -4.060  10.209  14.457  0.00  0.00    +0.000 N 
ATOM     26  H   UNL     1      -4.841   9.565  14.379  0.00  0.00    +0.000 HD
ATOM     27  H   UNL     1      -3.286   9.946  13.856  0.00  0.00    +0.000 HD
ENDBRANCH  19  25
ENDBRANCH  15  23
ENDBRANCH   1  16
TORSDOF 5
ENDMDL
MODEL 9
REMARK VINA RESULT:      -7.2      5.320      7.680
REMARK  Name = 
REMARK  5 active torsions:
REMARK  status: ('A' for Active; 'I' for Inactive)
REMARK    1  A    between atoms: N_1  and  C_2
REMARK    2  A    between atoms: C_6  and  N_7
REMARK    3  A    between atoms: C_8  and  C_10
REMARK    4  A    between atoms: C_10  and  N_11
REMARK    5  A    between atoms: N_14  and  C_15
REMARK                            x       y       z     vdW  Elec       q    Type
REMARK                         _______ _______ _______ _____ _____    ______ ____
ROOT
ATOM      1  C   UNL     1       4.510   4.076  17.886  0.00  0.00    +0.000 C 
ENDROOT
BRANCH   1   2
ATOM      2  N   UNL     1       3.551   5.195  17.805  0.00  0.00    +0.000 NA
ATOM      3  C   UNL     1       4.221   6.511  17.865  0.00  0.00    +0.000 C 
ATOM      4  C   UNL     1       3.162   7.623  17.809  0.00  0.00    +0.000 C 
ATOM      5  N   UNL     1       2.332   7.622  19.022  0.00  0.00    +0.000 N 
ATOM      6  C   UNL     1       2.307   6.361  19.785  0.00  0.00    +0.000 C 
ATOM      7  C   UNL     1       2.495   5.117  18.853  0.00  0.00    +0.000 C 
BRANCH   5   8
ATOM      8  C   UNL     1       1.465   8.683  19.265  0.00  0.00    +0.000 A 
ATOM      9  C   UNL     1       0.939   9.458  18.219  0.00  0.00    +0.000 A 
ATOM     10  C   UNL     1       0.051  10.522  18.454  0.00  0.00    +0.000 A 
ATOM     11  C   UNL     1      -0.345  10.845  19.750  0.00  0.00    +0.000 A 
ATOM     12  C   UNL     1       0.142  10.093  20.807  0.00  0.00    +0.000 A 
ATOM     13  C   UNL     1       1.025   9.039  20.563  0.00  0.00    +0.000 A 
ATOM     14  F   UNL     1       1.462   8.378  21.647  0.00  0.00    +0.000 F 
ENDBRANCH   5   8
ENDBRANCH   1   2
BRANCH   1  16
ATOM     15  N   UNL     1       5.142   4.036  15.508  0.00  0.00    +0.000 N 
ATOM     16  C   UNL     1       5.613   4.160  16.810  0.00  0.00    +0.000 C 
ATOM     17  O   UNL     1       6.787   4.287  17.148  0.00  0.00    +0.000 OA
ATOM     18  H   UNL     1       4.133   3.932  15.441  0.00  0.00    +0.000 HD
BRANCH  15  23
ATOM     19  C   UNL     1       7.788   5.119  13.129  0.00  0.00    +0.000 A 
ATOM     20  C   UNL     1       7.401   4.451  11.967  0.00  0.00    +0.000 A 
ATOM     21  C   UNL     1       6.305   3.591  11.981  0.00  0.00    +0.000 A 
ATOM     22  C   UNL     1       5.556   3.427  13.147  0.00  0.00    +0.000 A 
ATOM     23  C   UNL     1       5.877   4.137  14.306  0.00  0.00    +0.000 A 
ATOM     24  C   UNL     1       6.990   4.996  14.278  0.00  0.00    +0.000 A 
BRANCH  19  25
ATOM     25  N   UNL     1       8.816   6.070  13.069  0.00  0.00    +0.000 N 
ATOM     26  H   UNL     1       8.767   6.769  13.804  0.00  0.00    +0.000 HD
ATOM     27  H   UNL     1       8.939   6.488  12.152  0.00  0.00    +0.000 HD
ENDBRANCH  19  25
ENDBRANCH  15  23
ENDBRANCH   1  16
TORSDOF 5
ENDMDL
