MODEL 1
REMARK VINA RESULT:      -5.0      0.000      0.000
REMARK  Name = 
REMARK  4 active torsions:
REMARK  status: ('A' for Active; 'I' for Inactive)
REMARK    1  A    between atoms: C_1  and  N_2
REMARK    2  A    between atoms: C_3  and  O_10
REMARK    3  A    between atoms: N_4  and  N_5
REMARK    4  A    between atoms: O_10  and  C_11
REMARK                            x       y       z     vdW  Elec       q    Type
REMARK                         _______ _______ _______ _____ _____    ______ ____
ROOT
ATOM      1  C   UNL     1       5.523   4.200  16.531  0.00  0.00    +0.000 C 
ATOM      2  N   UNL     1       5.978   4.019  17.897  0.00  0.00    +0.000 N 
ATOM      3  C   UNL     1       5.426   4.658  18.972  0.00  0.00    +0.000 C 
ATOM      4  N   UNL     1       4.223   4.893  19.358  0.00  0.00    +0.000 NA
ATOM      5  H   UNL     1       6.990   4.097  17.958  0.00  0.00    +0.000 HD
ENDROOT
BRANCH   4   6
ATOM      6  N   UNL     1       3.184   4.300  18.724  0.00  0.00    +0.000 N 
ATOM      7  C   UNL     1       2.722   3.011  18.734  0.00  0.00    +0.000 A 
ATOM      8  N   UNL     1       1.675   2.889  17.947  0.00  0.00    +0.000 NA
ATOM      9  N   UNL     1       1.362   4.145  17.486  0.00  0.00    +0.000 NA
ATOM     10  C   UNL     1       2.235   4.980  18.002  0.00  0.00    +0.000 A 
ENDBRANCH   4   6
BRANCH   3  11
ATOM     11  O   UNL     1       6.459   5.129  19.720  0.00  0.00    +0.000 OA
ATOM     12  C   UNL     1       7.526   5.798  19.031  0.00  0.00    +0.000 C 
ENDBRANCH   3  11
TORSDOF 2
ENDMDL
MODEL 2
REMARK VINA RESULT:      -5.0      1.967      4.454
REMARK  Name = 
REMARK  4 active torsions:
REMARK  status: ('A' for Active; 'I' for Inactive)
REMARK    1  A    between atoms: C_1  and  N_2
REMARK    2  A    between atoms: C_3  and  O_10
REMARK    3  A    between atoms: N_4  and  N_5
REMARK    4  A    between atoms: O_10  and  C_11
REMARK                            x       y       z     vdW  Elec       q    Type
REMARK                         _______ _______ _______ _____ _____    ______ ____
ROOT
ATOM      1  C   UNL     1       3.669   5.209  17.445  0.00  0.00    +0.000 C 
ATOM      2  N   UNL     1       4.188   4.920  18.769  0.00  0.00    +0.000 N 
ATOM      3  C   UNL     1       5.297   4.154  18.999  0.00  0.00    +0.000 C 
ATOM      4  N   UNL     1       6.470   4.091  18.478  0.00  0.00    +0.000 NA
ATOM      5  H   UNL     1       3.447   4.612  19.393  0.00  0.00    +0.000 HD
ENDROOT
BRANCH   4   6
ATOM      6  N   UNL     1       6.869   5.039  17.598  0.00  0.00    +0.000 N 
ATOM      7  C   UNL     1       7.293   6.329  17.775  0.00  0.00    +0.000 A 
ATOM      8  N   UNL     1       7.572   6.887  16.617  0.00  0.00    +0.000 NA
ATOM      9  N   UNL     1       7.439   5.917  15.654  0.00  0.00    +0.000 NA
ATOM     10  C   UNL     1       7.074   4.810  16.261  0.00  0.00    +0.000 A 
ENDBRANCH   4   6
BRANCH   3  11
ATOM     11  O   UNL     1       4.976   3.291  19.999  0.00  0.00    +0.000 OA
ATOM     12  C   UNL     1       4.088   2.208  19.682  0.00  0.00    +0.000 C 
ENDBRANCH   3  11
TORSDOF 2
ENDMDL
MODEL 3
REMARK VINA RESULT:      -4.9      3.376      4.706
REMARK  Name = 
REMARK  4 active torsions:
REMARK  status: ('A' for Active; 'I' for Inactive)
REMARK    1  A    between atoms: C_1  and  N_2
REMARK    2  A    between atoms: C_3  and  O_10
REMARK    3  A    between atoms: N_4  and  N_5
REMARK    4  A    between atoms: O_10  and  C_11
REMARK                            x       y       z     vdW  Elec       q    Type
REMARK                         _______ _______ _______ _____ _____    ______ ____
ROOT
ATOM      1  C   UNL     1       5.059   6.899  16.070  0.00  0.00    +0.000 C 
ATOM      2  N   UNL     1       5.488   5.765  15.274  0.00  0.00    +0.000 N 
ATOM      3  C   UNL     1       6.735   5.209  15.354  0.00  0.00    +0.000 C 
ATOM      4  N   UNL     1       7.512   4.879  16.322  0.00  0.00    +0.000 NA
ATOM      5  H   UNL     1       5.254   5.897  14.294  0.00  0.00    +0.000 HD
ENDROOT
BRANCH   4   6
ATOM      6  N   UNL     1       7.049   4.897  17.594  0.00  0.00    +0.000 N 
ATOM      7  C   UNL     1       6.021   4.227  18.202  0.00  0.00    +0.000 A 
ATOM      8  N   UNL     1       5.930   4.570  19.469  0.00  0.00    +0.000 NA
ATOM      9  N   UNL     1       6.988   5.403  19.743  0.00  0.00    +0.000 NA
ATOM     10  C   UNL     1       7.674   5.543  18.631  0.00  0.00    +0.000 A 
ENDBRANCH   4   6
BRANCH   3  11
ATOM     11  O   UNL     1       7.164   5.028  14.076  0.00  0.00    +0.000 OA
ATOM     12  C   UNL     1       6.522   4.006  13.299  0.00  0.00    +0.000 C 
ENDBRANCH   3  11
TORSDOF 2
ENDMDL
MODEL 4
REMARK VINA RESULT:      -4.9      0.132      1.096
REMARK  Name = 
REMARK  4 active torsions:
REMARK  status: ('A' for Active; 'I' for Inactive)
REMARK    1  A    between atoms: C_1  and  N_2
REMARK    2  A    between atoms: C_3  and  O_10
REMARK    3  A    between atoms: N_4  and  N_5
REMARK    4  A    between atoms: O_10  and  C_11
REMARK                            x       y       z     vdW  Elec       q    Type
REMARK                         _______ _______ _______ _____ _____    ______ ____
ROOT
ATOM      1  C   UNL     1       5.457   4.377  16.482  0.00  0.00    +0.000 C 
ATOM      2  N   UNL     1       5.930   4.069  17.819  0.00  0.00    +0.000 N 
ATOM      3  C   UNL     1       5.405   4.616  18.956  0.00  0.00    +0.000 C 
ATOM      4  N   UNL     1       4.212   4.834  19.382  0.00  0.00    +0.000 NA
ATOM      5  H   UNL     1       6.944   4.125  17.869  0.00  0.00    +0.000 HD
ENDROOT
BRANCH   4   6
ATOM      6  N   UNL     1       3.154   4.316  18.715  0.00  0.00    +0.000 N 
ATOM      7  C   UNL     1       2.222   4.890  17.893  0.00  0.00    +0.000 A 
ATOM      8  N   UNL     1       1.360   3.990  17.472  0.00  0.00    +0.000 NA
ATOM      9  N   UNL     1       1.787   2.768  17.932  0.00  0.00    +0.000 NA
ATOM     10  C   UNL     1       2.886   2.973  18.624  0.00  0.00    +0.000 A 
ENDBRANCH   4   6
BRANCH   3  11
ATOM     11  O   UNL     1       6.458   5.003  19.725  0.00  0.00    +0.000 OA
ATOM     12  C   UNL     1       7.509   5.746  19.088  0.00  0.00    +0.000 C 
ENDBRANCH   3  11
TORSDOF 2
ENDMDL
MODEL 5
REMARK VINA RESULT:      -4.8      2.282      4.526
REMARK  Name = 
REMARK  4 active torsions:
REMARK  status: ('A' for Active; 'I' for Inactive)
REMARK    1  A    between atoms: C_1  and  N_2
REMARK    2  A    between atoms: C_3  and  O_10
REMARK    3  A    between atoms: N_4  and  N_5
REMARK    4  A    between atoms: O_10  and  C_11
REMARK                            x       y       z     vdW  Elec       q    Type
REMARK                         _______ _______ _______ _____ _____    ______ ____
ROOT
ATOM      1  C   UNL     1       4.533   2.351  19.779  0.00  0.00    +0.000 C 
ATOM      2  N   UNL     1       4.046   2.442  18.415  0.00  0.00    +0.000 N 
ATOM      3  C   UNL     1       3.838   3.624  17.760  0.00  0.00    +0.000 C 
ATOM      4  N   UNL     1       4.505   4.716  17.641  0.00  0.00    +0.000 NA
ATOM      5  H   UNL     1       3.233   1.848  18.277  0.00  0.00    +0.000 HD
ENDROOT
BRANCH   4   6
ATOM      6  N   UNL     1       5.780   4.779  18.093  0.00  0.00    +0.000 N 
ATOM      7  C   UNL     1       6.972   4.422  17.521  0.00  0.00    +0.000 A 
ATOM      8  N   UNL     1       7.969   4.657  18.345  0.00  0.00    +0.000 NA
ATOM      9  N   UNL     1       7.447   5.287  19.449  0.00  0.00    +0.000 NA
ATOM     10  C   UNL     1       6.152   5.401  19.259  0.00  0.00    +0.000 A 
ENDBRANCH   4   6
BRANCH   3  11
ATOM     11  O   UNL     1       2.624   3.528  17.156  0.00  0.00    +0.000 OA
ATOM     12  C   UNL     1       1.489   4.061  17.857  0.00  0.00    +0.000 C 
ENDBRANCH   3  11
TORSDOF 2
ENDMDL
MODEL 6
REMARK VINA RESULT:      -4.8      2.371      4.325
REMARK  Name = 
REMARK  4 active torsions:
REMARK  status: ('A' for Active; 'I' for Inactive)
REMARK    1  A    between atoms: C_1  and  N_2
REMARK    2  A    between atoms: C_3  and  O_10
REMARK    3  A    between atoms: N_4  and  N_5
REMARK    4  A    between atoms: O_10  and  C_11
REMARK                            x       y       z     vdW  Elec       q    Type
REMARK                         _______ _______ _______ _____ _____    ______ ____
ROOT
ATOM      1  C   UNL     1       5.561   4.946  19.423  0.00  0.00    +0.000 C 
ATOM      2  N   UNL     1       5.247   3.576  19.063  0.00  0.00    +0.000 N 
ATOM      3  C   UNL     1       4.460   3.232  18.001  0.00  0.00    +0.000 C 
ATOM      4  N   UNL     1       4.381   3.617  16.777  0.00  0.00    +0.000 NA
ATOM      5  H   UNL     1       4.946   3.045  19.876  0.00  0.00    +0.000 HD
ENDROOT
BRANCH   4   6
ATOM      6  N   UNL     1       5.332   4.432  16.265  0.00  0.00    +0.000 N 
ATOM      7  C   UNL     1       6.591   4.181  15.789  0.00  0.00    +0.000 A 
ATOM      8  N   UNL     1       7.167   5.296  15.395  0.00  0.00    +0.000 NA
ATOM      9  N   UNL     1       6.235   6.299  15.506  0.00  0.00    +0.000 NA
ATOM     10  C   UNL     1       5.132   5.758  15.973  0.00  0.00    +0.000 A 
ENDBRANCH   4   6
BRANCH   3  11
ATOM     11  O   UNL     1       3.591   2.286  18.448  0.00  0.00    +0.000 OA
ATOM     12  C   UNL     1       2.238   2.349  17.971  0.00  0.00    +0.000 C 
ENDBRANCH   3  11
TORSDOF 2
ENDMDL
MODEL 7
REMARK VINA RESULT:      -4.8      2.133      2.601
REMARK  Name = 
REMARK  4 active torsions:
REMARK  status: ('A' for Active; 'I' for Inactive)
REMARK    1  A    between atoms: C_1  and  N_2
REMARK    2  A    between atoms: C_3  and  O_10
REMARK    3  A    between atoms: N_4  and  N_5
REMARK    4  A    between atoms: O_10  and  C_11
REMARK                            x       y       z     vdW  Elec       q    Type
REMARK                         _______ _______ _______ _____ _____    ______ ____
ROOT
ATOM      1  C   UNL     1       6.480   4.218  15.097  0.00  0.00    +0.000 C 
ATOM      2  N   UNL     1       7.346   4.974  15.982  0.00  0.00    +0.000 N 
ATOM      3  C   UNL     1       6.909   5.989  16.787  0.00  0.00    +0.000 C 
ATOM      4  N   UNL     1       5.901   6.147  17.568  0.00  0.00    +0.000 NA
ATOM      5  H   UNL     1       8.185   5.283  15.497  0.00  0.00    +0.000 HD
ENDROOT
BRANCH   4   6
ATOM      6  N   UNL     1       5.102   5.093  17.858  0.00  0.00    +0.000 N 
ATOM      7  C   UNL     1       5.221   4.080  18.771  0.00  0.00    +0.000 A 
ATOM      8  N   UNL     1       4.194   3.262  18.691  0.00  0.00    +0.000 NA
ATOM      9  N   UNL     1       3.314   3.799  17.782  0.00  0.00    +0.000 NA
ATOM     10  C   UNL     1       3.844   4.916  17.337  0.00  0.00    +0.000 A 
ENDBRANCH   4   6
BRANCH   3  11
ATOM     11  O   UNL     1       7.791   7.013  16.639  0.00  0.00    +0.000 OA
ATOM     12  C   UNL     1       7.733   8.083  17.595  0.00  0.00    +0.000 C 
ENDBRANCH   3  11
TORSDOF 2
ENDMDL
MODEL 8
REMARK VINA RESULT:      -4.8      1.684      2.113
REMARK  Name = 
REMARK  4 active torsions:
REMARK  status: ('A' for Active; 'I' for Inactive)
REMARK    1  A    between atoms: C_1  and  N_2
REMARK    2  A    between atoms: C_3  and  O_10
REMARK    3  A    between atoms: N_4  and  N_5
REMARK    4  A    between atoms: O_10  and  C_11
REMARK                            x       y       z     vdW  Elec       q    Type
REMARK                         _______ _______ _______ _____ _____    ______ ____
ROOT
ATOM      1  C   UNL     1       3.544   5.776  18.304  0.00  0.00    +0.000 C 
ATOM      2  N   UNL     1       4.744   5.049  17.937  0.00  0.00    +0.000 N 
ATOM      3  C   UNL     1       5.389   4.178  18.770  0.00  0.00    +0.000 C 
ATOM      4  N   UNL     1       5.008   3.237  19.558  0.00  0.00    +0.000 NA
ATOM      5  H   UNL     1       5.433   5.668  17.519  0.00  0.00    +0.000 HD
ENDROOT
BRANCH   4   6
ATOM      6  N   UNL     1       3.721   2.818  19.534  0.00  0.00    +0.000 N 
ATOM      7  C   UNL     1       3.029   2.040  18.644  0.00  0.00    +0.000 A 
ATOM      8  N   UNL     1       1.778   1.901  19.026  0.00  0.00    +0.000 NA
ATOM      9  N   UNL     1       1.656   2.507  20.253  0.00  0.00    +0.000 NA
ATOM     10  C   UNL     1       2.834   2.999  20.566  0.00  0.00    +0.000 A 
ENDBRANCH   4   6
BRANCH   3  11
ATOM     11  O   UNL     1       6.715   4.471  18.691  0.00  0.00    +0.000 OA
ATOM     12  C   UNL     1       7.279   4.645  17.382  0.00  0.00    +0.000 C 
ENDBRANCH   3  11
TORSDOF 2
ENDMDL
MODEL 9
REMARK VINA RESULT:      -4.7      2.359      4.449
REMARK  Name = 
REMARK  4 active torsions:
REMARK  status: ('A' for Active; 'I' for Inactive)
REMARK    1  A    between atoms: C_1  and  N_2
REMARK    2  A    between atoms: C_3  and  O_10
REMARK    3  A    between atoms: N_4  and  N_5
REMARK    4  A    between atoms: O_10  and  C_11
REMARK                            x       y       z     vdW  Elec       q    Type
REMARK                         _______ _______ _______ _____ _____    ______ ____
ROOT
ATOM      1  C   UNL     1       3.899   6.449  17.697  0.00  0.00    +0.000 C 
ATOM      2  N   UNL     1       4.081   5.221  18.449  0.00  0.00    +0.000 N 
ATOM      3  C   UNL     1       4.172   3.985  17.873  0.00  0.00    +0.000 C 
ATOM      4  N   UNL     1       4.802   3.508  16.860  0.00  0.00    +0.000 NA
ATOM      5  H   UNL     1       3.429   5.170  19.227  0.00  0.00    +0.000 HD
ENDROOT
BRANCH   4   6
ATOM      6  N   UNL     1       5.732   4.263  16.229  0.00  0.00    +0.000 N 
ATOM      7  C   UNL     1       7.006   4.625  16.579  0.00  0.00    +0.000 A 
ATOM      8  N   UNL     1       7.542   5.386  15.650  0.00  0.00    +0.000 NA
ATOM      9  N   UNL     1       6.651   5.445  14.606  0.00  0.00    +0.000 NA
ATOM     10  C   UNL     1       5.604   4.727  14.944  0.00  0.00    +0.000 A 
ENDBRANCH   4   6
BRANCH   3  11
ATOM     11  O   UNL     1       3.365   3.159  18.591  0.00  0.00    +0.000 OA
ATOM     12  C   UNL     1       3.404   1.757  18.281  0.00  0.00    +0.000 C 
ENDBRANCH   3  11
TORSDOF 2
ENDMDL
