MODEL 1
REMARK VINA RESULT:      -6.8      0.000      0.000
REMARK  Name = 
REMARK  2 active torsions:
REMARK  status: ('A' for Active; 'I' for Inactive)
REMARK    1  A    between atoms: N_1  and  C_2
REMARK    2  A    between atoms: C_10  and  N_11
REMARK                            x       y       z     vdW  Elec       q    Type
REMARK                         _______ _______ _______ _____ _____    ______ ____
ROOT
ATOM      1  C   UNL     1       1.928   2.880  20.183  0.00  0.00    +0.000 A 
ATOM      2  C   UNL     1       1.501   2.239  19.019  0.00  0.00    +0.000 A 
ATOM      3  C   UNL     1       2.256   2.266  17.841  0.00  0.00    +0.000 A 
ATOM      4  C   UNL     1       3.441   3.007  17.852  0.00  0.00    +0.000 A 
ATOM      5  N   UNL     1       4.357   3.232  16.851  0.00  0.00    +0.000 N 
ATOM      6  C   UNL     1       5.379   4.041  17.289  0.00  0.00    +0.000 A 
ATOM      7  C   UNL     1       6.511   4.509  16.617  0.00  0.00    +0.000 A 
ATOM      8  C   UNL     1       7.408   5.305  17.341  0.00  0.00    +0.000 A 
ATOM      9  C   UNL     1       7.169   5.664  18.669  0.00  0.00    +0.000 A 
ATOM     10  C   UNL     1       6.044   5.145  19.327  0.00  0.00    +0.000 A 
ATOM     11  C   UNL     1       5.118   4.341  18.625  0.00  0.00    +0.000 A 
ATOM     12  C   UNL     1       3.888   3.696  18.977  0.00  0.00    +0.000 A 
ATOM     13  C   UNL     1       3.101   3.648  20.149  0.00  0.00    +0.000 A 
ATOM     14  H   UNL     1       4.286   2.856  15.917  0.00  0.00    +0.000 HD
ENDROOT
BRANCH   1  15
ATOM     15  N   UNL     1       1.075   2.953  21.294  0.00  0.00    +0.000 N 
ATOM     16  H   UNL     1       1.564   2.980  22.182  0.00  0.00    +0.000 HD
ATOM     17  H   UNL     1       0.371   3.680  21.218  0.00  0.00    +0.000 HD
ENDBRANCH   1  15
BRANCH   9  18
ATOM     18  N   UNL     1       8.159   6.335  19.401  0.00  0.00    +0.000 N 
ATOM     19  H   UNL     1       7.790   7.016  20.057  0.00  0.00    +0.000 HD
ATOM     20  H   UNL     1       8.839   5.715  19.831  0.00  0.00    +0.000 HD
ENDBRANCH   9  18
TORSDOF 2
ENDMDL
MODEL 2
REMARK VINA RESULT:      -6.8      0.084      5.076
REMARK  Name = 
REMARK  2 active torsions:
REMARK  status: ('A' for Active; 'I' for Inactive)
REMARK    1  A    between atoms: N_1  and  C_2
REMARK    2  A    between atoms: C_10  and  N_11
REMARK                            x       y       z     vdW  Elec       q    Type
REMARK                         _______ _______ _______ _____ _____    ______ ____
ROOT
ATOM      1  C   UNL     1       7.198   5.658  18.686  0.00  0.00    +0.000 A 
ATOM      2  C   UNL     1       7.482   5.268  17.377  0.00  0.00    +0.000 A 
ATOM      3  C   UNL     1       6.608   4.459  16.641  0.00  0.00    +0.000 A 
ATOM      4  C   UNL     1       5.452   4.008  17.284  0.00  0.00    +0.000 A 
ATOM      5  N   UNL     1       4.442   3.193  16.828  0.00  0.00    +0.000 N 
ATOM      6  C   UNL     1       3.496   2.986  17.804  0.00  0.00    +0.000 A 
ATOM      7  C   UNL     1       2.312   2.243  17.770  0.00  0.00    +0.000 A 
ATOM      8  C   UNL     1       1.520   2.240  18.925  0.00  0.00    +0.000 A 
ATOM      9  C   UNL     1       1.908   2.909  20.087  0.00  0.00    +0.000 A 
ATOM     10  C   UNL     1       3.081   3.678  20.076  0.00  0.00    +0.000 A 
ATOM     11  C   UNL     1       3.904   3.701  18.927  0.00  0.00    +0.000 A 
ATOM     12  C   UNL     1       5.146   4.338  18.603  0.00  0.00    +0.000 A 
ATOM     13  C   UNL     1       6.050   5.155  19.317  0.00  0.00    +0.000 A 
ATOM     14  H   UNL     1       4.403   2.797  15.901  0.00  0.00    +0.000 HD
ENDROOT
BRANCH   1  15
ATOM     15  N   UNL     1       8.165   6.343  19.437  0.00  0.00    +0.000 N 
ATOM     16  H   UNL     1       8.993   6.592  18.906  0.00  0.00    +0.000 HD
ATOM     17  H   UNL     1       7.791   7.130  19.960  0.00  0.00    +0.000 HD
ENDBRANCH   1  15
BRANCH   9  18
ATOM     18  N   UNL     1       1.020   3.005  21.168  0.00  0.00    +0.000 N 
ATOM     19  H   UNL     1       0.265   2.327  21.138  0.00  0.00    +0.000 HD
ATOM     20  H   UNL     1       1.480   3.030  22.072  0.00  0.00    +0.000 HD
ENDBRANCH   9  18
TORSDOF 2
ENDMDL
MODEL 3
REMARK VINA RESULT:      -6.7      1.186      1.360
REMARK  Name = 
REMARK  2 active torsions:
REMARK  status: ('A' for Active; 'I' for Inactive)
REMARK    1  A    between atoms: N_1  and  C_2
REMARK    2  A    between atoms: C_10  and  N_11
REMARK                            x       y       z     vdW  Elec       q    Type
REMARK                         _______ _______ _______ _____ _____    ______ ____
ROOT
ATOM      1  C   UNL     1       1.769   2.765  20.864  0.00  0.00    +0.000 A 
ATOM      2  C   UNL     1       0.744   2.656  19.924  0.00  0.00    +0.000 A 
ATOM      3  C   UNL     1       0.968   2.875  18.559  0.00  0.00    +0.000 A 
ATOM      4  C   UNL     1       2.253   3.261  18.170  0.00  0.00    +0.000 A 
ATOM      5  N   UNL     1       2.751   3.564  16.925  0.00  0.00    +0.000 N 
ATOM      6  C   UNL     1       4.078   3.915  16.994  0.00  0.00    +0.000 A 
ATOM      7  C   UNL     1       4.969   4.283  15.983  0.00  0.00    +0.000 A 
ATOM      8  C   UNL     1       6.290   4.560  16.356  0.00  0.00    +0.000 A 
ATOM      9  C   UNL     1       6.704   4.521  17.689  0.00  0.00    +0.000 A 
ATOM     10  C   UNL     1       5.795   4.109  18.676  0.00  0.00    +0.000 A 
ATOM     11  C   UNL     1       4.454   3.824  18.333  0.00  0.00    +0.000 A 
ATOM     12  C   UNL     1       3.298   3.421  19.077  0.00  0.00    +0.000 A 
ATOM     13  C   UNL     1       3.038   3.193  20.447  0.00  0.00    +0.000 A 
ATOM     14  H   UNL     1       2.211   3.537  16.072  0.00  0.00    +0.000 HD
ENDROOT
BRANCH   1  15
ATOM     15  N   UNL     1       1.474   2.683  22.233  0.00  0.00    +0.000 N 
ATOM     16  H   UNL     1       0.511   2.909  22.457  0.00  0.00    +0.000 HD
ATOM     17  H   UNL     1       1.776   1.814  22.662  0.00  0.00    +0.000 HD
ENDBRANCH   1  15
BRANCH   9  18
ATOM     18  N   UNL     1       8.063   4.658  18.005  0.00  0.00    +0.000 N 
ATOM     19  H   UNL     1       8.544   5.354  17.444  0.00  0.00    +0.000 HD
ATOM     20  H   UNL     1       8.242   4.772  18.997  0.00  0.00    +0.000 HD
ENDBRANCH   9  18
TORSDOF 2
ENDMDL
MODEL 4
REMARK VINA RESULT:      -6.7      1.083      5.130
REMARK  Name = 
REMARK  2 active torsions:
REMARK  status: ('A' for Active; 'I' for Inactive)
REMARK    1  A    between atoms: N_1  and  C_2
REMARK    2  A    between atoms: C_10  and  N_11
REMARK                            x       y       z     vdW  Elec       q    Type
REMARK                         _______ _______ _______ _____ _____    ______ ____
ROOT
ATOM      1  C   UNL     1       6.666   4.706  17.977  0.00  0.00    +0.000 A 
ATOM      2  C   UNL     1       6.327   4.705  16.624  0.00  0.00    +0.000 A 
ATOM      3  C   UNL     1       5.044   4.358  16.183  0.00  0.00    +0.000 A 
ATOM      4  C   UNL     1       4.117   3.958  17.149  0.00  0.00    +0.000 A 
ATOM      5  N   UNL     1       2.814   3.543  17.011  0.00  0.00    +0.000 N 
ATOM      6  C   UNL     1       2.264   3.224  18.231  0.00  0.00    +0.000 A 
ATOM      7  C   UNL     1       0.981   2.775  18.553  0.00  0.00    +0.000 A 
ATOM      8  C   UNL     1       0.695   2.558  19.907  0.00  0.00    +0.000 A 
ATOM      9  C   UNL     1       1.658   2.734  20.902  0.00  0.00    +0.000 A 
ATOM     10  C   UNL     1       2.925   3.224  20.550  0.00  0.00    +0.000 A 
ATOM     11  C   UNL     1       3.247   3.451  19.192  0.00  0.00    +0.000 A 
ATOM     12  C   UNL     1       4.421   3.905  18.508  0.00  0.00    +0.000 A 
ATOM     13  C   UNL     1       5.725   4.261  18.918  0.00  0.00    +0.000 A 
ATOM     14  H   UNL     1       2.325   3.478  16.130  0.00  0.00    +0.000 HD
ENDROOT
BRANCH   1  15
ATOM     15  N   UNL     1       7.997   4.916  18.365  0.00  0.00    +0.000 N 
ATOM     16  H   UNL     1       8.406   4.131  18.860  0.00  0.00    +0.000 HD
ATOM     17  H   UNL     1       8.591   5.249  17.612  0.00  0.00    +0.000 HD
ENDBRANCH   1  15
BRANCH   9  18
ATOM     18  N   UNL     1       1.292   2.652  22.253  0.00  0.00    +0.000 N 
ATOM     19  H   UNL     1       0.291   2.568  22.400  0.00  0.00    +0.000 HD
ATOM     20  H   UNL     1       1.818   1.959  22.776  0.00  0.00    +0.000 HD
ENDBRANCH   9  18
TORSDOF 2
ENDMDL
MODEL 5
REMARK VINA RESULT:      -6.6      1.763      2.690
REMARK  Name = 
REMARK  2 active torsions:
REMARK  status: ('A' for Active; 'I' for Inactive)
REMARK    1  A    between atoms: N_1  and  C_2
REMARK    2  A    between atoms: C_10  and  N_11
REMARK                            x       y       z     vdW  Elec       q    Type
REMARK                         _______ _______ _______ _____ _____    ______ ____
ROOT
ATOM      1  C   UNL     1       1.451   2.909  18.810  0.00  0.00    +0.000 A 
ATOM      2  C   UNL     1       1.493   3.571  20.037  0.00  0.00    +0.000 A 
ATOM      3  C   UNL     1       2.492   4.503  20.340  0.00  0.00    +0.000 A 
ATOM      4  C   UNL     1       3.488   4.715  19.383  0.00  0.00    +0.000 A 
ATOM      5  N   UNL     1       4.590   5.535  19.415  0.00  0.00    +0.000 N 
ATOM      6  C   UNL     1       5.324   5.423  18.257  0.00  0.00    +0.000 A 
ATOM      7  C   UNL     1       6.497   6.074  17.865  0.00  0.00    +0.000 A 
ATOM      8  C   UNL     1       7.007   5.774  16.596  0.00  0.00    +0.000 A 
ATOM      9  C   UNL     1       6.404   4.831  15.762  0.00  0.00    +0.000 A 
ATOM     10  C   UNL     1       5.205   4.226  16.168  0.00  0.00    +0.000 A 
ATOM     11  C   UNL     1       4.665   4.504  17.444  0.00  0.00    +0.000 A 
ATOM     12  C   UNL     1       3.511   4.048  18.160  0.00  0.00    +0.000 A 
ATOM     13  C   UNL     1       2.487   3.113  17.887  0.00  0.00    +0.000 A 
ATOM     14  H   UNL     1       4.832   6.139  20.188  0.00  0.00    +0.000 HD
ENDROOT
BRANCH   1  15
ATOM     15  N   UNL     1       0.523   1.878  18.602  0.00  0.00    +0.000 N 
ATOM     16  H   UNL     1       0.572   1.139  19.295  0.00  0.00    +0.000 HD
ATOM     17  H   UNL     1      -0.426   2.209  18.458  0.00  0.00    +0.000 HD
ENDBRANCH   1  15
BRANCH   9  18
ATOM     18  N   UNL     1       6.857   4.670  14.445  0.00  0.00    +0.000 N 
ATOM     19  H   UNL     1       6.512   5.380  13.806  0.00  0.00    +0.000 HD
ATOM     20  H   UNL     1       7.860   4.540  14.372  0.00  0.00    +0.000 HD
ENDBRANCH   9  18
TORSDOF 2
ENDMDL
MODEL 6
REMARK VINA RESULT:      -6.6      1.673      2.739
REMARK  Name = 
REMARK  2 active torsions:
REMARK  status: ('A' for Active; 'I' for Inactive)
REMARK    1  A    between atoms: N_1  and  C_2
REMARK    2  A    between atoms: C_10  and  N_11
REMARK                            x       y       z     vdW  Elec       q    Type
REMARK                         _______ _______ _______ _____ _____    ______ ____
ROOT
ATOM      1  C   UNL     1       1.765   2.543  18.742  0.00  0.00    +0.000 A 
ATOM      2  C   UNL     1       2.175   2.755  20.058  0.00  0.00    +0.000 A 
ATOM      3  C   UNL     1       3.411   3.337  20.363  0.00  0.00    +0.000 A 
ATOM      4  C   UNL     1       4.255   3.655  19.295  0.00  0.00    +0.000 A 
ATOM      5  N   UNL     1       5.516   4.201  19.292  0.00  0.00    +0.000 N 
ATOM      6  C   UNL     1       5.995   4.332  18.009  0.00  0.00    +0.000 A 
ATOM      7  C   UNL     1       7.211   4.843  17.548  0.00  0.00    +0.000 A 
ATOM      8  C   UNL     1       7.411   4.878  16.162  0.00  0.00    +0.000 A 
ATOM      9  C   UNL     1       6.461   4.382  15.267  0.00  0.00    +0.000 A 
ATOM     10  C   UNL     1       5.235   3.914  15.760  0.00  0.00    +0.000 A 
ATOM     11  C   UNL     1       5.002   3.862  17.153  0.00  0.00    +0.000 A 
ATOM     12  C   UNL     1       3.906   3.424  17.966  0.00  0.00    +0.000 A 
ATOM     13  C   UNL     1       2.651   2.835  17.694  0.00  0.00    +0.000 A 
ATOM     14  H   UNL     1       6.026   4.467  20.122  0.00  0.00    +0.000 HD
ENDROOT
BRANCH   1  15
ATOM     15  N   UNL     1       0.588   1.826  18.482  0.00  0.00    +0.000 N 
ATOM     16  H   UNL     1       0.724   1.024  17.875  0.00  0.00    +0.000 HD
ATOM     17  H   UNL     1       0.063   1.591  19.319  0.00  0.00    +0.000 HD
ENDBRANCH   1  15
BRANCH   9  18
ATOM     18  N   UNL     1       6.634   4.572  13.888  0.00  0.00    +0.000 N 
ATOM     19  H   UNL     1       6.410   5.511  13.574  0.00  0.00    +0.000 HD
ATOM     20  H   UNL     1       7.533   4.254  13.542  0.00  0.00    +0.000 HD
ENDBRANCH   9  18
TORSDOF 2
ENDMDL
MODEL 7
REMARK VINA RESULT:      -6.6      2.231      5.356
REMARK  Name = 
REMARK  2 active torsions:
REMARK  status: ('A' for Active; 'I' for Inactive)
REMARK    1  A    between atoms: N_1  and  C_2
REMARK    2  A    between atoms: C_10  and  N_11
REMARK                            x       y       z     vdW  Elec       q    Type
REMARK                         _______ _______ _______ _____ _____    ______ ____
ROOT
ATOM      1  C   UNL     1       5.636   4.317  15.542  0.00  0.00    +0.000 A 
ATOM      2  C   UNL     1       5.705   5.695  15.333  0.00  0.00    +0.000 A 
ATOM      3  C   UNL     1       5.053   6.603  16.176  0.00  0.00    +0.000 A 
ATOM      4  C   UNL     1       4.280   6.078  17.215  0.00  0.00    +0.000 A 
ATOM      5  N   UNL     1       3.519   6.715  18.166  0.00  0.00    +0.000 N 
ATOM      6  C   UNL     1       2.902   5.809  18.995  0.00  0.00    +0.000 A 
ATOM      7  C   UNL     1       2.057   6.015  20.089  0.00  0.00    +0.000 A 
ATOM      8  C   UNL     1       1.598   4.882  20.772  0.00  0.00    +0.000 A 
ATOM      9  C   UNL     1       1.924   3.589  20.359  0.00  0.00    +0.000 A 
ATOM     10  C   UNL     1       2.807   3.417  19.282  0.00  0.00    +0.000 A 
ATOM     11  C   UNL     1       3.287   4.539  18.570  0.00  0.00    +0.000 A 
ATOM     12  C   UNL     1       4.149   4.709  17.438  0.00  0.00    +0.000 A 
ATOM     13  C   UNL     1       4.819   3.820  16.568  0.00  0.00    +0.000 A 
ATOM     14  H   UNL     1       3.423   7.718  18.243  0.00  0.00    +0.000 HD
ENDROOT
BRANCH   1  15
ATOM     15  N   UNL     1       6.179   3.438  14.593  0.00  0.00    +0.000 N 
ATOM     16  H   UNL     1       7.101   3.709  14.266  0.00  0.00    +0.000 HD
ATOM     17  H   UNL     1       6.141   2.463  14.873  0.00  0.00    +0.000 HD
ENDBRANCH   1  15
BRANCH   9  18
ATOM     18  N   UNL     1       1.569   2.490  21.154  0.00  0.00    +0.000 N 
ATOM     19  H   UNL     1       1.834   2.588  22.128  0.00  0.00    +0.000 HD
ATOM     20  H   UNL     1       0.601   2.204  21.044  0.00  0.00    +0.000 HD
ENDBRANCH   9  18
TORSDOF 2
ENDMDL
MODEL 8
REMARK VINA RESULT:      -6.6      1.668      5.612
REMARK  Name = 
REMARK  2 active torsions:
REMARK  status: ('A' for Active; 'I' for Inactive)
REMARK    1  A    between atoms: N_1  and  C_2
REMARK    2  A    between atoms: C_10  and  N_11
REMARK                            x       y       z     vdW  Elec       q    Type
REMARK                         _______ _______ _______ _____ _____    ______ ____
ROOT
ATOM      1  C   UNL     1       6.464   4.376  15.281  0.00  0.00    +0.000 A 
ATOM      2  C   UNL     1       7.418   4.863  16.176  0.00  0.00    +0.000 A 
ATOM      3  C   UNL     1       7.217   4.826  17.562  0.00  0.00    +0.000 A 
ATOM      4  C   UNL     1       5.995   4.329  18.023  0.00  0.00    +0.000 A 
ATOM      5  N   UNL     1       5.516   4.201  19.305  0.00  0.00    +0.000 N 
ATOM      6  C   UNL     1       4.246   3.675  19.308  0.00  0.00    +0.000 A 
ATOM      7  C   UNL     1       3.397   3.370  20.376  0.00  0.00    +0.000 A 
ATOM      8  C   UNL     1       2.152   2.807  20.069  0.00  0.00    +0.000 A 
ATOM      9  C   UNL     1       1.742   2.597  18.751  0.00  0.00    +0.000 A 
ATOM     10  C   UNL     1       2.632   2.876  17.704  0.00  0.00    +0.000 A 
ATOM     11  C   UNL     1       3.896   3.447  17.979  0.00  0.00    +0.000 A 
ATOM     12  C   UNL     1       4.997   3.870  17.166  0.00  0.00    +0.000 A 
ATOM     13  C   UNL     1       5.232   3.922  15.774  0.00  0.00    +0.000 A 
ATOM     14  H   UNL     1       6.028   4.461  20.136  0.00  0.00    +0.000 HD
ENDROOT
BRANCH   1  15
ATOM     15  N   UNL     1       6.639   4.565  13.903  0.00  0.00    +0.000 N 
ATOM     16  H   UNL     1       5.772   4.559  13.377  0.00  0.00    +0.000 HD
ATOM     17  H   UNL     1       7.225   5.362  13.673  0.00  0.00    +0.000 HD
ENDBRANCH   1  15
BRANCH   9  18
ATOM     18  N   UNL     1       0.555   1.896  18.491  0.00  0.00    +0.000 N 
ATOM     19  H   UNL     1      -0.105   1.912  19.262  0.00  0.00    +0.000 HD
ATOM     20  H   UNL     1       0.122   2.142  17.607  0.00  0.00    +0.000 HD
ENDBRANCH   9  18
TORSDOF 2
ENDMDL
MODEL 9
REMARK VINA RESULT:      -6.6      1.777      5.647
REMARK  Name = 
REMARK  2 active torsions:
REMARK  status: ('A' for Active; 'I' for Inactive)
REMARK    1  A    between atoms: N_1  and  C_2
REMARK    2  A    between atoms: C_10  and  N_11
REMARK                            x       y       z     vdW  Elec       q    Type
REMARK                         _______ _______ _______ _____ _____    ______ ____
ROOT
ATOM      1  C   UNL     1       6.437   4.900  15.769  0.00  0.00    +0.000 A 
ATOM      2  C   UNL     1       7.045   5.832  16.611  0.00  0.00    +0.000 A 
ATOM      3  C   UNL     1       6.543   6.113  17.888  0.00  0.00    +0.000 A 
ATOM      4  C   UNL     1       5.370   5.460  18.277  0.00  0.00    +0.000 A 
ATOM      5  N   UNL     1       4.645   5.556  19.441  0.00  0.00    +0.000 N 
ATOM      6  C   UNL     1       3.536   4.743  19.402  0.00  0.00    +0.000 A 
ATOM      7  C   UNL     1       2.543   4.524  20.360  0.00  0.00    +0.000 A 
ATOM      8  C   UNL     1       1.537   3.602  20.046  0.00  0.00    +0.000 A 
ATOM      9  C   UNL     1       1.489   2.953  18.810  0.00  0.00    +0.000 A 
ATOM     10  C   UNL     1       2.524   3.164  17.887  0.00  0.00    +0.000 A 
ATOM     11  C   UNL     1       3.553   4.091  18.171  0.00  0.00    +0.000 A 
ATOM     12  C   UNL     1       4.706   4.552  17.456  0.00  0.00    +0.000 A 
ATOM     13  C   UNL     1       5.239   4.292  16.174  0.00  0.00    +0.000 A 
ATOM     14  H   UNL     1       4.891   6.148  20.221  0.00  0.00    +0.000 HD
ENDROOT
BRANCH   1  15
ATOM     15  N   UNL     1       6.883   4.757  14.447  0.00  0.00    +0.000 N 
ATOM     16  H   UNL     1       6.691   3.844  14.049  0.00  0.00    +0.000 HD
ATOM     17  H   UNL     1       6.591   5.514  13.836  0.00  0.00    +0.000 HD
ENDBRANCH   1  15
BRANCH   9  18
ATOM     18  N   UNL     1       0.556   1.930  18.593  0.00  0.00    +0.000 N 
ATOM     19  H   UNL     1      -0.070   2.107  17.813  0.00  0.00    +0.000 HD
ATOM     20  H   UNL     1       0.969   1.004  18.552  0.00  0.00    +0.000 HD
ENDBRANCH   9  18
TORSDOF 2
ENDMDL
