MODEL 1
REMARK VINA RESULT:      -7.0      0.000      0.000
REMARK  Name = 
REMARK  7 active torsions:
REMARK  status: ('A' for Active; 'I' for Inactive)
REMARK    1  A    between atoms: C_1  and  C_2
REMARK    2  A    between atoms: C_2  and  C_3
REMARK    3  A    between atoms: C_3  and  C_4
REMARK    4  A    between atoms: C_4  and  N_5
REMARK    5  A    between atoms: C_6  and  S_7
REMARK    6  A    between atoms: C_10  and  C_11
REMARK    7  A    between atoms: C_18  and  C_19
REMARK                            x       y       z     vdW  Elec       q    Type
REMARK                         _______ _______ _______ _____ _____    ______ ____
ROOT
ATOM      1  N   UNL     1       3.199   4.160  19.423  0.00  0.00    +0.000 N 
ATOM      2  C   UNL     1       2.781   3.185  20.295  0.00  0.00    +0.000 A 
ATOM      3  N   UNL     1       3.786   2.402  20.602  0.00  0.00    +0.000 NA
ATOM      4  N   UNL     1       4.885   2.851  19.923  0.00  0.00    +0.000 NA
ATOM      5  C   UNL     1       4.555   3.950  19.274  0.00  0.00    +0.000 A 
ENDROOT
BRANCH   5   6
ATOM      6  C   UNL     1       5.564   4.754  18.502  0.00  0.00    +0.000 A 
ATOM      7  C   UNL     1       6.506   5.583  19.068  0.00  0.00    +0.000 A 
ATOM      8  S   UNL     1       7.545   6.296  17.905  0.00  0.00    +0.000 S 
ATOM      9  C   UNL     1       6.772   5.463  16.645  0.00  0.00    +0.000 A 
ATOM     10  C   UNL     1       5.674   4.735  17.071  0.00  0.00    +0.000 A 
ATOM     11  C   UNL     1       4.778   4.005  16.102  0.00  0.00    +0.000 C 
ATOM     12  C   UNL     1       5.162   4.250  14.633  0.00  0.00    +0.000 C 
ATOM     13  C   UNL     1       6.691   4.322  14.450  0.00  0.00    +0.000 C 
ATOM     14  C   UNL     1       7.078   4.395  12.980  0.00  0.00    +0.000 C 
ATOM     15  C   UNL     1       7.253   5.530  15.230  0.00  0.00    +0.000 C 
ENDBRANCH   5   6
BRANCH   2  16
ATOM     16  S   UNL     1       1.188   2.984  20.938  0.00  0.00    +0.000 S 
ATOM     17  H   UNL     1       0.551   2.449  19.894  0.00  0.00    +0.000 HD
ENDBRANCH   2  16
BRANCH   1  18
ATOM     18  C   UNL     1       2.395   5.105  18.672  0.00  0.00    +0.000 C 
BRANCH  18  19
ATOM     19  C   UNL     1       2.637   6.557  19.092  0.00  0.00    +0.000 C 
BRANCH  19  21
ATOM     20  C   UNL     1       2.128   8.677  17.849  0.00  0.00    +0.000 C 
ATOM     21  C   UNL     1       3.013   7.440  17.906  0.00  0.00    +0.000 C 
ENDBRANCH  19  21
ENDBRANCH  18  19
ENDBRANCH   1  18
TORSDOF 5
ENDMDL
MODEL 2
REMARK VINA RESULT:      -6.7      1.517      2.722
REMARK  Name = 
REMARK  7 active torsions:
REMARK  status: ('A' for Active; 'I' for Inactive)
REMARK    1  A    between atoms: C_1  and  C_2
REMARK    2  A    between atoms: C_2  and  C_3
REMARK    3  A    between atoms: C_3  and  C_4
REMARK    4  A    between atoms: C_4  and  N_5
REMARK    5  A    between atoms: C_6  and  S_7
REMARK    6  A    between atoms: C_10  and  C_11
REMARK    7  A    between atoms: C_18  and  C_19
REMARK                            x       y       z     vdW  Elec       q    Type
REMARK                         _______ _______ _______ _____ _____    ______ ____
ROOT
ATOM      1  N   UNL     1       3.131   3.843  19.481  0.00  0.00    +0.000 N 
ATOM      2  C   UNL     1       3.006   2.937  20.506  0.00  0.00    +0.000 A 
ATOM      3  N   UNL     1       4.001   2.083  20.468  0.00  0.00    +0.000 NA
ATOM      4  N   UNL     1       4.793   2.415  19.404  0.00  0.00    +0.000 NA
ATOM      5  C   UNL     1       4.315   3.514  18.854  0.00  0.00    +0.000 A 
ENDROOT
BRANCH   5   6
ATOM      6  C   UNL     1       5.013   4.204  17.715  0.00  0.00    +0.000 A 
ATOM      7  C   UNL     1       4.723   4.008  16.383  0.00  0.00    +0.000 A 
ATOM      8  S   UNL     1       5.660   5.004  15.348  0.00  0.00    +0.000 S 
ATOM      9  C   UNL     1       6.423   5.734  16.676  0.00  0.00    +0.000 A 
ATOM     10  C   UNL     1       6.061   5.169  17.887  0.00  0.00    +0.000 A 
ATOM     11  C   UNL     1       6.699   5.593  19.186  0.00  0.00    +0.000 C 
ATOM     12  C   UNL     1       7.831   6.616  18.990  0.00  0.00    +0.000 C 
ATOM     13  C   UNL     1       7.501   7.619  17.865  0.00  0.00    +0.000 C 
ATOM     14  C   UNL     1       8.538   8.730  17.782  0.00  0.00    +0.000 C 
ATOM     15  C   UNL     1       7.383   6.871  16.519  0.00  0.00    +0.000 C 
ENDBRANCH   5   6
BRANCH   2  16
ATOM     16  S   UNL     1       1.761   2.892  21.704  0.00  0.00    +0.000 S 
ATOM     17  H   UNL     1       1.308   4.147  21.656  0.00  0.00    +0.000 HD
ENDBRANCH   2  16
BRANCH   1  18
ATOM     18  C   UNL     1       2.167   4.825  19.024  0.00  0.00    +0.000 C 
BRANCH  18  19
ATOM     19  C   UNL     1       2.566   6.260  19.379  0.00  0.00    +0.000 C 
BRANCH  19  21
ATOM     20  C   UNL     1       2.069   8.254  17.941  0.00  0.00    +0.000 C 
ATOM     21  C   UNL     1       2.986   7.058  18.150  0.00  0.00    +0.000 C 
ENDBRANCH  19  21
ENDBRANCH  18  19
ENDBRANCH   1  18
TORSDOF 5
ENDMDL
MODEL 3
REMARK VINA RESULT:      -6.6      1.017      1.603
REMARK  Name = 
REMARK  7 active torsions:
REMARK  status: ('A' for Active; 'I' for Inactive)
REMARK    1  A    between atoms: C_1  and  C_2
REMARK    2  A    between atoms: C_2  and  C_3
REMARK    3  A    between atoms: C_3  and  C_4
REMARK    4  A    between atoms: C_4  and  N_5
REMARK    5  A    between atoms: C_6  and  S_7
REMARK    6  A    between atoms: C_10  and  C_11
REMARK    7  A    between atoms: C_18  and  C_19
REMARK                            x       y       z     vdW  Elec       q    Type
REMARK                         _______ _______ _______ _____ _____    ______ ____
ROOT
ATOM      1  N   UNL     1       3.483   4.156  19.957  0.00  0.00    +0.000 N 
ATOM      2  C   UNL     1       3.081   3.034  20.638  0.00  0.00    +0.000 A 
ATOM      3  N   UNL     1       3.999   2.102  20.541  0.00  0.00    +0.000 NA
ATOM      4  N   UNL     1       5.020   2.602  19.781  0.00  0.00    +0.000 NA
ATOM      5  C   UNL     1       4.748   3.859  19.492  0.00  0.00    +0.000 A 
ENDROOT
BRANCH   5   6
ATOM      6  C   UNL     1       5.718   4.733  18.746  0.00  0.00    +0.000 A 
ATOM      7  C   UNL     1       6.624   5.584  19.339  0.00  0.00    +0.000 A 
ATOM      8  S   UNL     1       7.627   6.381  18.198  0.00  0.00    +0.000 S 
ATOM      9  C   UNL     1       6.887   5.558  16.913  0.00  0.00    +0.000 A 
ATOM     10  C   UNL     1       5.824   4.768  17.315  0.00  0.00    +0.000 A 
ATOM     11  C   UNL     1       4.958   4.032  16.323  0.00  0.00    +0.000 C 
ATOM     12  C   UNL     1       5.326   4.344  14.863  0.00  0.00    +0.000 C 
ATOM     13  C   UNL     1       6.850   4.490  14.680  0.00  0.00    +0.000 C 
ATOM     14  C   UNL     1       7.228   4.630  13.212  0.00  0.00    +0.000 C 
ATOM     15  C   UNL     1       7.360   5.695  15.500  0.00  0.00    +0.000 C 
ENDBRANCH   5   6
BRANCH   2  16
ATOM     16  S   UNL     1       1.610   2.830  21.523  0.00  0.00    +0.000 S 
ATOM     17  H   UNL     1       1.928   3.392  22.691  0.00  0.00    +0.000 HD
ENDBRANCH   2  16
BRANCH   1  18
ATOM     18  C   UNL     1       2.710   5.339  19.631  0.00  0.00    +0.000 C 
BRANCH  18  19
ATOM     19  C   UNL     1       2.238   5.358  18.175  0.00  0.00    +0.000 C 
BRANCH  19  21
ATOM     20  C   UNL     1       2.074   3.062  17.179  0.00  0.00    +0.000 C 
ATOM     21  C   UNL     1       1.312   4.189  17.858  0.00  0.00    +0.000 C 
ENDBRANCH  19  21
ENDBRANCH  18  19
ENDBRANCH   1  18
TORSDOF 5
ENDMDL
MODEL 4
REMARK VINA RESULT:      -6.5      0.748      1.021
REMARK  Name = 
REMARK  7 active torsions:
REMARK  status: ('A' for Active; 'I' for Inactive)
REMARK    1  A    between atoms: C_1  and  C_2
REMARK    2  A    between atoms: C_2  and  C_3
REMARK    3  A    between atoms: C_3  and  C_4
REMARK    4  A    between atoms: C_4  and  N_5
REMARK    5  A    between atoms: C_6  and  S_7
REMARK    6  A    between atoms: C_10  and  C_11
REMARK    7  A    between atoms: C_18  and  C_19
REMARK                            x       y       z     vdW  Elec       q    Type
REMARK                         _______ _______ _______ _____ _____    ______ ____
ROOT
ATOM      1  N   UNL     1       3.223   4.145  19.529  0.00  0.00    +0.000 N 
ATOM      2  C   UNL     1       2.807   3.136  20.362  0.00  0.00    +0.000 A 
ATOM      3  N   UNL     1       3.805   2.319  20.603  0.00  0.00    +0.000 NA
ATOM      4  N   UNL     1       4.895   2.781  19.919  0.00  0.00    +0.000 NA
ATOM      5  C   UNL     1       4.570   3.917  19.334  0.00  0.00    +0.000 A 
ENDROOT
BRANCH   5   6
ATOM      6  C   UNL     1       5.576   4.740  18.577  0.00  0.00    +0.000 A 
ATOM      7  C   UNL     1       6.517   5.560  19.159  0.00  0.00    +0.000 A 
ATOM      8  S   UNL     1       7.551   6.300  18.009  0.00  0.00    +0.000 S 
ATOM      9  C   UNL     1       6.777   5.492  16.734  0.00  0.00    +0.000 A 
ATOM     10  C   UNL     1       5.683   4.752  17.146  0.00  0.00    +0.000 A 
ATOM     11  C   UNL     1       4.786   4.040  16.164  0.00  0.00    +0.000 C 
ATOM     12  C   UNL     1       5.166   4.318  14.700  0.00  0.00    +0.000 C 
ATOM     13  C   UNL     1       6.695   4.397  14.515  0.00  0.00    +0.000 C 
ATOM     14  C   UNL     1       7.078   4.502  13.046  0.00  0.00    +0.000 C 
ATOM     15  C   UNL     1       7.255   5.590  15.319  0.00  0.00    +0.000 C 
ENDBRANCH   5   6
BRANCH   2  16
ATOM     16  S   UNL     1       1.228   2.932  21.036  0.00  0.00    +0.000 S 
ATOM     17  H   UNL     1       0.813   4.198  21.112  0.00  0.00    +0.000 HD
ENDBRANCH   2  16
BRANCH   1  18
ATOM     18  C   UNL     1       2.419   5.141  18.848  0.00  0.00    +0.000 C 
BRANCH  18  19
ATOM     19  C   UNL     1       2.595   6.547  19.430  0.00  0.00    +0.000 C 
BRANCH  19  21
ATOM     20  C   UNL     1       1.283   8.077  20.924  0.00  0.00    +0.000 C 
ATOM     21  C   UNL     1       1.906   6.696  20.782  0.00  0.00    +0.000 C 
ENDBRANCH  19  21
ENDBRANCH  18  19
ENDBRANCH   1  18
TORSDOF 5
ENDMDL
MODEL 5
REMARK VINA RESULT:      -6.1      2.673      5.912
REMARK  Name = 
REMARK  7 active torsions:
REMARK  status: ('A' for Active; 'I' for Inactive)
REMARK    1  A    between atoms: C_1  and  C_2
REMARK    2  A    between atoms: C_2  and  C_3
REMARK    3  A    between atoms: C_3  and  C_4
REMARK    4  A    between atoms: C_4  and  N_5
REMARK    5  A    between atoms: C_6  and  S_7
REMARK    6  A    between atoms: C_10  and  C_11
REMARK    7  A    between atoms: C_18  and  C_19
REMARK                            x       y       z     vdW  Elec       q    Type
REMARK                         _______ _______ _______ _____ _____    ______ ____
ROOT
ATOM      1  N   UNL     1       5.979   5.666  16.076  0.00  0.00    +0.000 N 
ATOM      2  C   UNL     1       6.284   4.896  14.981  0.00  0.00    +0.000 A 
ATOM      3  N   UNL     1       5.425   3.911  14.876  0.00  0.00    +0.000 NA
ATOM      4  N   UNL     1       4.542   4.017  15.915  0.00  0.00    +0.000 NA
ATOM      5  C   UNL     1       4.826   5.111  16.594  0.00  0.00    +0.000 A 
ENDROOT
BRANCH   5   6
ATOM      6  C   UNL     1       3.981   5.575  17.747  0.00  0.00    +0.000 A 
ATOM      7  C   UNL     1       3.458   6.843  17.878  0.00  0.00    +0.000 A 
ATOM      8  S   UNL     1       2.484   7.015  19.278  0.00  0.00    +0.000 S 
ATOM      9  C   UNL     1       2.717   5.387  19.690  0.00  0.00    +0.000 A 
ATOM     10  C   UNL     1       3.603   4.736  18.849  0.00  0.00    +0.000 A 
ATOM     11  C   UNL     1       4.037   3.312  19.095  0.00  0.00    +0.000 C 
ATOM     12  C   UNL     1       3.476   2.736  20.405  0.00  0.00    +0.000 C 
ATOM     13  C   UNL     1       2.033   3.216  20.665  0.00  0.00    +0.000 C 
ATOM     14  C   UNL     1       1.417   2.517  21.869  0.00  0.00    +0.000 C 
ATOM     15  C   UNL     1       2.021   4.749  20.852  0.00  0.00    +0.000 C 
ENDBRANCH   5   6
BRANCH   2  16
ATOM     16  S   UNL     1       7.579   5.149  13.864  0.00  0.00    +0.000 S 
ATOM     17  H   UNL     1       7.603   6.482  13.791  0.00  0.00    +0.000 HD
ENDBRANCH   2  16
BRANCH   1  18
ATOM     18  C   UNL     1       6.765   6.722  16.683  0.00  0.00    +0.000 C 
BRANCH  18  19
ATOM     19  C   UNL     1       7.464   6.278  17.971  0.00  0.00    +0.000 C 
BRANCH  19  21
ATOM     20  C   UNL     1       8.042   8.717  17.863  0.00  0.00    +0.000 C 
ATOM     21  C   UNL     1       8.272   7.407  18.602  0.00  0.00    +0.000 C 
ENDBRANCH  19  21
ENDBRANCH  18  19
ENDBRANCH   1  18
TORSDOF 5
ENDMDL
MODEL 6
REMARK VINA RESULT:      -6.1      1.789      2.998
REMARK  Name = 
REMARK  7 active torsions:
REMARK  status: ('A' for Active; 'I' for Inactive)
REMARK    1  A    between atoms: C_1  and  C_2
REMARK    2  A    between atoms: C_2  and  C_3
REMARK    3  A    between atoms: C_3  and  C_4
REMARK    4  A    between atoms: C_4  and  N_5
REMARK    5  A    between atoms: C_6  and  S_7
REMARK    6  A    between atoms: C_10  and  C_11
REMARK    7  A    between atoms: C_18  and  C_19
REMARK                            x       y       z     vdW  Elec       q    Type
REMARK                         _______ _______ _______ _____ _____    ______ ____
ROOT
ATOM      1  N   UNL     1       2.792   3.839  18.517  0.00  0.00    +0.000 N 
ATOM      2  C   UNL     1       2.292   2.755  19.197  0.00  0.00    +0.000 A 
ATOM      3  N   UNL     1       2.958   1.675  18.865  0.00  0.00    +0.000 NA
ATOM      4  N   UNL     1       3.906   2.038  17.949  0.00  0.00    +0.000 NA
ATOM      5  C   UNL     1       3.859   3.346  17.794  0.00  0.00    +0.000 A 
ENDROOT
BRANCH   5   6
ATOM      6  C   UNL     1       4.840   4.082  16.923  0.00  0.00    +0.000 A 
ATOM      7  C   UNL     1       4.861   4.031  15.547  0.00  0.00    +0.000 A 
ATOM      8  S   UNL     1       6.066   5.043  14.866  0.00  0.00    +0.000 S 
ATOM      9  C   UNL     1       6.533   5.589  16.403  0.00  0.00    +0.000 A 
ATOM     10  C   UNL     1       5.868   4.945  17.432  0.00  0.00    +0.000 A 
ATOM     11  C   UNL     1       6.204   5.199  18.881  0.00  0.00    +0.000 C 
ATOM     12  C   UNL     1       7.402   6.146  19.058  0.00  0.00    +0.000 C 
ATOM     13  C   UNL     1       7.399   7.270  18.001  0.00  0.00    +0.000 C 
ATOM     14  C   UNL     1       8.483   8.302  18.276  0.00  0.00    +0.000 C 
ATOM     15  C   UNL     1       7.561   6.659  16.592  0.00  0.00    +0.000 C 
ENDBRANCH   5   6
BRANCH   2  16
ATOM     16  S   UNL     1       0.996   2.758  20.342  0.00  0.00    +0.000 S 
ATOM     17  H   UNL     1       1.235   3.893  21.002  0.00  0.00    +0.000 HD
ENDBRANCH   2  16
BRANCH   1  18
ATOM     18  C   UNL     1       2.241   5.176  18.422  0.00  0.00    +0.000 C 
BRANCH  18  19
ATOM     19  C   UNL     1       2.774   6.118  19.504  0.00  0.00    +0.000 C 
BRANCH  19  21
ATOM     20  C   UNL     1       1.496   7.886  20.743  0.00  0.00    +0.000 C 
ATOM     21  C   UNL     1       1.736   6.392  20.587  0.00  0.00    +0.000 C 
ENDBRANCH  19  21
ENDBRANCH  18  19
ENDBRANCH   1  18
TORSDOF 5
ENDMDL
MODEL 7
REMARK VINA RESULT:      -6.0      3.789      5.130
REMARK  Name = 
REMARK  7 active torsions:
REMARK  status: ('A' for Active; 'I' for Inactive)
REMARK    1  A    between atoms: C_1  and  C_2
REMARK    2  A    between atoms: C_2  and  C_3
REMARK    3  A    between atoms: C_3  and  C_4
REMARK    4  A    between atoms: C_4  and  N_5
REMARK    5  A    between atoms: C_6  and  S_7
REMARK    6  A    between atoms: C_10  and  C_11
REMARK    7  A    between atoms: C_18  and  C_19
REMARK                            x       y       z     vdW  Elec       q    Type
REMARK                         _______ _______ _______ _____ _____    ______ ____
ROOT
ATOM      1  N   UNL     1       1.512   8.917  19.585  0.00  0.00    +0.000 N 
ATOM      2  C   UNL     1       1.154  10.058  18.910  0.00  0.00    +0.000 A 
ATOM      3  N   UNL     1       1.567   9.988  17.667  0.00  0.00    +0.000 NA
ATOM      4  N   UNL     1       2.215   8.794  17.511  0.00  0.00    +0.000 NA
ATOM      5  C   UNL     1       2.120   8.117  18.638  0.00  0.00    +0.000 A 
ENDROOT
BRANCH   5   6
ATOM      6  C   UNL     1       2.646   6.714  18.773  0.00  0.00    +0.000 A 
ATOM      7  C   UNL     1       2.172   5.780  19.667  0.00  0.00    +0.000 A 
ATOM      8  S   UNL     1       2.948   4.260  19.508  0.00  0.00    +0.000 S 
ATOM      9  C   UNL     1       3.887   4.829  18.214  0.00  0.00    +0.000 A 
ATOM     10  C   UNL     1       3.703   6.177  17.963  0.00  0.00    +0.000 A 
ATOM     11  C   UNL     1       4.515   6.913  16.927  0.00  0.00    +0.000 C 
ATOM     12  C   UNL     1       5.602   6.034  16.286  0.00  0.00    +0.000 C 
ATOM     13  C   UNL     1       5.111   4.587  16.076  0.00  0.00    +0.000 C 
ATOM     14  C   UNL     1       6.120   3.761  15.291  0.00  0.00    +0.000 C 
ATOM     15  C   UNL     1       4.809   3.937  17.444  0.00  0.00    +0.000 C 
ENDBRANCH   5   6
BRANCH   2  16
ATOM     16  S   UNL     1       0.274  11.404  19.544  0.00  0.00    +0.000 S 
ATOM     17  H   UNL     1       1.238  12.063  20.191  0.00  0.00    +0.000 HD
ENDBRANCH   2  16
BRANCH   1  18
ATOM     18  C   UNL     1       1.442   8.651  21.008  0.00  0.00    +0.000 C 
BRANCH  18  19
ATOM     19  C   UNL     1       0.012   8.699  21.552  0.00  0.00    +0.000 C 
BRANCH  19  21
ATOM     20  C   UNL     1      -0.943  10.490  23.027  0.00  0.00    +0.000 C 
ATOM     21  C   UNL     1      -0.044   9.265  22.967  0.00  0.00    +0.000 C 
ENDBRANCH  19  21
ENDBRANCH  18  19
ENDBRANCH   1  18
TORSDOF 5
ENDMDL
MODEL 8
REMARK VINA RESULT:      -6.0      3.407      4.837
REMARK  Name = 
REMARK  7 active torsions:
REMARK  status: ('A' for Active; 'I' for Inactive)
REMARK    1  A    between atoms: C_1  and  C_2
REMARK    2  A    between atoms: C_2  and  C_3
REMARK    3  A    between atoms: C_3  and  C_4
REMARK    4  A    between atoms: C_4  and  N_5
REMARK    5  A    between atoms: C_6  and  S_7
REMARK    6  A    between atoms: C_10  and  C_11
REMARK    7  A    between atoms: C_18  and  C_19
REMARK                            x       y       z     vdW  Elec       q    Type
REMARK                         _______ _______ _______ _____ _____    ______ ____
ROOT
ATOM      1  N   UNL     1       1.871   8.143  19.393  0.00  0.00    +0.000 N 
ATOM      2  C   UNL     1       0.975   9.171  19.233  0.00  0.00    +0.000 A 
ATOM      3  N   UNL     1       1.120   9.707  18.045  0.00  0.00    +0.000 NA
ATOM      4  N   UNL     1       2.128   9.038  17.408  0.00  0.00    +0.000 NA
ATOM      5  C   UNL     1       2.531   8.052  18.184  0.00  0.00    +0.000 A 
ENDROOT
BRANCH   5   6
ATOM      6  C   UNL     1       3.567   7.058  17.737  0.00  0.00    +0.000 A 
ATOM      7  C   UNL     1       4.865   7.375  17.401  0.00  0.00    +0.000 A 
ATOM      8  S   UNL     1       5.800   5.994  17.003  0.00  0.00    +0.000 S 
ATOM      9  C   UNL     1       4.490   4.965  17.323  0.00  0.00    +0.000 A 
ATOM     10  C   UNL     1       3.326   5.648  17.625  0.00  0.00    +0.000 A 
ATOM     11  C   UNL     1       2.015   4.932  17.839  0.00  0.00    +0.000 C 
ATOM     12  C   UNL     1       2.112   3.419  17.585  0.00  0.00    +0.000 C 
ATOM     13  C   UNL     1       3.457   2.846  18.078  0.00  0.00    +0.000 C 
ATOM     14  C   UNL     1       3.488   1.327  17.982  0.00  0.00    +0.000 C 
ATOM     15  C   UNL     1       4.616   3.474  17.275  0.00  0.00    +0.000 C 
ENDBRANCH   5   6
BRANCH   2  16
ATOM     16  S   UNL     1      -0.202   9.708  20.380  0.00  0.00    +0.000 S 
ATOM     17  H   UNL     1      -0.041  11.031  20.319  0.00  0.00    +0.000 HD
ENDBRANCH   2  16
BRANCH   1  18
ATOM     18  C   UNL     1       2.200   7.413  20.601  0.00  0.00    +0.000 C 
BRANCH  18  19
ATOM     19  C   UNL     1       1.385   6.127  20.759  0.00  0.00    +0.000 C 
BRANCH  19  21
ATOM     20  C   UNL     1       1.449   3.650  21.153  0.00  0.00    +0.000 C 
ATOM     21  C   UNL     1       2.263   4.934  21.126  0.00  0.00    +0.000 C 
ENDBRANCH  19  21
ENDBRANCH  18  19
ENDBRANCH   1  18
TORSDOF 5
ENDMDL
MODEL 9
REMARK VINA RESULT:      -5.9      1.602      2.706
REMARK  Name = 
REMARK  7 active torsions:
REMARK  status: ('A' for Active; 'I' for Inactive)
REMARK    1  A    between atoms: C_1  and  C_2
REMARK    2  A    between atoms: C_2  and  C_3
REMARK    3  A    between atoms: C_3  and  C_4
REMARK    4  A    between atoms: C_4  and  N_5
REMARK    5  A    between atoms: C_6  and  S_7
REMARK    6  A    between atoms: C_10  and  C_11
REMARK    7  A    between atoms: C_18  and  C_19
REMARK                            x       y       z     vdW  Elec       q    Type
REMARK                         _______ _______ _______ _____ _____    ______ ____
ROOT
ATOM      1  N   UNL     1       3.620   3.727  20.088  0.00  0.00    +0.000 N 
ATOM      2  C   UNL     1       2.384   4.034  20.603  0.00  0.00    +0.000 A 
ATOM      3  N   UNL     1       2.149   5.316  20.460  0.00  0.00    +0.000 NA
ATOM      4  N   UNL     1       3.240   5.873  19.853  0.00  0.00    +0.000 NA
ATOM      5  C   UNL     1       4.093   4.912  19.561  0.00  0.00    +0.000 A 
ENDROOT
BRANCH   5   6
ATOM      6  C   UNL     1       5.360   5.176  18.796  0.00  0.00    +0.000 A 
ATOM      7  C   UNL     1       6.556   5.554  19.365  0.00  0.00    +0.000 A 
ATOM      8  S   UNL     1       7.818   5.705  18.214  0.00  0.00    +0.000 S 
ATOM      9  C   UNL     1       6.785   5.219  16.959  0.00  0.00    +0.000 A 
ATOM     10  C   UNL     1       5.475   5.045  17.371  0.00  0.00    +0.000 A 
ATOM     11  C   UNL     1       4.370   4.718  16.398  0.00  0.00    +0.000 C 
ATOM     12  C   UNL     1       4.846   4.708  14.937  0.00  0.00    +0.000 C 
ATOM     13  C   UNL     1       6.264   4.116  14.805  0.00  0.00    +0.000 C 
ATOM     14  C   UNL     1       6.669   3.950  13.347  0.00  0.00    +0.000 C 
ATOM     15  C   UNL     1       7.272   5.009  15.560  0.00  0.00    +0.000 C 
ENDBRANCH   5   6
BRANCH   2  16
ATOM     16  S   UNL     1       1.260   2.935  21.323  0.00  0.00    +0.000 S 
ATOM     17  H   UNL     1       0.174   3.148  20.577  0.00  0.00    +0.000 HD
ENDBRANCH   2  16
BRANCH   1  18
ATOM     18  C   UNL     1       4.366   2.490  20.210  0.00  0.00    +0.000 C 
BRANCH  18  19
ATOM     19  C   UNL     1       3.784   1.359  19.358  0.00  0.00    +0.000 C 
BRANCH  19  21
ATOM     20  C   UNL     1       2.179   2.162  17.605  0.00  0.00    +0.000 C 
ATOM     21  C   UNL     1       3.619   1.768  17.898  0.00  0.00    +0.000 C 
ENDBRANCH  19  21
ENDBRANCH  18  19
ENDBRANCH   1  18
TORSDOF 5
ENDMDL
