MODEL 1
REMARK VINA RESULT:      -7.1      0.000      0.000
REMARK  Name = 
REMARK  17 active torsions:
REMARK  status: ('A' for Active; 'I' for Inactive)
REMARK    1  A    between atoms: C_4  and  C_5
REMARK    2  A    between atoms: C_10  and  C_11
REMARK    3  A    between atoms: C_15  and  C_16
REMARK    4  A    between atoms: C_16  and  C_17
REMARK    5  A    between atoms: C_16  and  C_18
REMARK    6  A    between atoms: C_18  and  C_19
REMARK    7  A    between atoms: C_18  and  C_23
REMARK    8  A    between atoms: C_19  and  C_20
REMARK    9  A    between atoms: C_20  and  C_21
REMARK   10  A    between atoms: C_21  and  C_22
REMARK   11  A    between atoms: C_23  and  C_24
REMARK   12  A    between atoms: C_24  and  C_25
REMARK   13  A    between atoms: C_25  and  C_26
REMARK   14  A    between atoms: C_25  and  C_27
REMARK   15  A    between atoms: C_25  and  O_28
REMARK   16  A    between atoms: C_30  and  O_31
REMARK   17  A    between atoms: C_33  and  O_34
REMARK                            x       y       z     vdW  Elec       q    Type
REMARK                         _______ _______ _______ _____ _____    ______ ____
ROOT
ATOM      1  C   UNL     1       2.139   7.189  20.200  0.00  0.00    +0.000 C 
ATOM      2  C   UNL     1       1.985   5.837  20.109  0.00  0.00    +0.000 C 
ATOM      3  C   UNL     1       0.800   5.062  20.623  0.00  0.00    +0.000 C 
ATOM      4  C   UNL     1       0.615   3.690  19.938  0.00  0.00    +0.000 C 
ATOM      5  C   UNL     1       1.950   2.864  19.671  0.00  0.00    +0.000 C 
ATOM      6  C   UNL     1       2.865   3.726  18.711  0.00  0.00    +0.000 C 
ATOM      7  C   UNL     1       2.045   3.542  17.413  0.00  0.00    +0.000 C 
ATOM      8  C   UNL     1       3.108   4.929  19.725  0.00  0.00    +0.000 C 
ATOM      9  C   UNL     1       4.498   5.471  19.544  0.00  0.00    +0.000 C 
ATOM     10  C   UNL     1       5.305   4.244  19.168  0.00  0.00    +0.000 C 
ATOM     11  C   UNL     1       4.389   3.385  18.273  0.00  0.00    +0.000 C 
ENDROOT
BRANCH   1  15
ATOM     12  C   UNL     1       1.365   9.192  17.560  0.00  0.00    +0.000 C 
ATOM     13  C   UNL     1       1.250   9.855  18.723  0.00  0.00    +0.000 C 
ATOM     14  C   UNL     1       0.687   9.237  19.936  0.00  0.00    +0.000 C 
ATOM     15  C   UNL     1       1.122   8.135  20.585  0.00  0.00    +0.000 C 
ATOM     16  C   UNL     1      -0.465  10.038  20.532  0.00  0.00    +0.000 C 
ATOM     17  C   UNL     1      -0.078  11.499  20.789  0.00  0.00    +0.000 C 
ATOM     18  C   UNL     1       0.485  12.155  19.533  0.00  0.00    +0.000 C 
ATOM     19  C   UNL     1       1.617  11.331  18.902  0.00  0.00    +0.000 C 
BRANCH  17  20
ATOM     20  O   UNL     1       0.852  11.597  21.868  0.00  0.00    +0.000 OA
ATOM     21  H   UNL     1       0.477  11.139  22.640  0.00  0.00    +0.000 HD
ENDBRANCH  17  20
BRANCH  19  22
ATOM     22  O   UNL     1       1.964  11.949  17.660  0.00  0.00    +0.000 OA
ATOM     23  H   UNL     1       1.838  11.283  16.963  0.00  0.00    +0.000 HD
ENDBRANCH  19  22
ENDBRANCH   1  15
BRANCH  11  24
ATOM     24  C   UNL     1       4.824   3.523  16.687  0.00  0.00    +0.000 C 
ATOM     25  C   UNL     1       5.271   2.146  16.153  0.00  0.00    +0.000 C 
BRANCH  24  26
ATOM     26  C   UNL     1       5.838   4.651  16.195  0.00  0.00    +0.000 C 
BRANCH  26  27
ATOM     27  C   UNL     1       5.318   6.128  16.238  0.00  0.00    +0.000 C 
BRANCH  27  28
ATOM     28  C   UNL     1       6.163   7.262  16.800  0.00  0.00    +0.000 C 
BRANCH  28  29
ATOM     29  C   UNL     1       7.617   6.909  17.111  0.00  0.00    +0.000 C 
ATOM     30  C   UNL     1       7.807   6.696  18.611  0.00  0.00    +0.000 C 
ENDBRANCH  28  29
ENDBRANCH  27  28
ENDBRANCH  26  27
BRANCH  26  31
ATOM     31  C   UNL     1       6.366   4.470  14.756  0.00  0.00    +0.000 C 
BRANCH  31  32
ATOM     32  C   UNL     1       5.244   4.226  13.725  0.00  0.00    +0.000 C 
BRANCH  32  33
ATOM     33  C   UNL     1       5.736   3.554  12.429  0.00  0.00    +0.000 C 
ATOM     34  C   UNL     1       4.619   3.415  11.395  0.00  0.00    +0.000 C 
ATOM     35  C   UNL     1       6.907   4.344  11.844  0.00  0.00    +0.000 C 
BRANCH  33  36
ATOM     36  O   UNL     1       6.246   2.252  12.726  0.00  0.00    +0.000 OA
ATOM     37  H   UNL     1       7.214   2.285  12.663  0.00  0.00    +0.000 HD
ENDBRANCH  33  36
ENDBRANCH  32  33
ENDBRANCH  31  32
ENDBRANCH  26  31
ENDBRANCH  24  26
ENDBRANCH  11  24
TORSDOF 12
ENDMDL
MODEL 2
REMARK VINA RESULT:      -7.0      3.345      9.725
REMARK  Name = 
REMARK  17 active torsions:
REMARK  status: ('A' for Active; 'I' for Inactive)
REMARK    1  A    between atoms: C_4  and  C_5
REMARK    2  A    between atoms: C_10  and  C_11
REMARK    3  A    between atoms: C_15  and  C_16
REMARK    4  A    between atoms: C_16  and  C_17
REMARK    5  A    between atoms: C_16  and  C_18
REMARK    6  A    between atoms: C_18  and  C_19
REMARK    7  A    between atoms: C_18  and  C_23
REMARK    8  A    between atoms: C_19  and  C_20
REMARK    9  A    between atoms: C_20  and  C_21
REMARK   10  A    between atoms: C_21  and  C_22
REMARK   11  A    between atoms: C_23  and  C_24
REMARK   12  A    between atoms: C_24  and  C_25
REMARK   13  A    between atoms: C_25  and  C_26
REMARK   14  A    between atoms: C_25  and  C_27
REMARK   15  A    between atoms: C_25  and  O_28
REMARK   16  A    between atoms: C_30  and  O_31
REMARK   17  A    between atoms: C_33  and  O_34
REMARK                            x       y       z     vdW  Elec       q    Type
REMARK                         _______ _______ _______ _____ _____    ______ ____
ROOT
ATOM      1  C   UNL     1       2.374   8.330  17.969  0.00  0.00    +0.000 C 
ATOM      2  C   UNL     1       1.650   8.373  19.124  0.00  0.00    +0.000 C 
ATOM      3  C   UNL     1       1.833   7.449  20.299  0.00  0.00    +0.000 C 
ATOM      4  C   UNL     1       1.303   8.028  21.629  0.00  0.00    +0.000 C 
ATOM      5  C   UNL     1      -0.082   8.807  21.541  0.00  0.00    +0.000 C 
ATOM      6  C   UNL     1       0.118  10.035  20.564  0.00  0.00    +0.000 C 
ATOM      7  C   UNL     1       0.982  10.912  21.500  0.00  0.00    +0.000 C 
ATOM      8  C   UNL     1       0.398   9.179  19.252  0.00  0.00    +0.000 C 
ATOM      9  C   UNL     1      -0.182   9.881  18.056  0.00  0.00    +0.000 C 
ATOM     10  C   UNL     1      -1.416  10.560  18.615  0.00  0.00    +0.000 C 
ATOM     11  C   UNL     1      -1.039  11.039  20.031  0.00  0.00    +0.000 C 
ENDROOT
BRANCH   1  15
ATOM     12  C   UNL     1       1.588   5.046  17.548  0.00  0.00    +0.000 C 
ATOM     13  C   UNL     1       2.781   5.186  18.151  0.00  0.00    +0.000 C 
ATOM     14  C   UNL     1       3.750   6.224  17.758  0.00  0.00    +0.000 C 
ATOM     15  C   UNL     1       3.575   7.563  17.750  0.00  0.00    +0.000 C 
ATOM     16  C   UNL     1       5.125   5.657  17.422  0.00  0.00    +0.000 C 
ATOM     17  C   UNL     1       5.681   4.785  18.553  0.00  0.00    +0.000 C 
ATOM     18  C   UNL     1       4.694   3.693  18.952  0.00  0.00    +0.000 C 
ATOM     19  C   UNL     1       3.295   4.252  19.250  0.00  0.00    +0.000 C 
BRANCH  17  20
ATOM     20  O   UNL     1       6.033   5.583  19.685  0.00  0.00    +0.000 OA
ATOM     21  H   UNL     1       6.646   5.072  20.242  0.00  0.00    +0.000 HD
ENDBRANCH  17  20
BRANCH  19  22
ATOM     22  O   UNL     1       2.419   3.141  19.460  0.00  0.00    +0.000 OA
ATOM     23  H   UNL     1       1.969   3.289  20.309  0.00  0.00    +0.000 HD
ENDBRANCH  19  22
ENDBRANCH   1  15
BRANCH  11  24
ATOM     24  C   UNL     1      -0.767  12.667  20.046  0.00  0.00    +0.000 C 
ATOM     25  C   UNL     1      -2.109  13.413  20.188  0.00  0.00    +0.000 C 
BRANCH  24  26
ATOM     26  C   UNL     1       0.131  13.373  18.932  0.00  0.00    +0.000 C 
BRANCH  26  27
ATOM     27  C   UNL     1       1.683  13.264  19.111  0.00  0.00    +0.000 C 
BRANCH  27  28
ATOM     28  C   UNL     1       2.640  13.404  17.937  0.00  0.00    +0.000 C 
BRANCH  28  29
ATOM     29  C   UNL     1       3.799  14.379  18.144  0.00  0.00    +0.000 C 
ATOM     30  C   UNL     1       3.550  15.678  17.382  0.00  0.00    +0.000 C 
ENDBRANCH  28  29
ENDBRANCH  27  28
ENDBRANCH  26  27
BRANCH  26  31
ATOM     31  C   UNL     1      -0.132  14.881  18.745  0.00  0.00    +0.000 C 
BRANCH  31  32
ATOM     32  C   UNL     1       0.629  15.760  19.760  0.00  0.00    +0.000 C 
BRANCH  32  33
ATOM     33  C   UNL     1       0.560  17.266  19.442  0.00  0.00    +0.000 C 
ATOM     34  C   UNL     1       1.839  17.998  19.848  0.00  0.00    +0.000 C 
ATOM     35  C   UNL     1       0.279  17.472  17.953  0.00  0.00    +0.000 C 
BRANCH  33  36
ATOM     36  O   UNL     1      -0.541  17.855  20.137  0.00  0.00    +0.000 OA
ATOM     37  H   UNL     1      -0.259  18.047  21.046  0.00  0.00    +0.000 HD
ENDBRANCH  33  36
ENDBRANCH  32  33
ENDBRANCH  31  32
ENDBRANCH  26  31
ENDBRANCH  24  26
ENDBRANCH  11  24
TORSDOF 12
ENDMDL
MODEL 3
REMARK VINA RESULT:      -6.8      3.438     10.353
REMARK  Name = 
REMARK  17 active torsions:
REMARK  status: ('A' for Active; 'I' for Inactive)
REMARK    1  A    between atoms: C_4  and  C_5
REMARK    2  A    between atoms: C_10  and  C_11
REMARK    3  A    between atoms: C_15  and  C_16
REMARK    4  A    between atoms: C_16  and  C_17
REMARK    5  A    between atoms: C_16  and  C_18
REMARK    6  A    between atoms: C_18  and  C_19
REMARK    7  A    between atoms: C_18  and  C_23
REMARK    8  A    between atoms: C_19  and  C_20
REMARK    9  A    between atoms: C_20  and  C_21
REMARK   10  A    between atoms: C_21  and  C_22
REMARK   11  A    between atoms: C_23  and  C_24
REMARK   12  A    between atoms: C_24  and  C_25
REMARK   13  A    between atoms: C_25  and  C_26
REMARK   14  A    between atoms: C_25  and  C_27
REMARK   15  A    between atoms: C_25  and  O_28
REMARK   16  A    between atoms: C_30  and  O_31
REMARK   17  A    between atoms: C_33  and  O_34
REMARK                            x       y       z     vdW  Elec       q    Type
REMARK                         _______ _______ _______ _____ _____    ______ ____
ROOT
ATOM      1  C   UNL     1       2.212   8.268  17.869  0.00  0.00    +0.000 C 
ATOM      2  C   UNL     1       1.568   8.514  19.045  0.00  0.00    +0.000 C 
ATOM      3  C   UNL     1       1.853   7.823  20.352  0.00  0.00    +0.000 C 
ATOM      4  C   UNL     1       1.402   8.630  21.589  0.00  0.00    +0.000 C 
ATOM      5  C   UNL     1      -0.004   9.366  21.461  0.00  0.00    +0.000 C 
ATOM      6  C   UNL     1       0.099  10.396  20.265  0.00  0.00    +0.000 C 
ATOM      7  C   UNL     1       1.005  11.438  20.962  0.00  0.00    +0.000 C 
ATOM      8  C   UNL     1       0.309   9.317  19.114  0.00  0.00    +0.000 C 
ATOM      9  C   UNL     1      -0.368   9.782  17.856  0.00  0.00    +0.000 C 
ATOM     10  C   UNL     1      -1.577  10.539  18.369  0.00  0.00    +0.000 C 
ATOM     11  C   UNL     1      -1.115  11.273  19.643  0.00  0.00    +0.000 C 
ENDROOT
BRANCH   1  15
ATOM     12  C   UNL     1       1.416   4.971  17.590  0.00  0.00    +0.000 C 
ATOM     13  C   UNL     1       2.599   5.135  18.205  0.00  0.00    +0.000 C 
ATOM     14  C   UNL     1       3.580   6.149  17.781  0.00  0.00    +0.000 C 
ATOM     15  C   UNL     1       3.412   7.487  17.706  0.00  0.00    +0.000 C 
ATOM     16  C   UNL     1       4.958   5.561  17.496  0.00  0.00    +0.000 C 
ATOM     17  C   UNL     1       5.490   4.741  18.676  0.00  0.00    +0.000 C 
ATOM     18  C   UNL     1       4.491   3.674  19.109  0.00  0.00    +0.000 C 
ATOM     19  C   UNL     1       3.090   4.252  19.356  0.00  0.00    +0.000 C 
BRANCH  17  20
ATOM     20  O   UNL     1       5.827   5.590  19.775  0.00  0.00    +0.000 OA
ATOM     21  H   UNL     1       6.471   6.251  19.466  0.00  0.00    +0.000 HD
ENDBRANCH  17  20
BRANCH  19  22
ATOM     22  O   UNL     1       2.205   3.156  19.603  0.00  0.00    +0.000 OA
ATOM     23  H   UNL     1       1.704   3.002  18.784  0.00  0.00    +0.000 HD
ENDBRANCH  19  22
ENDBRANCH   1  15
BRANCH  11  24
ATOM     24  C   UNL     1      -0.880  12.878  19.342  0.00  0.00    +0.000 C 
ATOM     25  C   UNL     1       0.364  13.060  18.449  0.00  0.00    +0.000 C 
BRANCH  24  26
ATOM     26  C   UNL     1      -0.864  13.954  20.520  0.00  0.00    +0.000 C 
BRANCH  26  27
ATOM     27  C   UNL     1      -2.254  14.507  20.983  0.00  0.00    +0.000 C 
BRANCH  27  28
ATOM     28  C   UNL     1      -2.929  14.021  22.258  0.00  0.00    +0.000 C 
BRANCH  28  29
ATOM     29  C   UNL     1      -3.211  12.520  22.323  0.00  0.00    +0.000 C 
ATOM     30  C   UNL     1      -2.184  11.820  23.209  0.00  0.00    +0.000 C 
ENDBRANCH  28  29
ENDBRANCH  27  28
ENDBRANCH  26  27
BRANCH  26  31
ATOM     31  C   UNL     1      -0.022  15.216  20.238  0.00  0.00    +0.000 C 
BRANCH  31  32
ATOM     32  C   UNL     1      -0.811  16.528  20.434  0.00  0.00    +0.000 C 
BRANCH  32  33
ATOM     33  C   UNL     1      -0.966  17.350  19.140  0.00  0.00    +0.000 C 
ATOM     34  C   UNL     1      -2.360  17.964  19.013  0.00  0.00    +0.000 C 
ATOM     35  C   UNL     1       0.104  18.442  19.084  0.00  0.00    +0.000 C 
BRANCH  33  36
ATOM     36  O   UNL     1      -0.733  16.512  18.006  0.00  0.00    +0.000 OA
ATOM     37  H   UNL     1      -1.313  15.737  18.078  0.00  0.00    +0.000 HD
ENDBRANCH  33  36
ENDBRANCH  32  33
ENDBRANCH  31  32
ENDBRANCH  26  31
ENDBRANCH  24  26
ENDBRANCH  11  24
TORSDOF 12
ENDMDL
MODEL 4
REMARK VINA RESULT:      -6.7      3.144      9.947
REMARK  Name = 
REMARK  17 active torsions:
REMARK  status: ('A' for Active; 'I' for Inactive)
REMARK    1  A    between atoms: C_4  and  C_5
REMARK    2  A    between atoms: C_10  and  C_11
REMARK    3  A    between atoms: C_15  and  C_16
REMARK    4  A    between atoms: C_16  and  C_17
REMARK    5  A    between atoms: C_16  and  C_18
REMARK    6  A    between atoms: C_18  and  C_19
REMARK    7  A    between atoms: C_18  and  C_23
REMARK    8  A    between atoms: C_19  and  C_20
REMARK    9  A    between atoms: C_20  and  C_21
REMARK   10  A    between atoms: C_21  and  C_22
REMARK   11  A    between atoms: C_23  and  C_24
REMARK   12  A    between atoms: C_24  and  C_25
REMARK   13  A    between atoms: C_25  and  C_26
REMARK   14  A    between atoms: C_25  and  C_27
REMARK   15  A    between atoms: C_25  and  O_28
REMARK   16  A    between atoms: C_30  and  O_31
REMARK   17  A    between atoms: C_33  and  O_34
REMARK                            x       y       z     vdW  Elec       q    Type
REMARK                         _______ _______ _______ _____ _____    ______ ____
ROOT
ATOM      1  C   UNL     1       2.185   8.292  17.896  0.00  0.00    +0.000 C 
ATOM      2  C   UNL     1       1.558   8.515  19.086  0.00  0.00    +0.000 C 
ATOM      3  C   UNL     1       1.854   7.789  20.372  0.00  0.00    +0.000 C 
ATOM      4  C   UNL     1       1.426   8.570  21.634  0.00  0.00    +0.000 C 
ATOM      5  C   UNL     1       0.025   9.321  21.542  0.00  0.00    +0.000 C 
ATOM      6  C   UNL     1       0.123  10.380  20.371  0.00  0.00    +0.000 C 
ATOM      7  C   UNL     1       1.047  11.396  21.081  0.00  0.00    +0.000 C 
ATOM      8  C   UNL     1       0.308   9.327  19.191  0.00  0.00    +0.000 C 
ATOM      9  C   UNL     1      -0.381   9.829  17.953  0.00  0.00    +0.000 C 
ATOM     10  C   UNL     1      -1.576  10.584  18.500  0.00  0.00    +0.000 C 
ATOM     11  C   UNL     1      -1.090  11.283  19.786  0.00  0.00    +0.000 C 
ENDROOT
BRANCH   1  15
ATOM     12  C   UNL     1       1.361   5.002  17.622  0.00  0.00    +0.000 C 
ATOM     13  C   UNL     1       2.561   5.155  18.208  0.00  0.00    +0.000 C 
ATOM     14  C   UNL     1       3.537   6.165  17.763  0.00  0.00    +0.000 C 
ATOM     15  C   UNL     1       3.376   7.505  17.698  0.00  0.00    +0.000 C 
ATOM     16  C   UNL     1       4.903   5.569  17.440  0.00  0.00    +0.000 C 
ATOM     17  C   UNL     1       5.460   4.741  18.602  0.00  0.00    +0.000 C 
ATOM     18  C   UNL     1       4.466   3.678  19.056  0.00  0.00    +0.000 C 
ATOM     19  C   UNL     1       3.076   4.263  19.341  0.00  0.00    +0.000 C 
BRANCH  17  20
ATOM     20  O   UNL     1       5.830   5.582  19.695  0.00  0.00    +0.000 OA
ATOM     21  H   UNL     1       5.018   5.912  20.119  0.00  0.00    +0.000 HD
ENDBRANCH  17  20
BRANCH  19  22
ATOM     22  O   UNL     1       2.190   3.172  19.607  0.00  0.00    +0.000 OA
ATOM     23  H   UNL     1       2.670   2.355  19.390  0.00  0.00    +0.000 HD
ENDBRANCH  19  22
ENDBRANCH   1  15
BRANCH  11  24
ATOM     24  C   UNL     1      -0.844  12.893  19.522  0.00  0.00    +0.000 C 
ATOM     25  C   UNL     1       0.123  13.079  18.335  0.00  0.00    +0.000 C 
BRANCH  24  26
ATOM     26  C   UNL     1      -0.444  13.882  20.708  0.00  0.00    +0.000 C 
BRANCH  26  27
ATOM     27  C   UNL     1      -1.471  14.019  21.882  0.00  0.00    +0.000 C 
BRANCH  27  28
ATOM     28  C   UNL     1      -1.484  13.053  23.057  0.00  0.00    +0.000 C 
BRANCH  28  29
ATOM     29  C   UNL     1      -2.800  12.309  23.284  0.00  0.00    +0.000 C 
ATOM     30  C   UNL     1      -3.786  12.610  22.158  0.00  0.00    +0.000 C 
ENDBRANCH  28  29
ENDBRANCH  27  28
ENDBRANCH  26  27
BRANCH  26  31
ATOM     31  C   UNL     1      -0.156  15.335  20.275  0.00  0.00    +0.000 C 
BRANCH  31  32
ATOM     32  C   UNL     1       1.128  15.913  20.908  0.00  0.00    +0.000 C 
BRANCH  32  33
ATOM     33  C   UNL     1       2.315  15.988  19.928  0.00  0.00    +0.000 C 
ATOM     34  C   UNL     1       3.249  17.156  20.247  0.00  0.00    +0.000 C 
ATOM     35  C   UNL     1       3.088  14.669  19.944  0.00  0.00    +0.000 C 
BRANCH  33  36
ATOM     36  O   UNL     1       1.829  16.145  18.594  0.00  0.00    +0.000 OA
ATOM     37  H   UNL     1       1.781  15.267  18.183  0.00  0.00    +0.000 HD
ENDBRANCH  33  36
ENDBRANCH  32  33
ENDBRANCH  31  32
ENDBRANCH  26  31
ENDBRANCH  24  26
ENDBRANCH  11  24
TORSDOF 12
ENDMDL
MODEL 5
REMARK VINA RESULT:      -6.6      2.925      5.382
REMARK  Name = 
REMARK  17 active torsions:
REMARK  status: ('A' for Active; 'I' for Inactive)
REMARK    1  A    between atoms: C_4  and  C_5
REMARK    2  A    between atoms: C_10  and  C_11
REMARK    3  A    between atoms: C_15  and  C_16
REMARK    4  A    between atoms: C_16  and  C_17
REMARK    5  A    between atoms: C_16  and  C_18
REMARK    6  A    between atoms: C_18  and  C_19
REMARK    7  A    between atoms: C_18  and  C_23
REMARK    8  A    between atoms: C_19  and  C_20
REMARK    9  A    between atoms: C_20  and  C_21
REMARK   10  A    between atoms: C_21  and  C_22
REMARK   11  A    between atoms: C_23  and  C_24
REMARK   12  A    between atoms: C_24  and  C_25
REMARK   13  A    between atoms: C_25  and  C_26
REMARK   14  A    between atoms: C_25  and  C_27
REMARK   15  A    between atoms: C_25  and  O_28
REMARK   16  A    between atoms: C_30  and  O_31
REMARK   17  A    between atoms: C_33  and  O_34
REMARK                            x       y       z     vdW  Elec       q    Type
REMARK                         _______ _______ _______ _____ _____    ______ ____
ROOT
ATOM      1  C   UNL     1      -1.116   9.948  18.423  0.00  0.00    +0.000 C 
ATOM      2  C   UNL     1      -0.226   9.746  19.437  0.00  0.00    +0.000 C 
ATOM      3  C   UNL     1      -0.304  10.383  20.800  0.00  0.00    +0.000 C 
ATOM      4  C   UNL     1       0.462   9.603  21.890  0.00  0.00    +0.000 C 
ATOM      5  C   UNL     1       1.876   9.013  21.456  0.00  0.00    +0.000 C 
ATOM      6  C   UNL     1       1.630   7.999  20.267  0.00  0.00    +0.000 C 
ATOM      7  C   UNL     1       0.986   6.860  21.091  0.00  0.00    +0.000 C 
ATOM      8  C   UNL     1       1.090   9.072  19.222  0.00  0.00    +0.000 C 
ATOM      9  C   UNL     1       1.539   8.700  17.837  0.00  0.00    +0.000 C 
ATOM     10  C   UNL     1       2.892   8.058  18.069  0.00  0.00    +0.000 C 
ATOM     11  C   UNL     1       2.769   7.259  19.382  0.00  0.00    +0.000 C 
ENDROOT
BRANCH   1  15
ATOM     12  C   UNL     1      -0.667  13.319  18.544  0.00  0.00    +0.000 C 
ATOM     13  C   UNL     1      -1.731  12.944  19.273  0.00  0.00    +0.000 C 
ATOM     14  C   UNL     1      -2.668  11.897  18.830  0.00  0.00    +0.000 C 
ATOM     15  C   UNL     1      -2.392  10.608  18.534  0.00  0.00    +0.000 C 
ATOM     16  C   UNL     1      -4.119  12.365  18.813  0.00  0.00    +0.000 C 
ATOM     17  C   UNL     1      -4.550  12.952  20.161  0.00  0.00    +0.000 C 
ATOM     18  C   UNL     1      -3.599  14.053  20.619  0.00  0.00    +0.000 C 
ATOM     19  C   UNL     1      -2.132  13.603  20.596  0.00  0.00    +0.000 C 
BRANCH  17  20
ATOM     20  O   UNL     1      -4.650  11.930  21.154  0.00  0.00    +0.000 OA
ATOM     21  H   UNL     1      -4.115  11.169  20.866  0.00  0.00    +0.000 HD
ENDBRANCH  17  20
BRANCH  19  22
ATOM     22  O   UNL     1      -1.322  14.745  20.891  0.00  0.00    +0.000 OA
ATOM     23  H   UNL     1      -1.383  15.344  20.128  0.00  0.00    +0.000 HD
ENDBRANCH  19  22
ENDBRANCH   1  15
BRANCH  11  24
ATOM     24  C   UNL     1       2.631   5.644  19.074  0.00  0.00    +0.000 C 
ATOM     25  C   UNL     1       2.739   4.855  20.396  0.00  0.00    +0.000 C 
BRANCH  24  26
ATOM     26  C   UNL     1       3.505   4.932  17.945  0.00  0.00    +0.000 C 
BRANCH  26  27
ATOM     27  C   UNL     1       2.867   3.682  17.250  0.00  0.00    +0.000 C 
BRANCH  27  28
ATOM     28  C   UNL     1       3.155   2.264  17.722  0.00  0.00    +0.000 C 
BRANCH  28  29
ATOM     29  C   UNL     1       2.225   1.731  18.811  0.00  0.00    +0.000 C 
ATOM     30  C   UNL     1       0.828   2.328  18.662  0.00  0.00    +0.000 C 
ENDBRANCH  28  29
ENDBRANCH  27  28
ENDBRANCH  26  27
BRANCH  26  31
ATOM     31  C   UNL     1       4.896   4.449  18.407  0.00  0.00    +0.000 C 
BRANCH  31  32
ATOM     32  C   UNL     1       5.741   5.566  19.055  0.00  0.00    +0.000 C 
BRANCH  32  33
ATOM     33  C   UNL     1       7.179   5.644  18.509  0.00  0.00    +0.000 C 
ATOM     34  C   UNL     1       7.464   4.547  17.483  0.00  0.00    +0.000 C 
ATOM     35  C   UNL     1       7.430   7.023  17.897  0.00  0.00    +0.000 C 
BRANCH  33  36
ATOM     36  O   UNL     1       8.111   5.514  19.584  0.00  0.00    +0.000 OA
ATOM     37  H   UNL     1       7.617   5.555  20.419  0.00  0.00    +0.000 HD
ENDBRANCH  33  36
ENDBRANCH  32  33
ENDBRANCH  31  32
ENDBRANCH  26  31
ENDBRANCH  24  26
ENDBRANCH  11  24
TORSDOF 12
ENDMDL
MODEL 6
REMARK VINA RESULT:      -6.6      3.410     10.382
REMARK  Name = 
REMARK  17 active torsions:
REMARK  status: ('A' for Active; 'I' for Inactive)
REMARK    1  A    between atoms: C_4  and  C_5
REMARK    2  A    between atoms: C_10  and  C_11
REMARK    3  A    between atoms: C_15  and  C_16
REMARK    4  A    between atoms: C_16  and  C_17
REMARK    5  A    between atoms: C_16  and  C_18
REMARK    6  A    between atoms: C_18  and  C_19
REMARK    7  A    between atoms: C_18  and  C_23
REMARK    8  A    between atoms: C_19  and  C_20
REMARK    9  A    between atoms: C_20  and  C_21
REMARK   10  A    between atoms: C_21  and  C_22
REMARK   11  A    between atoms: C_23  and  C_24
REMARK   12  A    between atoms: C_24  and  C_25
REMARK   13  A    between atoms: C_25  and  C_26
REMARK   14  A    between atoms: C_25  and  C_27
REMARK   15  A    between atoms: C_25  and  O_28
REMARK   16  A    between atoms: C_30  and  O_31
REMARK   17  A    between atoms: C_33  and  O_34
REMARK                            x       y       z     vdW  Elec       q    Type
REMARK                         _______ _______ _______ _____ _____    ______ ____
ROOT
ATOM      1  C   UNL     1       2.263   8.178  17.791  0.00  0.00    +0.000 C 
ATOM      2  C   UNL     1       1.617   8.466  18.956  0.00  0.00    +0.000 C 
ATOM      3  C   UNL     1       1.898   7.818  20.287  0.00  0.00    +0.000 C 
ATOM      4  C   UNL     1       1.446   8.667  21.495  0.00  0.00    +0.000 C 
ATOM      5  C   UNL     1       0.042   9.401  21.339  0.00  0.00    +0.000 C 
ATOM      6  C   UNL     1       0.151  10.391  20.109  0.00  0.00    +0.000 C 
ATOM      7  C   UNL     1       1.057  11.454  20.773  0.00  0.00    +0.000 C 
ATOM      8  C   UNL     1       0.360   9.273  18.996  0.00  0.00    +0.000 C 
ATOM      9  C   UNL     1      -0.313   9.697  17.721  0.00  0.00    +0.000 C 
ATOM     10  C   UNL     1      -1.521  10.474  18.205  0.00  0.00    +0.000 C 
ATOM     11  C   UNL     1      -1.059  11.249  19.456  0.00  0.00    +0.000 C 
ENDROOT
BRANCH   1  15
ATOM     12  C   UNL     1       1.458   4.878  17.598  0.00  0.00    +0.000 C 
ATOM     13  C   UNL     1       2.638   5.055  18.217  0.00  0.00    +0.000 C 
ATOM     14  C   UNL     1       3.625   6.053  17.770  0.00  0.00    +0.000 C 
ATOM     15  C   UNL     1       3.462   7.390  17.657  0.00  0.00    +0.000 C 
ATOM     16  C   UNL     1       5.002   5.453  17.510  0.00  0.00    +0.000 C 
ATOM     17  C   UNL     1       5.525   4.665  18.716  0.00  0.00    +0.000 C 
ATOM     18  C   UNL     1       4.519   3.613  19.172  0.00  0.00    +0.000 C 
ATOM     19  C   UNL     1       3.119   4.202  19.394  0.00  0.00    +0.000 C 
BRANCH  17  20
ATOM     20  O   UNL     1       5.857   5.543  19.792  0.00  0.00    +0.000 OA
ATOM     21  H   UNL     1       6.782   5.377  20.049  0.00  0.00    +0.000 HD
ENDBRANCH  17  20
BRANCH  19  22
ATOM     22  O   UNL     1       2.229   3.116  19.666  0.00  0.00    +0.000 OA
ATOM     23  H   UNL     1       2.401   2.827  20.578  0.00  0.00    +0.000 HD
ENDBRANCH  19  22
ENDBRANCH   1  15
BRANCH  11  24
ATOM     24  C   UNL     1      -0.820  12.843  19.102  0.00  0.00    +0.000 C 
ATOM     25  C   UNL     1       0.621  13.048  18.590  0.00  0.00    +0.000 C 
BRANCH  24  26
ATOM     26  C   UNL     1      -1.195  13.994  20.141  0.00  0.00    +0.000 C 
BRANCH  26  27
ATOM     27  C   UNL     1      -0.038  14.963  20.560  0.00  0.00    +0.000 C 
BRANCH  27  28
ATOM     28  C   UNL     1       0.059  16.381  20.017  0.00  0.00    +0.000 C 
BRANCH  28  29
ATOM     29  C   UNL     1      -0.621  16.619  18.669  0.00  0.00    +0.000 C 
ATOM     30  C   UNL     1       0.177  17.619  17.835  0.00  0.00    +0.000 C 
ENDBRANCH  28  29
ENDBRANCH  27  28
ENDBRANCH  26  27
BRANCH  26  31
ATOM     31  C   UNL     1      -1.786  13.497  21.477  0.00  0.00    +0.000 C 
BRANCH  31  32
ATOM     32  C   UNL     1      -3.070  14.248  21.888  0.00  0.00    +0.000 C 
BRANCH  32  33
ATOM     33  C   UNL     1      -4.304  13.332  22.010  0.00  0.00    +0.000 C 
ATOM     34  C   UNL     1      -5.525  14.082  22.541  0.00  0.00    +0.000 C 
ATOM     35  C   UNL     1      -4.617  12.696  20.655  0.00  0.00    +0.000 C 
BRANCH  33  36
ATOM     36  O   UNL     1      -4.014  12.249  22.897  0.00  0.00    +0.000 OA
ATOM     37  H   UNL     1      -4.570  11.494  22.646  0.00  0.00    +0.000 HD
ENDBRANCH  33  36
ENDBRANCH  32  33
ENDBRANCH  31  32
ENDBRANCH  26  31
ENDBRANCH  24  26
ENDBRANCH  11  24
TORSDOF 12
ENDMDL
MODEL 7
REMARK VINA RESULT:      -6.6      3.377      9.651
REMARK  Name = 
REMARK  17 active torsions:
REMARK  status: ('A' for Active; 'I' for Inactive)
REMARK    1  A    between atoms: C_4  and  C_5
REMARK    2  A    between atoms: C_10  and  C_11
REMARK    3  A    between atoms: C_15  and  C_16
REMARK    4  A    between atoms: C_16  and  C_17
REMARK    5  A    between atoms: C_16  and  C_18
REMARK    6  A    between atoms: C_18  and  C_19
REMARK    7  A    between atoms: C_18  and  C_23
REMARK    8  A    between atoms: C_19  and  C_20
REMARK    9  A    between atoms: C_20  and  C_21
REMARK   10  A    between atoms: C_21  and  C_22
REMARK   11  A    between atoms: C_23  and  C_24
REMARK   12  A    between atoms: C_24  and  C_25
REMARK   13  A    between atoms: C_25  and  C_26
REMARK   14  A    between atoms: C_25  and  C_27
REMARK   15  A    between atoms: C_25  and  O_28
REMARK   16  A    between atoms: C_30  and  O_31
REMARK   17  A    between atoms: C_33  and  O_34
REMARK                            x       y       z     vdW  Elec       q    Type
REMARK                         _______ _______ _______ _____ _____    ______ ____
ROOT
ATOM      1  C   UNL     1       2.326   8.454  18.005  0.00  0.00    +0.000 C 
ATOM      2  C   UNL     1       1.615   8.514  19.167  0.00  0.00    +0.000 C 
ATOM      3  C   UNL     1       1.787   7.583  20.339  0.00  0.00    +0.000 C 
ATOM      4  C   UNL     1       1.285   8.173  21.675  0.00  0.00    +0.000 C 
ATOM      5  C   UNL     1      -0.082   8.987  21.602  0.00  0.00    +0.000 C 
ATOM      6  C   UNL     1       0.139  10.212  20.625  0.00  0.00    +0.000 C 
ATOM      7  C   UNL     1       1.034  11.064  21.554  0.00  0.00    +0.000 C 
ATOM      8  C   UNL     1       0.384   9.351  19.309  0.00  0.00    +0.000 C 
ATOM      9  C   UNL     1      -0.190  10.069  18.121  0.00  0.00    +0.000 C 
ATOM     10  C   UNL     1      -1.401  10.777  18.693  0.00  0.00    +0.000 C 
ATOM     11  C   UNL     1      -0.998  11.245  20.106  0.00  0.00    +0.000 C 
ENDROOT
BRANCH   1  15
ATOM     12  C   UNL     1       1.450   5.198  17.547  0.00  0.00    +0.000 C 
ATOM     13  C   UNL     1       2.648   5.299  18.147  0.00  0.00    +0.000 C 
ATOM     14  C   UNL     1       3.644   6.315  17.764  0.00  0.00    +0.000 C 
ATOM     15  C   UNL     1       3.505   7.659  17.772  0.00  0.00    +0.000 C 
ATOM     16  C   UNL     1       5.001   5.715  17.416  0.00  0.00    +0.000 C 
ATOM     17  C   UNL     1       5.537   4.815  18.535  0.00  0.00    +0.000 C 
ATOM     18  C   UNL     1       4.522   3.745  18.924  0.00  0.00    +0.000 C 
ATOM     19  C   UNL     1       3.140   4.338  19.233  0.00  0.00    +0.000 C 
BRANCH  17  20
ATOM     20  O   UNL     1       5.914   5.589  19.675  0.00  0.00    +0.000 OA
ATOM     21  H   UNL     1       5.318   5.362  20.411  0.00  0.00    +0.000 HD
ENDBRANCH  17  20
BRANCH  19  22
ATOM     22  O   UNL     1       2.235   3.249  19.433  0.00  0.00    +0.000 OA
ATOM     23  H   UNL     1       1.343   3.628  19.509  0.00  0.00    +0.000 HD
ENDBRANCH  19  22
ENDBRANCH   1  15
BRANCH  11  24
ATOM     24  C   UNL     1      -0.685  12.865  20.120  0.00  0.00    +0.000 C 
ATOM     25  C   UNL     1      -1.988  13.640  20.407  0.00  0.00    +0.000 C 
BRANCH  24  26
ATOM     26  C   UNL     1       0.116  13.571  18.934  0.00  0.00    +0.000 C 
BRANCH  26  27
ATOM     27  C   UNL     1       1.482  12.923  18.530  0.00  0.00    +0.000 C 
BRANCH  27  28
ATOM     28  C   UNL     1       2.811  13.463  19.038  0.00  0.00    +0.000 C 
BRANCH  28  29
ATOM     29  C   UNL     1       3.599  14.316  18.044  0.00  0.00    +0.000 C 
ATOM     30  C   UNL     1       4.729  15.059  18.753  0.00  0.00    +0.000 C 
ENDBRANCH  28  29
ENDBRANCH  27  28
ENDBRANCH  26  27
BRANCH  26  31
ATOM     31  C   UNL     1       0.448  15.059  19.169  0.00  0.00    +0.000 C 
BRANCH  31  32
ATOM     32  C   UNL     1      -0.255  16.002  18.170  0.00  0.00    +0.000 C 
BRANCH  32  33
ATOM     33  C   UNL     1       0.252  17.456  18.238  0.00  0.00    +0.000 C 
ATOM     34  C   UNL     1      -0.143  18.259  16.999  0.00  0.00    +0.000 C 
ATOM     35  C   UNL     1      -0.276  18.134  19.503  0.00  0.00    +0.000 C 
BRANCH  33  36
ATOM     36  O   UNL     1       1.677  17.464  18.350  0.00  0.00    +0.000 OA
ATOM     37  H   UNL     1       2.007  18.286  17.954  0.00  0.00    +0.000 HD
ENDBRANCH  33  36
ENDBRANCH  32  33
ENDBRANCH  31  32
ENDBRANCH  26  31
ENDBRANCH  24  26
ENDBRANCH  11  24
TORSDOF 12
ENDMDL
MODEL 8
REMARK VINA RESULT:      -6.6      2.569      4.966
REMARK  Name = 
REMARK  17 active torsions:
REMARK  status: ('A' for Active; 'I' for Inactive)
REMARK    1  A    between atoms: C_4  and  C_5
REMARK    2  A    between atoms: C_10  and  C_11
REMARK    3  A    between atoms: C_15  and  C_16
REMARK    4  A    between atoms: C_16  and  C_17
REMARK    5  A    between atoms: C_16  and  C_18
REMARK    6  A    between atoms: C_18  and  C_19
REMARK    7  A    between atoms: C_18  and  C_23
REMARK    8  A    between atoms: C_19  and  C_20
REMARK    9  A    between atoms: C_20  and  C_21
REMARK   10  A    between atoms: C_21  and  C_22
REMARK   11  A    between atoms: C_23  and  C_24
REMARK   12  A    between atoms: C_24  and  C_25
REMARK   13  A    between atoms: C_25  and  C_26
REMARK   14  A    between atoms: C_25  and  C_27
REMARK   15  A    between atoms: C_25  and  O_28
REMARK   16  A    between atoms: C_30  and  O_31
REMARK   17  A    between atoms: C_33  and  O_34
REMARK                            x       y       z     vdW  Elec       q    Type
REMARK                         _______ _______ _______ _____ _____    ______ ____
ROOT
ATOM      1  C   UNL     1      -0.933   9.547  17.813  0.00  0.00    +0.000 C 
ATOM      2  C   UNL     1      -0.204   9.448  18.960  0.00  0.00    +0.000 C 
ATOM      3  C   UNL     1      -0.570  10.077  20.279  0.00  0.00    +0.000 C 
ATOM      4  C   UNL     1       0.088   9.389  21.495  0.00  0.00    +0.000 C 
ATOM      5  C   UNL     1       1.609   8.957  21.307  0.00  0.00    +0.000 C 
ATOM      6  C   UNL     1       1.670   7.918  20.116  0.00  0.00    +0.000 C 
ATOM      7  C   UNL     1       1.027   6.718  20.850  0.00  0.00    +0.000 C 
ATOM      8  C   UNL     1       1.195   8.922  18.975  0.00  0.00    +0.000 C 
ATOM      9  C   UNL     1       1.900   8.595  17.689  0.00  0.00    +0.000 C 
ATOM     10  C   UNL     1       3.259   8.107  18.150  0.00  0.00    +0.000 C 
ATOM     11  C   UNL     1       3.011   7.304  19.442  0.00  0.00    +0.000 C 
ENDROOT
BRANCH   1  15
ATOM     12  C   UNL     1      -0.897  12.935  18.133  0.00  0.00    +0.000 C 
ATOM     13  C   UNL     1      -2.029  12.412  18.634  0.00  0.00    +0.000 C 
ATOM     14  C   UNL     1      -2.743  11.299  17.985  0.00  0.00    +0.000 C 
ATOM     15  C   UNL     1      -2.274  10.063  17.702  0.00  0.00    +0.000 C 
ATOM     16  C   UNL     1      -4.209  11.613  17.710  0.00  0.00    +0.000 C 
ATOM     17  C   UNL     1      -4.945  12.077  18.971  0.00  0.00    +0.000 C 
ATOM     18  C   UNL     1      -4.226  13.244  19.638  0.00  0.00    +0.000 C 
ATOM     19  C   UNL     1      -2.738  12.951  19.879  0.00  0.00    +0.000 C 
BRANCH  17  20
ATOM     20  O   UNL     1      -5.111  10.996  19.890  0.00  0.00    +0.000 OA
ATOM     21  H   UNL     1      -5.504  11.347  20.709  0.00  0.00    +0.000 HD
ENDBRANCH  17  20
BRANCH  19  22
ATOM     22  O   UNL     1      -2.131  14.153  20.361  0.00  0.00    +0.000 OA
ATOM     23  H   UNL     1      -2.849  14.741  20.650  0.00  0.00    +0.000 HD
ENDBRANCH  19  22
ENDBRANCH   1  15
BRANCH  11  24
ATOM     24  C   UNL     1       3.099   5.682  19.151  0.00  0.00    +0.000 C 
ATOM     25  C   UNL     1       4.523   5.178  19.464  0.00  0.00    +0.000 C 
BRANCH  24  26
ATOM     26  C   UNL     1       2.591   5.053  17.775  0.00  0.00    +0.000 C 
BRANCH  26  27
ATOM     27  C   UNL     1       1.416   4.022  17.868  0.00  0.00    +0.000 C 
BRANCH  27  28
ATOM     28  C   UNL     1       1.663   2.542  18.122  0.00  0.00    +0.000 C 
BRANCH  28  29
ATOM     29  C   UNL     1       1.785   2.137  19.590  0.00  0.00    +0.000 C 
ATOM     30  C   UNL     1       0.979   3.084  20.476  0.00  0.00    +0.000 C 
ENDBRANCH  28  29
ENDBRANCH  27  28
ENDBRANCH  26  27
BRANCH  26  31
ATOM     31  C   UNL     1       3.676   4.328  16.952  0.00  0.00    +0.000 C 
BRANCH  31  32
ATOM     32  C   UNL     1       4.732   5.287  16.362  0.00  0.00    +0.000 C 
BRANCH  32  33
ATOM     33  C   UNL     1       6.041   4.584  15.954  0.00  0.00    +0.000 C 
ATOM     34  C   UNL     1       6.321   4.717  14.457  0.00  0.00    +0.000 C 
ATOM     35  C   UNL     1       7.209   5.145  16.766  0.00  0.00    +0.000 C 
BRANCH  33  36
ATOM     36  O   UNL     1       5.963   3.195  16.280  0.00  0.00    +0.000 OA
ATOM     37  H   UNL     1       5.291   3.083  16.971  0.00  0.00    +0.000 HD
ENDBRANCH  33  36
ENDBRANCH  32  33
ENDBRANCH  31  32
ENDBRANCH  26  31
ENDBRANCH  24  26
ENDBRANCH  11  24
TORSDOF 12
ENDMDL
MODEL 9
REMARK VINA RESULT:      -6.6      4.312      8.443
REMARK  Name = 
REMARK  17 active torsions:
REMARK  status: ('A' for Active; 'I' for Inactive)
REMARK    1  A    between atoms: C_4  and  C_5
REMARK    2  A    between atoms: C_10  and  C_11
REMARK    3  A    between atoms: C_15  and  C_16
REMARK    4  A    between atoms: C_16  and  C_17
REMARK    5  A    between atoms: C_16  and  C_18
REMARK    6  A    between atoms: C_18  and  C_19
REMARK    7  A    between atoms: C_18  and  C_23
REMARK    8  A    between atoms: C_19  and  C_20
REMARK    9  A    between atoms: C_20  and  C_21
REMARK   10  A    between atoms: C_21  and  C_22
REMARK   11  A    between atoms: C_23  and  C_24
REMARK   12  A    between atoms: C_24  and  C_25
REMARK   13  A    between atoms: C_25  and  C_26
REMARK   14  A    between atoms: C_25  and  C_27
REMARK   15  A    between atoms: C_25  and  O_28
REMARK   16  A    between atoms: C_30  and  O_31
REMARK   17  A    between atoms: C_33  and  O_34
REMARK                            x       y       z     vdW  Elec       q    Type
REMARK                         _______ _______ _______ _____ _____    ______ ____
ROOT
ATOM      1  C   UNL     1      -2.960  12.270  21.042  0.00  0.00    +0.000 C 
ATOM      2  C   UNL     1      -1.948  12.755  20.267  0.00  0.00    +0.000 C 
ATOM      3  C   UNL     1      -1.569  14.207  20.144  0.00  0.00    +0.000 C 
ATOM      4  C   UNL     1      -0.116  14.428  19.671  0.00  0.00    +0.000 C 
ATOM      5  C   UNL     1       0.392  13.455  18.516  0.00  0.00    +0.000 C 
ATOM      6  C   UNL     1       0.319  11.974  19.069  0.00  0.00    +0.000 C 
ATOM      7  C   UNL     1       1.515  12.054  20.045  0.00  0.00    +0.000 C 
ATOM      8  C   UNL     1      -1.264  11.921  19.234  0.00  0.00    +0.000 C 
ATOM      9  C   UNL     1      -1.758  10.536  18.922  0.00  0.00    +0.000 C 
ATOM     10  C   UNL     1      -0.805  10.059  17.845  0.00  0.00    +0.000 C 
ATOM     11  C   UNL     1       0.583  10.618  18.221  0.00  0.00    +0.000 C 
ENDROOT
BRANCH   1  15
ATOM     12  C   UNL     1      -6.304  11.840  20.581  0.00  0.00    +0.000 C 
ATOM     13  C   UNL     1      -6.035  13.063  21.069  0.00  0.00    +0.000 C 
ATOM     14  C   UNL     1      -5.010  13.296  22.101  0.00  0.00    +0.000 C 
ATOM     15  C   UNL     1      -3.691  13.008  22.042  0.00  0.00    +0.000 C 
ATOM     16  C   UNL     1      -5.549  14.040  23.317  0.00  0.00    +0.000 C 
ATOM     17  C   UNL     1      -6.247  15.348  22.930  0.00  0.00    +0.000 C 
ATOM     18  C   UNL     1      -7.326  15.114  21.878  0.00  0.00    +0.000 C 
ATOM     19  C   UNL     1      -6.800  14.327  20.669  0.00  0.00    +0.000 C 
BRANCH  17  20
ATOM     20  O   UNL     1      -5.300  16.314  22.472  0.00  0.00    +0.000 OA
ATOM     21  H   UNL     1      -4.430  16.094  22.850  0.00  0.00    +0.000 HD
ENDBRANCH  17  20
BRANCH  19  22
ATOM     22  O   UNL     1      -7.916  14.031  19.825  0.00  0.00    +0.000 OA
ATOM     23  H   UNL     1      -8.660  13.798  20.405  0.00  0.00    +0.000 HD
ENDBRANCH  19  22
ENDBRANCH   1  15
BRANCH  11  24
ATOM     24  C   UNL     1       1.535   9.434  18.866  0.00  0.00    +0.000 C 
ATOM     25  C   UNL     1       2.306   8.720  17.737  0.00  0.00    +0.000 C 
BRANCH  24  26
ATOM     26  C   UNL     1       0.951   8.359  19.889  0.00  0.00    +0.000 C 
BRANCH  26  27
ATOM     27  C   UNL     1       0.221   8.921  21.156  0.00  0.00    +0.000 C 
BRANCH  27  28
ATOM     28  C   UNL     1       0.958   9.173  22.463  0.00  0.00    +0.000 C 
BRANCH  28  29
ATOM     29  C   UNL     1       0.092   9.662  23.623  0.00  0.00    +0.000 C 
ATOM     30  C   UNL     1      -1.079  10.494  23.104  0.00  0.00    +0.000 C 
ENDBRANCH  28  29
ENDBRANCH  27  28
ENDBRANCH  26  27
BRANCH  26  31
ATOM     31  C   UNL     1       1.989   7.365  20.451  0.00  0.00    +0.000 C 
BRANCH  31  32
ATOM     32  C   UNL     1       1.511   5.898  20.407  0.00  0.00    +0.000 C 
BRANCH  32  33
ATOM     33  C   UNL     1       2.440   4.973  19.597  0.00  0.00    +0.000 C 
ATOM     34  C   UNL     1       1.841   4.601  18.241  0.00  0.00    +0.000 C 
ATOM     35  C   UNL     1       3.805   5.639  19.411  0.00  0.00    +0.000 C 
BRANCH  33  36
ATOM     36  O   UNL     1       2.684   3.772  20.332  0.00  0.00    +0.000 OA
ATOM     37  H   UNL     1       2.736   3.999  21.275  0.00  0.00    +0.000 HD
ENDBRANCH  33  36
ENDBRANCH  32  33
ENDBRANCH  31  32
ENDBRANCH  26  31
ENDBRANCH  24  26
ENDBRANCH  11  24
TORSDOF 12
ENDMDL
