MODEL 1
REMARK VINA RESULT:      -9.1      0.000      0.000
REMARK  Name = 
REMARK  6 active torsions:
REMARK  status: ('A' for Active; 'I' for Inactive)
REMARK    1  A    between atoms: N_1  and  C_2
REMARK    2  A    between atoms: C_6  and  C_7
REMARK    3  A    between atoms: N_10  and  C_11
REMARK    4  A    between atoms: C_11  and  C_12
REMARK    5  A    between atoms: C_20  and  C_21
REMARK    6  A    between atoms: C_25  and  N_26
REMARK                            x       y       z     vdW  Elec       q    Type
REMARK                         _______ _______ _______ _____ _____    ______ ____
ROOT
ATOM      1  C   UNL     1       0.957  10.198  19.801  0.00  0.00    +0.000 C 
ATOM      2  C   UNL     1       1.408   8.969  19.472  0.00  0.00    +0.000 C 
ATOM      3  C   UNL     1       1.106   7.709  20.229  0.00  0.00    +0.000 C 
ATOM      4  N   UNL     1       2.251   6.792  20.254  0.00  0.00    +0.000 NA
ATOM      5  C   UNL     1       2.536   6.372  18.878  0.00  0.00    +0.000 C 
ATOM      6  C   UNL     1       2.920   7.525  17.997  0.00  0.00    +0.000 C 
ATOM      7  C   UNL     1       3.807   7.443  16.985  0.00  0.00    +0.000 C 
ATOM      8  C   UNL     1       2.279   8.856  18.256  0.00  0.00    +0.000 C 
ATOM      9  O   UNL     1       2.449   9.811  17.497  0.00  0.00    +0.000 OA
ENDROOT
BRANCH   1  14
ATOM     10  C   UNL     1      -1.683  11.787  21.996  0.00  0.00    +0.000 A 
ATOM     11  C   UNL     1      -1.524  11.035  23.164  0.00  0.00    +0.000 A 
ATOM     12  C   UNL     1      -0.534  10.054  23.251  0.00  0.00    +0.000 A 
ATOM     13  C   UNL     1       0.285   9.791  22.154  0.00  0.00    +0.000 A 
ATOM     14  C   UNL     1       0.105  10.495  20.959  0.00  0.00    +0.000 A 
ATOM     15  C   UNL     1      -0.899  11.469  20.879  0.00  0.00    +0.000 A 
BRANCH  10  16
ATOM     16  N   UNL     1      -2.758  12.679  21.879  0.00  0.00    +0.000 N 
ATOM     17  H   UNL     1      -2.878  13.047  20.940  0.00  0.00    +0.000 HD
ATOM     18  H   UNL     1      -3.628  12.319  22.258  0.00  0.00    +0.000 HD
ENDBRANCH  10  16
ENDBRANCH   1  14
BRANCH   7  19
ATOM     19  C   UNL     1       4.508   6.212  16.597  0.00  0.00    +0.000 A 
ATOM     20  C   UNL     1       4.050   4.970  17.043  0.00  0.00    +0.000 A 
ATOM     21  C   UNL     1       4.754   3.810  16.723  0.00  0.00    +0.000 A 
ATOM     22  C   UNL     1       5.908   3.888  15.938  0.00  0.00    +0.000 A 
ATOM     23  C   UNL     1       6.334   5.112  15.415  0.00  0.00    +0.000 A 
ATOM     24  C   UNL     1       5.650   6.276  15.786  0.00  0.00    +0.000 A 
BRANCH  23  25
ATOM     25  N   UNL     1       7.556   5.198  14.736  0.00  0.00    +0.000 N 
ATOM     26  H   UNL     1       8.365   5.258  15.346  0.00  0.00    +0.000 HD
ATOM     27  H   UNL     1       7.671   4.504  14.004  0.00  0.00    +0.000 HD
ENDBRANCH  23  25
ENDBRANCH   7  19
BRANCH   4  28
ATOM     28  C   UNL     1       1.931   5.627  21.102  0.00  0.00    +0.000 C 
BRANCH  28  29
ATOM     29  C   UNL     1       1.983   4.297  20.375  0.00  0.00    +0.000 A 
ATOM     30  C   UNL     1       0.852   3.783  19.724  0.00  0.00    +0.000 A 
ATOM     31  C   UNL     1       0.918   2.566  19.041  0.00  0.00    +0.000 A 
ATOM     32  C   UNL     1       2.114   1.853  19.000  0.00  0.00    +0.000 A 
ATOM     33  C   UNL     1       3.242   2.346  19.651  0.00  0.00    +0.000 A 
ATOM     34  C   UNL     1       3.177   3.560  20.337  0.00  0.00    +0.000 A 
ENDBRANCH  28  29
ENDBRANCH   4  28
TORSDOF 6
ENDMDL
MODEL 2
REMARK VINA RESULT:      -8.9      0.392      7.692
REMARK  Name = 
REMARK  6 active torsions:
REMARK  status: ('A' for Active; 'I' for Inactive)
REMARK    1  A    between atoms: N_1  and  C_2
REMARK    2  A    between atoms: C_6  and  C_7
REMARK    3  A    between atoms: N_10  and  C_11
REMARK    4  A    between atoms: C_11  and  C_12
REMARK    5  A    between atoms: C_20  and  C_21
REMARK    6  A    between atoms: C_25  and  N_26
REMARK                            x       y       z     vdW  Elec       q    Type
REMARK                         _______ _______ _______ _____ _____    ______ ____
ROOT
ATOM      1  C   UNL     1       3.605   7.544  17.010  0.00  0.00    +0.000 C 
ATOM      2  C   UNL     1       2.978   7.767  18.186  0.00  0.00    +0.000 C 
ATOM      3  C   UNL     1       2.904   6.789  19.321  0.00  0.00    +0.000 C 
ATOM      4  N   UNL     1       1.611   6.844  20.014  0.00  0.00    +0.000 NA
ATOM      5  C   UNL     1       1.470   8.172  20.620  0.00  0.00    +0.000 C 
ATOM      6  C   UNL     1       1.463   9.271  19.596  0.00  0.00    +0.000 C 
ATOM      7  C   UNL     1       0.748  10.407  19.709  0.00  0.00    +0.000 C 
ATOM      8  C   UNL     1       2.304   9.095  18.367  0.00  0.00    +0.000 C 
ATOM      9  O   UNL     1       2.447  10.005  17.550  0.00  0.00    +0.000 OA
ENDROOT
BRANCH   1  14
ATOM     10  C   UNL     1       6.104   5.148  15.486  0.00  0.00    +0.000 A 
ATOM     11  C   UNL     1       5.643   3.937  16.011  0.00  0.00    +0.000 A 
ATOM     12  C   UNL     1       4.500   3.897  16.813  0.00  0.00    +0.000 A 
ATOM     13  C   UNL     1       3.827   5.076  17.128  0.00  0.00    +0.000 A 
ATOM     14  C   UNL     1       4.305   6.303  16.657  0.00  0.00    +0.000 A 
ATOM     15  C   UNL     1       5.459   6.333  15.862  0.00  0.00    +0.000 A 
BRANCH  10  16
ATOM     16  N   UNL     1       7.318   5.190  14.787  0.00  0.00    +0.000 N 
ATOM     17  H   UNL     1       7.239   4.891  13.820  0.00  0.00    +0.000 HD
ATOM     18  H   UNL     1       7.804   6.078  14.870  0.00  0.00    +0.000 HD
ENDBRANCH  10  16
ENDBRANCH   1  14
BRANCH   7  19
ATOM     19  C   UNL     1      -0.112  10.734  20.855  0.00  0.00    +0.000 A 
ATOM     20  C   UNL     1       0.074  10.090  22.081  0.00  0.00    +0.000 A 
ATOM     21  C   UNL     1      -0.784  10.359  23.147  0.00  0.00    +0.000 A 
ATOM     22  C   UNL     1      -1.817  11.289  22.995  0.00  0.00    +0.000 A 
ATOM     23  C   UNL     1      -1.965  12.001  21.802  0.00  0.00    +0.000 A 
ATOM     24  C   UNL     1      -1.133  11.686  20.722  0.00  0.00    +0.000 A 
BRANCH  23  25
ATOM     25  N   UNL     1      -3.075  12.836  21.618  0.00  0.00    +0.000 N 
ATOM     26  H   UNL     1      -2.839  13.813  21.478  0.00  0.00    +0.000 HD
ATOM     27  H   UNL     1      -3.739  12.494  20.930  0.00  0.00    +0.000 HD
ENDBRANCH  23  25
ENDBRANCH   7  19
BRANCH   4  28
ATOM     28  C   UNL     1       1.559   5.790  21.045  0.00  0.00    +0.000 C 
BRANCH  28  29
ATOM     29  C   UNL     1       1.760   4.386  20.509  0.00  0.00    +0.000 A 
ATOM     30  C   UNL     1       0.756   3.742  19.771  0.00  0.00    +0.000 A 
ATOM     31  C   UNL     1       0.961   2.456  19.266  0.00  0.00    +0.000 A 
ATOM     32  C   UNL     1       2.172   1.803  19.489  0.00  0.00    +0.000 A 
ATOM     33  C   UNL     1       3.173   2.427  20.228  0.00  0.00    +0.000 A 
ATOM     34  C   UNL     1       2.968   3.710  20.738  0.00  0.00    +0.000 A 
ENDBRANCH  28  29
ENDBRANCH   4  28
TORSDOF 6
ENDMDL
MODEL 3
REMARK VINA RESULT:      -8.8      3.046      6.348
REMARK  Name = 
REMARK  6 active torsions:
REMARK  status: ('A' for Active; 'I' for Inactive)
REMARK    1  A    between atoms: N_1  and  C_2
REMARK    2  A    between atoms: C_6  and  C_7
REMARK    3  A    between atoms: N_10  and  C_11
REMARK    4  A    between atoms: C_11  and  C_12
REMARK    5  A    between atoms: C_20  and  C_21
REMARK    6  A    between atoms: C_25  and  N_26
REMARK                            x       y       z     vdW  Elec       q    Type
REMARK                         _______ _______ _______ _____ _____    ______ ____
ROOT
ATOM      1  C   UNL     1      -1.183  11.719  23.147  0.00  0.00    +0.000 C 
ATOM      2  C   UNL     1      -0.581  11.144  22.084  0.00  0.00    +0.000 C 
ATOM      3  C   UNL     1      -0.637  11.664  20.677  0.00  0.00    +0.000 C 
ATOM      4  N   UNL     1      -0.697  10.579  19.690  0.00  0.00    +0.000 NA
ATOM      5  C   UNL     1       0.545   9.804  19.781  0.00  0.00    +0.000 C 
ATOM      6  C   UNL     1       0.719   9.160  21.126  0.00  0.00    +0.000 C 
ATOM      7  C   UNL     1       1.311   7.965  21.323  0.00  0.00    +0.000 C 
ATOM      8  C   UNL     1       0.203   9.889  22.330  0.00  0.00    +0.000 C 
ATOM      9  O   UNL     1       0.424   9.484  23.472  0.00  0.00    +0.000 OA
ENDROOT
BRANCH   1  14
ATOM     10  C   UNL     1      -4.113  14.055  22.620  0.00  0.00    +0.000 A 
ATOM     11  C   UNL     1      -3.537  15.270  23.004  0.00  0.00    +0.000 A 
ATOM     12  C   UNL     1      -2.195  15.334  23.384  0.00  0.00    +0.000 A 
ATOM     13  C   UNL     1      -1.423  14.173  23.417  0.00  0.00    +0.000 A 
ATOM     14  C   UNL     1      -1.996  12.941  23.089  0.00  0.00    +0.000 A 
ATOM     15  C   UNL     1      -3.347  12.886  22.721  0.00  0.00    +0.000 A 
BRANCH  10  16
ATOM     16  N   UNL     1      -5.489  13.983  22.362  0.00  0.00    +0.000 N 
ATOM     17  H   UNL     1      -5.724  13.359  21.596  0.00  0.00    +0.000 HD
ATOM     18  H   UNL     1      -6.048  13.796  23.188  0.00  0.00    +0.000 HD
ENDBRANCH  10  16
ENDBRANCH   1  14
BRANCH   7  19
ATOM     19  C   UNL     1       1.879   7.136  20.251  0.00  0.00    +0.000 A 
ATOM     20  C   UNL     1       2.376   7.730  19.089  0.00  0.00    +0.000 A 
ATOM     21  C   UNL     1       2.857   6.936  18.050  0.00  0.00    +0.000 A 
ATOM     22  C   UNL     1       2.861   5.544  18.179  0.00  0.00    +0.000 A 
ATOM     23  C   UNL     1       2.444   4.937  19.366  0.00  0.00    +0.000 A 
ATOM     24  C   UNL     1       1.914   5.741  20.382  0.00  0.00    +0.000 A 
BRANCH  23  25
ATOM     25  N   UNL     1       2.334   3.542  19.440  0.00  0.00    +0.000 N 
ATOM     26  H   UNL     1       3.175   3.078  19.767  0.00  0.00    +0.000 HD
ATOM     27  H   UNL     1       1.500   3.218  19.919  0.00  0.00    +0.000 HD
ENDBRANCH  23  25
ENDBRANCH   7  19
BRANCH   4  28
ATOM     28  C   UNL     1      -0.860  11.150  18.339  0.00  0.00    +0.000 C 
BRANCH  28  29
ATOM     29  C   UNL     1      -2.300  11.240  17.873  0.00  0.00    +0.000 A 
ATOM     30  C   UNL     1      -3.309  11.713  18.725  0.00  0.00    +0.000 A 
ATOM     31  C   UNL     1      -4.628  11.810  18.276  0.00  0.00    +0.000 A 
ATOM     32  C   UNL     1      -4.952  11.439  16.973  0.00  0.00    +0.000 A 
ATOM     33  C   UNL     1      -3.962  10.958  16.120  0.00  0.00    +0.000 A 
ATOM     34  C   UNL     1      -2.644  10.856  16.567  0.00  0.00    +0.000 A 
ENDBRANCH  28  29
ENDBRANCH   4  28
TORSDOF 6
ENDMDL
MODEL 4
REMARK VINA RESULT:      -8.7      3.147      6.459
REMARK  Name = 
REMARK  6 active torsions:
REMARK  status: ('A' for Active; 'I' for Inactive)
REMARK    1  A    between atoms: N_1  and  C_2
REMARK    2  A    between atoms: C_6  and  C_7
REMARK    3  A    between atoms: N_10  and  C_11
REMARK    4  A    between atoms: C_11  and  C_12
REMARK    5  A    between atoms: C_20  and  C_21
REMARK    6  A    between atoms: C_25  and  N_26
REMARK                            x       y       z     vdW  Elec       q    Type
REMARK                         _______ _______ _______ _____ _____    ______ ____
ROOT
ATOM      1  C   UNL     1      -1.134  11.933  23.064  0.00  0.00    +0.000 C 
ATOM      2  C   UNL     1      -0.555  11.292  22.026  0.00  0.00    +0.000 C 
ATOM      3  C   UNL     1      -0.583  11.761  20.601  0.00  0.00    +0.000 C 
ATOM      4  N   UNL     1      -0.688  10.644  19.654  0.00  0.00    +0.000 NA
ATOM      5  C   UNL     1       0.518   9.819  19.780  0.00  0.00    +0.000 C 
ATOM      6  C   UNL     1       0.660   9.218  21.149  0.00  0.00    +0.000 C 
ATOM      7  C   UNL     1       1.197   8.007  21.393  0.00  0.00    +0.000 C 
ATOM      8  C   UNL     1       0.173  10.014  22.323  0.00  0.00    +0.000 C 
ATOM      9  O   UNL     1       0.372   9.643  23.479  0.00  0.00    +0.000 OA
ENDROOT
BRANCH   1  14
ATOM     10  C   UNL     1      -2.017  15.609  23.188  0.00  0.00    +0.000 A 
ATOM     11  C   UNL     1      -3.337  15.566  22.728  0.00  0.00    +0.000 A 
ATOM     12  C   UNL     1      -3.947  14.347  22.427  0.00  0.00    +0.000 A 
ATOM     13  C   UNL     1      -3.229  13.158  22.551  0.00  0.00    +0.000 A 
ATOM     14  C   UNL     1      -1.892  13.186  22.957  0.00  0.00    +0.000 A 
ATOM     15  C   UNL     1      -1.285  14.417  23.245  0.00  0.00    +0.000 A 
BRANCH  10  16
ATOM     16  N   UNL     1      -1.379  16.845  23.367  0.00  0.00    +0.000 N 
ATOM     17  H   UNL     1      -1.753  17.581  22.777  0.00  0.00    +0.000 HD
ATOM     18  H   UNL     1      -1.315  17.132  24.338  0.00  0.00    +0.000 HD
ENDBRANCH  10  16
ENDBRANCH   1  14
BRANCH   7  19
ATOM     19  C   UNL     1       1.731   7.114  20.356  0.00  0.00    +0.000 A 
ATOM     20  C   UNL     1       2.354   7.643  19.222  0.00  0.00    +0.000 A 
ATOM     21  C   UNL     1       2.803   6.794  18.213  0.00  0.00    +0.000 A 
ATOM     22  C   UNL     1       2.650   5.411  18.343  0.00  0.00    +0.000 A 
ATOM     23  C   UNL     1       2.104   4.860  19.506  0.00  0.00    +0.000 A 
ATOM     24  C   UNL     1       1.608   5.724  20.489  0.00  0.00    +0.000 A 
BRANCH  23  25
ATOM     25  N   UNL     1       1.840   3.487  19.574  0.00  0.00    +0.000 N 
ATOM     26  H   UNL     1       2.314   3.012  20.336  0.00  0.00    +0.000 HD
ATOM     27  H   UNL     1       0.854   3.252  19.524  0.00  0.00    +0.000 HD
ENDBRANCH  23  25
ENDBRANCH   7  19
BRANCH   4  28
ATOM     28  C   UNL     1      -0.821  11.171  18.282  0.00  0.00    +0.000 C 
BRANCH  28  29
ATOM     29  C   UNL     1      -2.251  11.252  17.784  0.00  0.00    +0.000 A 
ATOM     30  C   UNL     1      -2.577  10.916  16.461  0.00  0.00    +0.000 A 
ATOM     31  C   UNL     1      -3.901  10.976  16.021  0.00  0.00    +0.000 A 
ATOM     32  C   UNL     1      -4.912  11.368  16.896  0.00  0.00    +0.000 A 
ATOM     33  C   UNL     1      -4.600  11.714  18.208  0.00  0.00    +0.000 A 
ATOM     34  C   UNL     1      -3.278  11.659  18.650  0.00  0.00    +0.000 A 
ENDBRANCH  28  29
ENDBRANCH   4  28
TORSDOF 6
ENDMDL
MODEL 5
REMARK VINA RESULT:      -8.7      0.960      1.331
REMARK  Name = 
REMARK  6 active torsions:
REMARK  status: ('A' for Active; 'I' for Inactive)
REMARK    1  A    between atoms: N_1  and  C_2
REMARK    2  A    between atoms: C_6  and  C_7
REMARK    3  A    between atoms: N_10  and  C_11
REMARK    4  A    between atoms: C_11  and  C_12
REMARK    5  A    between atoms: C_20  and  C_21
REMARK    6  A    between atoms: C_25  and  N_26
REMARK                            x       y       z     vdW  Elec       q    Type
REMARK                         _______ _______ _______ _____ _____    ______ ____
ROOT
ATOM      1  C   UNL     1       1.258   9.828  19.636  0.00  0.00    +0.000 C 
ATOM      2  C   UNL     1       1.812   8.644  19.295  0.00  0.00    +0.000 C 
ATOM      3  C   UNL     1       1.634   7.361  20.052  0.00  0.00    +0.000 C 
ATOM      4  N   UNL     1       2.857   6.549  20.056  0.00  0.00    +0.000 NA
ATOM      5  C   UNL     1       3.156   6.160  18.674  0.00  0.00    +0.000 C 
ATOM      6  C   UNL     1       3.423   7.345  17.791  0.00  0.00    +0.000 C 
ATOM      7  C   UNL     1       4.298   7.344  16.766  0.00  0.00    +0.000 C 
ATOM      8  C   UNL     1       2.670   8.612  18.065  0.00  0.00    +0.000 C 
ATOM      9  O   UNL     1       2.743   9.580  17.307  0.00  0.00    +0.000 OA
ENDROOT
BRANCH   1  14
ATOM     10  C   UNL     1      -1.335  11.315  21.954  0.00  0.00    +0.000 A 
ATOM     11  C   UNL     1      -1.239  10.434  23.036  0.00  0.00    +0.000 A 
ATOM     12  C   UNL     1      -0.305   9.396  23.029  0.00  0.00    +0.000 A 
ATOM     13  C   UNL     1       0.520   9.208  21.921  0.00  0.00    +0.000 A 
ATOM     14  C   UNL     1       0.401  10.045  20.808  0.00  0.00    +0.000 A 
ATOM     15  C   UNL     1      -0.548  11.076  20.820  0.00  0.00    +0.000 A 
BRANCH  10  16
ATOM     16  N   UNL     1      -2.358  12.273  21.921  0.00  0.00    +0.000 N 
ATOM     17  H   UNL     1      -2.050  13.202  22.190  0.00  0.00    +0.000 HD
ATOM     18  H   UNL     1      -2.876  12.283  21.048  0.00  0.00    +0.000 HD
ENDBRANCH  10  16
ENDBRANCH   1  14
BRANCH   7  19
ATOM     19  C   UNL     1       5.099   6.181  16.363  0.00  0.00    +0.000 A 
ATOM     20  C   UNL     1       4.752   5.446  15.226  0.00  0.00    +0.000 A 
ATOM     21  C   UNL     1       5.479   4.308  14.882  0.00  0.00    +0.000 A 
ATOM     22  C   UNL     1       6.568   3.912  15.663  0.00  0.00    +0.000 A 
ATOM     23  C   UNL     1       6.979   4.681  16.756  0.00  0.00    +0.000 A 
ATOM     24  C   UNL     1       6.211   5.792  17.123  0.00  0.00    +0.000 A 
BRANCH  23  25
ATOM     25  N   UNL     1       7.991   4.211  17.603  0.00  0.00    +0.000 N 
ATOM     26  H   UNL     1       8.759   4.862  17.731  0.00  0.00    +0.000 HD
ATOM     27  H   UNL     1       7.652   3.833  18.481  0.00  0.00    +0.000 HD
ENDBRANCH  23  25
ENDBRANCH   7  19
BRANCH   4  28
ATOM     28  C   UNL     1       2.655   5.358  20.904  0.00  0.00    +0.000 C 
BRANCH  28  29
ATOM     29  C   UNL     1       2.354   4.089  20.130  0.00  0.00    +0.000 A 
ATOM     30  C   UNL     1       3.387   3.251  19.683  0.00  0.00    +0.000 A 
ATOM     31  C   UNL     1       3.096   2.075  18.989  0.00  0.00    +0.000 A 
ATOM     32  C   UNL     1       1.772   1.722  18.737  0.00  0.00    +0.000 A 
ATOM     33  C   UNL     1       0.738   2.549  19.166  0.00  0.00    +0.000 A 
ATOM     34  C   UNL     1       1.026   3.728  19.856  0.00  0.00    +0.000 A 
ENDBRANCH  28  29
ENDBRANCH   4  28
TORSDOF 6
ENDMDL
MODEL 6
REMARK VINA RESULT:      -8.6      3.141      6.256
REMARK  Name = 
REMARK  6 active torsions:
REMARK  status: ('A' for Active; 'I' for Inactive)
REMARK    1  A    between atoms: N_1  and  C_2
REMARK    2  A    between atoms: C_6  and  C_7
REMARK    3  A    between atoms: N_10  and  C_11
REMARK    4  A    between atoms: C_11  and  C_12
REMARK    5  A    between atoms: C_20  and  C_21
REMARK    6  A    between atoms: C_25  and  N_26
REMARK                            x       y       z     vdW  Elec       q    Type
REMARK                         _______ _______ _______ _____ _____    ______ ____
ROOT
ATOM      1  C   UNL     1      -1.592  11.516  23.360  0.00  0.00    +0.000 C 
ATOM      2  C   UNL     1      -0.893  11.093  22.285  0.00  0.00    +0.000 C 
ATOM      3  C   UNL     1      -0.857  11.785  20.954  0.00  0.00    +0.000 C 
ATOM      4  N   UNL     1      -0.809  10.833  19.838  0.00  0.00    +0.000 NA
ATOM      5  C   UNL     1       0.445  10.079  19.930  0.00  0.00    +0.000 C 
ATOM      6  C   UNL     1       0.537   9.273  21.194  0.00  0.00    +0.000 C 
ATOM      7  C   UNL     1       1.148   8.076  21.287  0.00  0.00    +0.000 C 
ATOM      8  C   UNL     1      -0.092   9.834  22.435  0.00  0.00    +0.000 C 
ATOM      9  O   UNL     1       0.054   9.292  23.531  0.00  0.00    +0.000 OA
ENDROOT
BRANCH   1  14
ATOM     10  C   UNL     1      -4.620  13.764  23.659  0.00  0.00    +0.000 A 
ATOM     11  C   UNL     1      -4.024  15.015  23.468  0.00  0.00    +0.000 A 
ATOM     12  C   UNL     1      -2.658  15.119  23.195  0.00  0.00    +0.000 A 
ATOM     13  C   UNL     1      -1.867  13.972  23.147  0.00  0.00    +0.000 A 
ATOM     14  C   UNL     1      -2.435  12.718  23.391  0.00  0.00    +0.000 A 
ATOM     15  C   UNL     1      -3.804  12.626  23.675  0.00  0.00    +0.000 A 
BRANCH  10  16
ATOM     16  N   UNL     1      -5.963  13.682  24.054  0.00  0.00    +0.000 N 
ATOM     17  H   UNL     1      -6.140  14.088  24.968  0.00  0.00    +0.000 HD
ATOM     18  H   UNL     1      -6.613  14.025  23.355  0.00  0.00    +0.000 HD
ENDBRANCH  10  16
ENDBRANCH   1  14
BRANCH   7  19
ATOM     19  C   UNL     1       1.822   7.401  20.169  0.00  0.00    +0.000 A 
ATOM     20  C   UNL     1       2.197   8.123  19.033  0.00  0.00    +0.000 A 
ATOM     21  C   UNL     1       2.778   7.467  17.950  0.00  0.00    +0.000 A 
ATOM     22  C   UNL     1       3.006   6.089  18.008  0.00  0.00    +0.000 A 
ATOM     23  C   UNL     1       2.713   5.366  19.168  0.00  0.00    +0.000 A 
ATOM     24  C   UNL     1       2.080   6.025  20.229  0.00  0.00    +0.000 A 
BRANCH  23  25
ATOM     25  N   UNL     1       2.828   3.970  19.172  0.00  0.00    +0.000 N 
ATOM     26  H   UNL     1       3.199   3.588  20.036  0.00  0.00    +0.000 HD
ATOM     27  H   UNL     1       1.992   3.486  18.861  0.00  0.00    +0.000 HD
ENDBRANCH  23  25
ENDBRANCH   7  19
BRANCH   4  28
ATOM     28  C   UNL     1      -0.887  11.567  18.560  0.00  0.00    +0.000 C 
BRANCH  28  29
ATOM     29  C   UNL     1      -2.048  11.155  17.677  0.00  0.00    +0.000 A 
ATOM     30  C   UNL     1      -1.892  10.173  16.687  0.00  0.00    +0.000 A 
ATOM     31  C   UNL     1      -2.975   9.789  15.893  0.00  0.00    +0.000 A 
ATOM     32  C   UNL     1      -4.223  10.379  16.081  0.00  0.00    +0.000 A 
ATOM     33  C   UNL     1      -4.389  11.362  17.052  0.00  0.00    +0.000 A 
ATOM     34  C   UNL     1      -3.307  11.751  17.844  0.00  0.00    +0.000 A 
ENDBRANCH  28  29
ENDBRANCH   4  28
TORSDOF 6
ENDMDL
MODEL 7
REMARK VINA RESULT:      -8.6      3.100      6.146
REMARK  Name = 
REMARK  6 active torsions:
REMARK  status: ('A' for Active; 'I' for Inactive)
REMARK    1  A    between atoms: N_1  and  C_2
REMARK    2  A    between atoms: C_6  and  C_7
REMARK    3  A    between atoms: N_10  and  C_11
REMARK    4  A    between atoms: C_11  and  C_12
REMARK    5  A    between atoms: C_20  and  C_21
REMARK    6  A    between atoms: C_25  and  N_26
REMARK                            x       y       z     vdW  Elec       q    Type
REMARK                         _______ _______ _______ _____ _____    ______ ____
ROOT
ATOM      1  C   UNL     1      -1.173  11.591  23.077  0.00  0.00    +0.000 C 
ATOM      2  C   UNL     1      -0.565  10.972  22.042  0.00  0.00    +0.000 C 
ATOM      3  C   UNL     1      -0.538  11.481  20.631  0.00  0.00    +0.000 C 
ATOM      4  N   UNL     1      -0.623  10.392  19.650  0.00  0.00    +0.000 NA
ATOM      5  C   UNL     1       0.569   9.549  19.794  0.00  0.00    +0.000 C 
ATOM      6  C   UNL     1       0.656   8.909  21.150  0.00  0.00    +0.000 C 
ATOM      7  C   UNL     1       1.171   7.685  21.378  0.00  0.00    +0.000 C 
ATOM      8  C   UNL     1       0.137   9.678  22.328  0.00  0.00    +0.000 C 
ATOM      9  O   UNL     1       0.292   9.272  23.480  0.00  0.00    +0.000 OA
ENDROOT
BRANCH   1  14
ATOM     10  C   UNL     1      -2.009  15.277  23.246  0.00  0.00    +0.000 A 
ATOM     11  C   UNL     1      -3.323  15.259  22.768  0.00  0.00    +0.000 A 
ATOM     12  C   UNL     1      -3.945  14.052  22.440  0.00  0.00    +0.000 A 
ATOM     13  C   UNL     1      -3.244  12.852  22.555  0.00  0.00    +0.000 A 
ATOM     14  C   UNL     1      -1.912  12.856  22.979  0.00  0.00    +0.000 A 
ATOM     15  C   UNL     1      -1.293  14.073  23.294  0.00  0.00    +0.000 A 
BRANCH  10  16
ATOM     16  N   UNL     1      -1.356  16.500  23.452  0.00  0.00    +0.000 N 
ATOM     17  H   UNL     1      -0.582  16.657  22.815  0.00  0.00    +0.000 HD
ATOM     18  H   UNL     1      -1.986  17.296  23.486  0.00  0.00    +0.000 HD
ENDBRANCH  10  16
ENDBRANCH   1  14
BRANCH   7  19
ATOM     19  C   UNL     1       1.731   6.815  20.335  0.00  0.00    +0.000 A 
ATOM     20  C   UNL     1       1.509   5.436  20.375  0.00  0.00    +0.000 A 
ATOM     21  C   UNL     1       2.094   4.607  19.419  0.00  0.00    +0.000 A 
ATOM     22  C   UNL     1       2.886   5.158  18.407  0.00  0.00    +0.000 A 
ATOM     23  C   UNL     1       3.052   6.542  18.305  0.00  0.00    +0.000 A 
ATOM     24  C   UNL     1       2.504   7.360  19.301  0.00  0.00    +0.000 A 
BRANCH  23  25
ATOM     25  N   UNL     1       3.946   7.074  17.367  0.00  0.00    +0.000 N 
ATOM     26  H   UNL     1       4.077   6.493  16.545  0.00  0.00    +0.000 HD
ATOM     27  H   UNL     1       3.769   8.046  17.133  0.00  0.00    +0.000 HD
ENDBRANCH  23  25
ENDBRANCH   7  19
BRANCH   4  28
ATOM     28  C   UNL     1      -0.702  10.958  18.290  0.00  0.00    +0.000 C 
BRANCH  28  29
ATOM     29  C   UNL     1      -2.110  11.048  17.736  0.00  0.00    +0.000 A 
ATOM     30  C   UNL     1      -3.158  11.578  18.504  0.00  0.00    +0.000 A 
ATOM     31  C   UNL     1      -4.447  11.674  17.975  0.00  0.00    +0.000 A 
ATOM     32  C   UNL     1      -4.702  11.245  16.674  0.00  0.00    +0.000 A 
ATOM     33  C   UNL     1      -3.674  10.707  15.905  0.00  0.00    +0.000 A 
ATOM     34  C   UNL     1      -2.386  10.606  16.433  0.00  0.00    +0.000 A 
ENDBRANCH  28  29
ENDBRANCH   4  28
TORSDOF 6
ENDMDL
MODEL 8
REMARK VINA RESULT:      -8.6      1.101      7.642
REMARK  Name = 
REMARK  6 active torsions:
REMARK  status: ('A' for Active; 'I' for Inactive)
REMARK    1  A    between atoms: N_1  and  C_2
REMARK    2  A    between atoms: C_6  and  C_7
REMARK    3  A    between atoms: N_10  and  C_11
REMARK    4  A    between atoms: C_11  and  C_12
REMARK    5  A    between atoms: C_20  and  C_21
REMARK    6  A    between atoms: C_25  and  N_26
REMARK                            x       y       z     vdW  Elec       q    Type
REMARK                         _______ _______ _______ _____ _____    ______ ____
ROOT
ATOM      1  C   UNL     1       3.521   7.525  16.993  0.00  0.00    +0.000 C 
ATOM      2  C   UNL     1       2.927   7.780  18.178  0.00  0.00    +0.000 C 
ATOM      3  C   UNL     1       2.924   6.852  19.357  0.00  0.00    +0.000 C 
ATOM      4  N   UNL     1       1.653   6.898  20.092  0.00  0.00    +0.000 NA
ATOM      5  C   UNL     1       1.489   8.247  20.644  0.00  0.00    +0.000 C 
ATOM      6  C   UNL     1       1.411   9.297  19.574  0.00  0.00    +0.000 C 
ATOM      7  C   UNL     1       0.663  10.414  19.662  0.00  0.00    +0.000 C 
ATOM      8  C   UNL     1       2.216   9.093  18.325  0.00  0.00    +0.000 C 
ATOM      9  O   UNL     1       2.302   9.969  17.464  0.00  0.00    +0.000 OA
ENDROOT
BRANCH   1  14
ATOM     10  C   UNL     1       4.694   3.929  17.071  0.00  0.00    +0.000 A 
ATOM     11  C   UNL     1       5.629   3.947  16.032  0.00  0.00    +0.000 A 
ATOM     12  C   UNL     1       5.909   5.131  15.346  0.00  0.00    +0.000 A 
ATOM     13  C   UNL     1       5.229   6.303  15.671  0.00  0.00    +0.000 A 
ATOM     14  C   UNL     1       4.250   6.292  16.670  0.00  0.00    +0.000 A 
ATOM     15  C   UNL     1       3.969   5.096  17.344  0.00  0.00    +0.000 A 
BRANCH  10  16
ATOM     16  N   UNL     1       4.333   2.712  17.666  0.00  0.00    +0.000 N 
ATOM     17  H   UNL     1       3.983   2.814  18.614  0.00  0.00    +0.000 HD
ATOM     18  H   UNL     1       3.714   2.147  17.093  0.00  0.00    +0.000 HD
ENDBRANCH  10  16
ENDBRANCH   1  14
BRANCH   7  19
ATOM     19  C   UNL     1      -0.168  10.765  20.821  0.00  0.00    +0.000 A 
ATOM     20  C   UNL     1      -0.016  10.081  22.029  0.00  0.00    +0.000 A 
ATOM     21  C   UNL     1      -0.849  10.375  23.107  0.00  0.00    +0.000 A 
ATOM     22  C   UNL     1      -1.823  11.371  22.986  0.00  0.00    +0.000 A 
ATOM     23  C   UNL     1      -1.933  12.121  21.812  0.00  0.00    +0.000 A 
ATOM     24  C   UNL     1      -1.128  11.782  20.719  0.00  0.00    +0.000 A 
BRANCH  23  25
ATOM     25  N   UNL     1      -2.990  13.028  21.657  0.00  0.00    +0.000 N 
ATOM     26  H   UNL     1      -2.693  13.991  21.534  0.00  0.00    +0.000 HD
ATOM     27  H   UNL     1      -3.680  12.743  20.970  0.00  0.00    +0.000 HD
ENDBRANCH  23  25
ENDBRANCH   7  19
BRANCH   4  28
ATOM     28  C   UNL     1       1.670   5.889  21.169  0.00  0.00    +0.000 C 
BRANCH  28  29
ATOM     29  C   UNL     1       1.631   4.456  20.678  0.00  0.00    +0.000 A 
ATOM     30  C   UNL     1       1.052   4.129  19.443  0.00  0.00    +0.000 A 
ATOM     31  C   UNL     1       1.039   2.807  18.993  0.00  0.00    +0.000 A 
ATOM     32  C   UNL     1       1.606   1.799  19.771  0.00  0.00    +0.000 A 
ATOM     33  C   UNL     1       2.174   2.108  21.004  0.00  0.00    +0.000 A 
ATOM     34  C   UNL     1       2.184   3.428  21.457  0.00  0.00    +0.000 A 
ENDBRANCH  28  29
ENDBRANCH   4  28
TORSDOF 6
ENDMDL
MODEL 9
REMARK VINA RESULT:      -8.6      3.036      6.185
REMARK  Name = 
REMARK  6 active torsions:
REMARK  status: ('A' for Active; 'I' for Inactive)
REMARK    1  A    between atoms: N_1  and  C_2
REMARK    2  A    between atoms: C_6  and  C_7
REMARK    3  A    between atoms: N_10  and  C_11
REMARK    4  A    between atoms: C_11  and  C_12
REMARK    5  A    between atoms: C_20  and  C_21
REMARK    6  A    between atoms: C_25  and  N_26
REMARK                            x       y       z     vdW  Elec       q    Type
REMARK                         _______ _______ _______ _____ _____    ______ ____
ROOT
ATOM      1  C   UNL     1      -1.027  11.814  23.119  0.00  0.00    +0.000 C 
ATOM      2  C   UNL     1      -0.462  11.173  22.073  0.00  0.00    +0.000 C 
ATOM      3  C   UNL     1      -0.494  11.650  20.651  0.00  0.00    +0.000 C 
ATOM      4  N   UNL     1      -0.618  10.540  19.699  0.00  0.00    +0.000 NA
ATOM      5  C   UNL     1       0.579   9.699  19.812  0.00  0.00    +0.000 C 
ATOM      6  C   UNL     1       0.722   9.089  21.176  0.00  0.00    +0.000 C 
ATOM      7  C   UNL     1       1.247   7.871  21.410  0.00  0.00    +0.000 C 
ATOM      8  C   UNL     1       0.252   9.884  22.358  0.00  0.00    +0.000 C 
ATOM      9  O   UNL     1       0.454   9.504  23.511  0.00  0.00    +0.000 OA
ENDROOT
BRANCH   1  14
ATOM     10  C   UNL     1      -3.794  14.303  22.439  0.00  0.00    +0.000 A 
ATOM     11  C   UNL     1      -3.181  15.484  22.868  0.00  0.00    +0.000 A 
ATOM     12  C   UNL     1      -1.862  15.475  23.329  0.00  0.00    +0.000 A 
ATOM     13  C   UNL     1      -1.155  14.276  23.397  0.00  0.00    +0.000 A 
ATOM     14  C   UNL     1      -1.770  13.077  23.024  0.00  0.00    +0.000 A 
ATOM     15  C   UNL     1      -3.097  13.095  22.574  0.00  0.00    +0.000 A 
BRANCH  10  16
ATOM     16  N   UNL     1      -5.154  14.304  22.098  0.00  0.00    +0.000 N 
ATOM     17  H   UNL     1      -5.697  14.994  22.609  0.00  0.00    +0.000 HD
ATOM     18  H   UNL     1      -5.322  14.354  21.099  0.00  0.00    +0.000 HD
ENDBRANCH  10  16
ENDBRANCH   1  14
BRANCH   7  19
ATOM     19  C   UNL     1       1.763   6.977  20.364  0.00  0.00    +0.000 A 
ATOM     20  C   UNL     1       1.547   5.599  20.444  0.00  0.00    +0.000 A 
ATOM     21  C   UNL     1       2.092   4.750  19.483  0.00  0.00    +0.000 A 
ATOM     22  C   UNL     1       2.838   5.279  18.426  0.00  0.00    +0.000 A 
ATOM     23  C   UNL     1       2.996   6.660  18.286  0.00  0.00    +0.000 A 
ATOM     24  C   UNL     1       2.490   7.500  19.285  0.00  0.00    +0.000 A 
BRANCH  23  25
ATOM     25  N   UNL     1       3.847   7.172  17.298  0.00  0.00    +0.000 N 
ATOM     26  H   UNL     1       4.505   6.493  16.927  0.00  0.00    +0.000 HD
ATOM     27  H   UNL     1       3.369   7.689  16.568  0.00  0.00    +0.000 HD
ENDBRANCH  23  25
ENDBRANCH   7  19
BRANCH   4  28
ATOM     28  C   UNL     1      -0.754  11.076  18.331  0.00  0.00    +0.000 C 
BRANCH  28  29
ATOM     29  C   UNL     1      -2.185  11.172  17.840  0.00  0.00    +0.000 A 
ATOM     30  C   UNL     1      -2.539  10.748  16.551  0.00  0.00    +0.000 A 
ATOM     31  C   UNL     1      -3.865  10.823  16.118  0.00  0.00    +0.000 A 
ATOM     32  C   UNL     1      -4.850  11.319  16.969  0.00  0.00    +0.000 A 
ATOM     33  C   UNL     1      -4.511  11.753  18.248  0.00  0.00    +0.000 A 
ATOM     34  C   UNL     1      -3.186  11.683  18.681  0.00  0.00    +0.000 A 
ENDBRANCH  28  29
ENDBRANCH   4  28
TORSDOF 6
ENDMDL
