MODEL 1
REMARK VINA RESULT:      -8.8      0.000      0.000
REMARK  Name = 
REMARK  5 active torsions:
REMARK  status: ('A' for Active; 'I' for Inactive)
REMARK    1  A    between atoms: C_1  and  C_2
REMARK    2  A    between atoms: C_6  and  N_7
REMARK    3  A    between atoms: C_8  and  C_10
REMARK    4  A    between atoms: C_14  and  C_15
REMARK    5  A    between atoms: C_22  and  C_23
REMARK                            x       y       z     vdW  Elec       q    Type
REMARK                         _______ _______ _______ _____ _____    ______ ____
ROOT
ATOM      1  C   UNL     1       2.650   7.038  19.086  0.00  0.00    +0.000 A 
ATOM      2  C   UNL     1       2.839   5.960  19.956  0.00  0.00    +0.000 A 
ATOM      3  C   UNL     1       3.726   4.946  19.618  0.00  0.00    +0.000 A 
ATOM      4  C   UNL     1       4.401   4.990  18.396  0.00  0.00    +0.000 A 
ATOM      5  C   UNL     1       4.170   6.027  17.476  0.00  0.00    +0.000 A 
ATOM      6  C   UNL     1       3.283   7.056  17.825  0.00  0.00    +0.000 A 
ENDROOT
BRANCH   5   7
ATOM      7  C   UNL     1       4.937   5.970  16.187  0.00  0.00    +0.000 C 
ATOM      8  O   UNL     1       5.163   7.025  15.598  0.00  0.00    +0.000 OA
ATOM      9  N   UNL     1       5.330   4.717  15.749  0.00  0.00    +0.000 N 
ATOM     10  C   UNL     1       5.940   4.533  14.500  0.00  0.00    +0.000 A 
ATOM     11  C   UNL     1       7.174   5.105  14.215  0.00  0.00    +0.000 A 
ATOM     12  C   UNL     1       7.777   4.812  12.994  0.00  0.00    +0.000 A 
ATOM     13  C   UNL     1       7.105   4.010  12.079  0.00  0.00    +0.000 A 
ATOM     14  C   UNL     1       5.870   3.481  12.437  0.00  0.00    +0.000 A 
ATOM     15  C   UNL     1       5.068   2.683  11.452  0.00  0.00    +0.000 C 
ATOM     16  N   UNL     1       5.312   3.686  13.658  0.00  0.00    +0.000 NA
ATOM     17  H   UNL     1       4.799   3.920  16.045  0.00  0.00    +0.000 HD
ENDBRANCH   5   7
BRANCH   1  19
ATOM     18  N   UNL     1       1.605   8.332  20.864  0.00  0.00    +0.000 N 
ATOM     19  C   UNL     1       1.779   8.177  19.491  0.00  0.00    +0.000 C 
ATOM     20  O   UNL     1       1.327   8.870  18.592  0.00  0.00    +0.000 OA
ATOM     21  H   UNL     1       2.100   7.725  21.497  0.00  0.00    +0.000 HD
BRANCH  18  27
ATOM     22  C   UNL     1       0.344  12.948  21.013  0.00  0.00    +0.000 C 
ATOM     23  C   UNL     1       0.175  11.574  21.559  0.00  0.00    +0.000 A 
ATOM     24  C   UNL     1      -0.696  11.319  22.615  0.00  0.00    +0.000 A 
ATOM     25  C   UNL     1      -0.795  10.025  23.095  0.00  0.00    +0.000 A 
ATOM     26  C   UNL     1      -0.018   9.015  22.513  0.00  0.00    +0.000 A 
ATOM     27  C   UNL     1       0.826   9.344  21.450  0.00  0.00    +0.000 A 
ATOM     28  N   UNL     1       0.913  10.596  20.986  0.00  0.00    +0.000 NA
ENDBRANCH  18  27
ENDBRANCH   1  19
TORSDOF 3
ENDMDL
MODEL 2
REMARK VINA RESULT:      -8.7      1.899      2.258
REMARK  Name = 
REMARK  5 active torsions:
REMARK  status: ('A' for Active; 'I' for Inactive)
REMARK    1  A    between atoms: C_1  and  C_2
REMARK    2  A    between atoms: C_6  and  N_7
REMARK    3  A    between atoms: C_8  and  C_10
REMARK    4  A    between atoms: C_14  and  C_15
REMARK    5  A    between atoms: C_22  and  C_23
REMARK                            x       y       z     vdW  Elec       q    Type
REMARK                         _______ _______ _______ _____ _____    ______ ____
ROOT
ATOM      1  C   UNL     1       2.685   7.171  18.940  0.00  0.00    +0.000 A 
ATOM      2  C   UNL     1       2.888   6.118  19.836  0.00  0.00    +0.000 A 
ATOM      3  C   UNL     1       3.783   5.104  19.519  0.00  0.00    +0.000 A 
ATOM      4  C   UNL     1       4.451   5.122  18.293  0.00  0.00    +0.000 A 
ATOM      5  C   UNL     1       4.206   6.134  17.348  0.00  0.00    +0.000 A 
ATOM      6  C   UNL     1       3.311   7.163  17.676  0.00  0.00    +0.000 A 
ENDROOT
BRANCH   5   7
ATOM      7  C   UNL     1       4.966   6.051  16.057  0.00  0.00    +0.000 C 
ATOM      8  O   UNL     1       5.143   7.086  15.418  0.00  0.00    +0.000 OA
ATOM      9  N   UNL     1       5.410   4.797  15.672  0.00  0.00    +0.000 N 
ATOM     10  C   UNL     1       6.019   4.583  14.429  0.00  0.00    +0.000 A 
ATOM     11  C   UNL     1       7.225   5.193  14.107  0.00  0.00    +0.000 A 
ATOM     12  C   UNL     1       7.832   4.871  12.896  0.00  0.00    +0.000 A 
ATOM     13  C   UNL     1       7.190   4.001  12.023  0.00  0.00    +0.000 A 
ATOM     14  C   UNL     1       5.981   3.436  12.416  0.00  0.00    +0.000 A 
ATOM     15  C   UNL     1       5.208   2.561  11.474  0.00  0.00    +0.000 C 
ATOM     16  N   UNL     1       5.422   3.672  13.631  0.00  0.00    +0.000 NA
ATOM     17  H   UNL     1       4.915   3.993  16.008  0.00  0.00    +0.000 HD
ENDBRANCH   5   7
BRANCH   1  19
ATOM     18  N   UNL     1       1.443   9.157  18.273  0.00  0.00    +0.000 N 
ATOM     19  C   UNL     1       1.805   8.312  19.321  0.00  0.00    +0.000 C 
ATOM     20  O   UNL     1       1.471   8.382  20.493  0.00  0.00    +0.000 OA
ATOM     21  H   UNL     1       1.736   8.936  17.336  0.00  0.00    +0.000 HD
BRANCH  18  27
ATOM     22  C   UNL     1      -2.918  11.102  17.933  0.00  0.00    +0.000 C 
ATOM     23  C   UNL     1      -1.482  11.275  18.279  0.00  0.00    +0.000 A 
ATOM     24  C   UNL     1      -0.985  12.505  18.703  0.00  0.00    +0.000 A 
ATOM     25  C   UNL     1       0.365  12.611  18.989  0.00  0.00    +0.000 A 
ATOM     26  C   UNL     1       1.189  11.488  18.841  0.00  0.00    +0.000 A 
ATOM     27  C   UNL     1       0.618  10.285  18.421  0.00  0.00    +0.000 A 
ATOM     28  N   UNL     1      -0.689  10.186  18.152  0.00  0.00    +0.000 NA
ENDBRANCH  18  27
ENDBRANCH   1  19
TORSDOF 3
ENDMDL
MODEL 3
REMARK VINA RESULT:      -8.7      1.438      9.585
REMARK  Name = 
REMARK  5 active torsions:
REMARK  status: ('A' for Active; 'I' for Inactive)
REMARK    1  A    between atoms: C_1  and  C_2
REMARK    2  A    between atoms: C_6  and  N_7
REMARK    3  A    between atoms: C_8  and  C_10
REMARK    4  A    between atoms: C_14  and  C_15
REMARK    5  A    between atoms: C_22  and  C_23
REMARK                            x       y       z     vdW  Elec       q    Type
REMARK                         _______ _______ _______ _____ _____    ______ ____
ROOT
ATOM      1  C   UNL     1       4.442   4.882  17.665  0.00  0.00    +0.000 A 
ATOM      2  C   UNL     1       4.754   3.666  18.281  0.00  0.00    +0.000 A 
ATOM      3  C   UNL     1       4.146   3.323  19.482  0.00  0.00    +0.000 A 
ATOM      4  C   UNL     1       3.252   4.209  20.087  0.00  0.00    +0.000 A 
ATOM      5  C   UNL     1       2.981   5.466  19.522  0.00  0.00    +0.000 A 
ATOM      6  C   UNL     1       3.586   5.805  18.303  0.00  0.00    +0.000 A 
ENDROOT
BRANCH   5   7
ATOM      7  C   UNL     1       2.016   6.346  20.261  0.00  0.00    +0.000 C 
ATOM      8  O   UNL     1       1.146   5.811  20.945  0.00  0.00    +0.000 OA
ATOM      9  N   UNL     1       2.176   7.714  20.110  0.00  0.00    +0.000 N 
ATOM     10  C   UNL     1       1.259   8.625  20.652  0.00  0.00    +0.000 A 
ATOM     11  C   UNL     1       1.071   8.722  22.025  0.00  0.00    +0.000 A 
ATOM     12  C   UNL     1       0.218   9.708  22.512  0.00  0.00    +0.000 A 
ATOM     13  C   UNL     1      -0.463  10.523  21.616  0.00  0.00    +0.000 A 
ATOM     14  C   UNL     1      -0.225  10.360  20.255  0.00  0.00    +0.000 A 
ATOM     15  C   UNL     1      -1.000  11.155  19.246  0.00  0.00    +0.000 C 
ATOM     16  N   UNL     1       0.671   9.462  19.770  0.00  0.00    +0.000 NA
ATOM     17  H   UNL     1       2.616   8.053  19.276  0.00  0.00    +0.000 HD
ENDBRANCH   5   7
BRANCH   1  19
ATOM     18  N   UNL     1       5.551   4.124  15.634  0.00  0.00    +0.000 N 
ATOM     19  C   UNL     1       5.012   5.206  16.327  0.00  0.00    +0.000 C 
ATOM     20  O   UNL     1       4.932   6.369  15.962  0.00  0.00    +0.000 OA
ATOM     21  H   UNL     1       5.484   3.201  16.029  0.00  0.00    +0.000 HD
BRANCH  18  27
ATOM     22  C   UNL     1       8.880   6.064  12.793  0.00  0.00    +0.000 C 
ATOM     23  C   UNL     1       7.734   5.126  12.938  0.00  0.00    +0.000 A 
ATOM     24  C   UNL     1       7.254   4.400  11.851  0.00  0.00    +0.000 A 
ATOM     25  C   UNL     1       6.171   3.559  12.043  0.00  0.00    +0.000 A 
ATOM     26  C   UNL     1       5.590   3.466  13.313  0.00  0.00    +0.000 A 
ATOM     27  C   UNL     1       6.132   4.218  14.358  0.00  0.00    +0.000 A 
ATOM     28  N   UNL     1       7.184   5.024  14.169  0.00  0.00    +0.000 NA
ENDBRANCH  18  27
ENDBRANCH   1  19
TORSDOF 3
ENDMDL
MODEL 4
REMARK VINA RESULT:      -8.7      1.734      9.496
REMARK  Name = 
REMARK  5 active torsions:
REMARK  status: ('A' for Active; 'I' for Inactive)
REMARK    1  A    between atoms: C_1  and  C_2
REMARK    2  A    between atoms: C_6  and  N_7
REMARK    3  A    between atoms: C_8  and  C_10
REMARK    4  A    between atoms: C_14  and  C_15
REMARK    5  A    between atoms: C_22  and  C_23
REMARK                            x       y       z     vdW  Elec       q    Type
REMARK                         _______ _______ _______ _____ _____    ______ ____
ROOT
ATOM      1  C   UNL     1       4.260   5.811  17.475  0.00  0.00    +0.000 A 
ATOM      2  C   UNL     1       4.382   4.670  18.274  0.00  0.00    +0.000 A 
ATOM      3  C   UNL     1       3.655   4.573  19.454  0.00  0.00    +0.000 A 
ATOM      4  C   UNL     1       2.832   5.627  19.854  0.00  0.00    +0.000 A 
ATOM      5  C   UNL     1       2.753   6.812  19.102  0.00  0.00    +0.000 A 
ATOM      6  C   UNL     1       3.478   6.903  17.905  0.00  0.00    +0.000 A 
ENDROOT
BRANCH   5   7
ATOM      7  C   UNL     1       1.850   7.888  19.629  0.00  0.00    +0.000 C 
ATOM      8  O   UNL     1       1.396   7.763  20.764  0.00  0.00    +0.000 OA
ATOM      9  N   UNL     1       1.587   8.953  18.783  0.00  0.00    +0.000 N 
ATOM     10  C   UNL     1       0.661   9.950  19.122  0.00  0.00    +0.000 A 
ATOM     11  C   UNL     1       0.867  10.774  20.221  0.00  0.00    +0.000 A 
ATOM     12  C   UNL     1      -0.036  11.808  20.456  0.00  0.00    +0.000 A 
ATOM     13  C   UNL     1      -1.142  11.947  19.626  0.00  0.00    +0.000 A 
ATOM     14  C   UNL     1      -1.280  11.077  18.550  0.00  0.00    +0.000 A 
ATOM     15  C   UNL     1      -2.500  11.131  17.678  0.00  0.00    +0.000 C 
ATOM     16  N   UNL     1      -0.361  10.121  18.257  0.00  0.00    +0.000 NA
ATOM     17  H   UNL     1       1.655   8.804  17.794  0.00  0.00    +0.000 HD
ENDBRANCH   5   7
BRANCH   1  19
ATOM     18  N   UNL     1       5.315   4.642  15.616  0.00  0.00    +0.000 N 
ATOM     19  C   UNL     1       4.958   5.875  16.159  0.00  0.00    +0.000 C 
ATOM     20  O   UNL     1       5.125   6.985  15.679  0.00  0.00    +0.000 OA
ATOM     21  H   UNL     1       5.048   3.796  16.092  0.00  0.00    +0.000 HD
BRANCH  18  27
ATOM     22  C   UNL     1       8.859   5.966  12.682  0.00  0.00    +0.000 C 
ATOM     23  C   UNL     1       7.682   5.088  12.926  0.00  0.00    +0.000 A 
ATOM     24  C   UNL     1       7.250   4.177  11.966  0.00  0.00    +0.000 A 
ATOM     25  C   UNL     1       6.137   3.402  12.242  0.00  0.00    +0.000 A 
ATOM     26  C   UNL     1       5.478   3.559  13.467  0.00  0.00    +0.000 A 
ATOM     27  C   UNL     1       5.975   4.486  14.385  0.00  0.00    +0.000 A 
ATOM     28  N   UNL     1       7.056   5.227  14.117  0.00  0.00    +0.000 NA
ENDBRANCH  18  27
ENDBRANCH   1  19
TORSDOF 3
ENDMDL
MODEL 5
REMARK VINA RESULT:      -8.7      1.675      9.589
REMARK  Name = 
REMARK  5 active torsions:
REMARK  status: ('A' for Active; 'I' for Inactive)
REMARK    1  A    between atoms: C_1  and  C_2
REMARK    2  A    between atoms: C_6  and  N_7
REMARK    3  A    between atoms: C_8  and  C_10
REMARK    4  A    between atoms: C_14  and  C_15
REMARK    5  A    between atoms: C_22  and  C_23
REMARK                            x       y       z     vdW  Elec       q    Type
REMARK                         _______ _______ _______ _____ _____    ______ ____
ROOT
ATOM      1  C   UNL     1       4.323   5.830  17.475  0.00  0.00    +0.000 A 
ATOM      2  C   UNL     1       4.524   4.742  18.330  0.00  0.00    +0.000 A 
ATOM      3  C   UNL     1       3.838   4.676  19.536  0.00  0.00    +0.000 A 
ATOM      4  C   UNL     1       2.976   5.710  19.905  0.00  0.00    +0.000 A 
ATOM      5  C   UNL     1       2.816   6.846  19.093  0.00  0.00    +0.000 A 
ATOM      6  C   UNL     1       3.500   6.905  17.870  0.00  0.00    +0.000 A 
ENDROOT
BRANCH   5   7
ATOM      7  C   UNL     1       1.877   7.906  19.590  0.00  0.00    +0.000 C 
ATOM      8  O   UNL     1       1.398   7.779  20.715  0.00  0.00    +0.000 OA
ATOM      9  N   UNL     1       1.611   8.959  18.730  0.00  0.00    +0.000 N 
ATOM     10  C   UNL     1       0.656   9.937  19.039  0.00  0.00    +0.000 A 
ATOM     11  C   UNL     1       0.817  10.774  20.136  0.00  0.00    +0.000 A 
ATOM     12  C   UNL     1      -0.114  11.789  20.341  0.00  0.00    +0.000 A 
ATOM     13  C   UNL     1      -1.202  11.897  19.484  0.00  0.00    +0.000 A 
ATOM     14  C   UNL     1      -1.295  11.017  18.411  0.00  0.00    +0.000 A 
ATOM     15  C   UNL     1      -2.495  11.037  17.511  0.00  0.00    +0.000 C 
ATOM     16  N   UNL     1      -0.348  10.080  18.148  0.00  0.00    +0.000 NA
ATOM     17  H   UNL     1       1.707   8.804  17.744  0.00  0.00    +0.000 HD
ENDBRANCH   5   7
BRANCH   1  19
ATOM     18  N   UNL     1       5.352   4.608  15.636  0.00  0.00    +0.000 N 
ATOM     19  C   UNL     1       4.977   5.854  16.136  0.00  0.00    +0.000 C 
ATOM     20  O   UNL     1       5.098   6.945  15.603  0.00  0.00    +0.000 OA
ATOM     21  H   UNL     1       5.125   3.777  16.158  0.00  0.00    +0.000 HD
BRANCH  18  27
ATOM     22  C   UNL     1       5.452   2.340  11.422  0.00  0.00    +0.000 C 
ATOM     23  C   UNL     1       6.068   3.345  12.330  0.00  0.00    +0.000 A 
ATOM     24  C   UNL     1       7.221   4.036  11.967  0.00  0.00    +0.000 A 
ATOM     25  C   UNL     1       7.760   4.943  12.863  0.00  0.00    +0.000 A 
ATOM     26  C   UNL     1       7.138   5.136  14.103  0.00  0.00    +0.000 A 
ATOM     27  C   UNL     1       5.978   4.414  14.393  0.00  0.00    +0.000 A 
ATOM     28  N   UNL     1       5.457   3.544  13.521  0.00  0.00    +0.000 NA
ENDBRANCH  18  27
ENDBRANCH   1  19
TORSDOF 3
ENDMDL
MODEL 6
REMARK VINA RESULT:      -8.6      1.573      1.769
REMARK  Name = 
REMARK  5 active torsions:
REMARK  status: ('A' for Active; 'I' for Inactive)
REMARK    1  A    between atoms: C_1  and  C_2
REMARK    2  A    between atoms: C_6  and  N_7
REMARK    3  A    between atoms: C_8  and  C_10
REMARK    4  A    between atoms: C_14  and  C_15
REMARK    5  A    between atoms: C_22  and  C_23
REMARK                            x       y       z     vdW  Elec       q    Type
REMARK                         _______ _______ _______ _____ _____    ______ ____
ROOT
ATOM      1  C   UNL     1       2.599   6.983  19.184  0.00  0.00    +0.000 A 
ATOM      2  C   UNL     1       2.719   5.857  20.003  0.00  0.00    +0.000 A 
ATOM      3  C   UNL     1       3.553   4.813  19.625  0.00  0.00    +0.000 A 
ATOM      4  C   UNL     1       4.243   4.877  18.413  0.00  0.00    +0.000 A 
ATOM      5  C   UNL     1       4.080   5.967  17.541  0.00  0.00    +0.000 A 
ATOM      6  C   UNL     1       3.246   7.026  17.931  0.00  0.00    +0.000 A 
ENDROOT
BRANCH   5   7
ATOM      7  C   UNL     1       4.856   5.929  16.258  0.00  0.00    +0.000 C 
ATOM      8  O   UNL     1       5.127   6.995  15.709  0.00  0.00    +0.000 OA
ATOM      9  N   UNL     1       5.208   4.678  15.777  0.00  0.00    +0.000 N 
ATOM     10  C   UNL     1       5.824   4.517  14.529  0.00  0.00    +0.000 A 
ATOM     11  C   UNL     1       7.080   5.053  14.275  0.00  0.00    +0.000 A 
ATOM     12  C   UNL     1       7.684   4.782  13.050  0.00  0.00    +0.000 A 
ATOM     13  C   UNL     1       6.992   4.040  12.099  0.00  0.00    +0.000 A 
ATOM     14  C   UNL     1       5.735   3.544  12.428  0.00  0.00    +0.000 A 
ATOM     15  C   UNL     1       4.915   2.812  11.407  0.00  0.00    +0.000 C 
ATOM     16  N   UNL     1       5.173   3.725  13.651  0.00  0.00    +0.000 NA
ATOM     17  H   UNL     1       4.645   3.892  16.040  0.00  0.00    +0.000 HD
ENDBRANCH   5   7
BRANCH   1  19
ATOM     18  N   UNL     1       1.442   9.055  18.634  0.00  0.00    +0.000 N 
ATOM     19  C   UNL     1       1.787   8.149  19.635  0.00  0.00    +0.000 C 
ATOM     20  O   UNL     1       1.484   8.184  20.817  0.00  0.00    +0.000 OA
ATOM     21  H   UNL     1       1.702   8.861  17.680  0.00  0.00    +0.000 HD
BRANCH  18  27
ATOM     22  C   UNL     1       1.070  13.388  20.634  0.00  0.00    +0.000 C 
ATOM     23  C   UNL     1       0.450  12.327  19.795  0.00  0.00    +0.000 A 
ATOM     24  C   UNL     1      -0.833  12.474  19.276  0.00  0.00    +0.000 A 
ATOM     25  C   UNL     1      -1.365  11.444  18.520  0.00  0.00    +0.000 A 
ATOM     26  C   UNL     1      -0.605  10.287  18.305  0.00  0.00    +0.000 A 
ATOM     27  C   UNL     1       0.678  10.214  18.850  0.00  0.00    +0.000 A 
ATOM     28  N   UNL     1       1.191  11.216  19.573  0.00  0.00    +0.000 NA
ENDBRANCH  18  27
ENDBRANCH   1  19
TORSDOF 3
ENDMDL
MODEL 7
REMARK VINA RESULT:      -8.5      1.326      9.707
REMARK  Name = 
REMARK  5 active torsions:
REMARK  status: ('A' for Active; 'I' for Inactive)
REMARK    1  A    between atoms: C_1  and  C_2
REMARK    2  A    between atoms: C_6  and  N_7
REMARK    3  A    between atoms: C_8  and  C_10
REMARK    4  A    between atoms: C_14  and  C_15
REMARK    5  A    between atoms: C_22  and  C_23
REMARK                            x       y       z     vdW  Elec       q    Type
REMARK                         _______ _______ _______ _____ _____    ______ ____
ROOT
ATOM      1  C   UNL     1       4.450   4.863  17.740  0.00  0.00    +0.000 A 
ATOM      2  C   UNL     1       4.786   3.674  18.393  0.00  0.00    +0.000 A 
ATOM      3  C   UNL     1       4.188   3.358  19.606  0.00  0.00    +0.000 A 
ATOM      4  C   UNL     1       3.279   4.246  20.186  0.00  0.00    +0.000 A 
ATOM      5  C   UNL     1       2.983   5.480  19.581  0.00  0.00    +0.000 A 
ATOM      6  C   UNL     1       3.579   5.790  18.350  0.00  0.00    +0.000 A 
ENDROOT
BRANCH   5   7
ATOM      7  C   UNL     1       2.004   6.365  20.296  0.00  0.00    +0.000 C 
ATOM      8  O   UNL     1       1.122   5.835  20.967  0.00  0.00    +0.000 OA
ATOM      9  N   UNL     1       2.166   7.732  20.137  0.00  0.00    +0.000 N 
ATOM     10  C   UNL     1       1.239   8.646  20.654  0.00  0.00    +0.000 A 
ATOM     11  C   UNL     1       1.025   8.753  22.023  0.00  0.00    +0.000 A 
ATOM     12  C   UNL     1       0.162   9.743  22.487  0.00  0.00    +0.000 A 
ATOM     13  C   UNL     1      -0.501  10.551  21.571  0.00  0.00    +0.000 A 
ATOM     14  C   UNL     1      -0.237  10.377  20.216  0.00  0.00    +0.000 A 
ATOM     15  C   UNL     1      -0.993  11.164  19.186  0.00  0.00    +0.000 C 
ATOM     16  N   UNL     1       0.668   9.476  19.756  0.00  0.00    +0.000 NA
ATOM     17  H   UNL     1       2.622   8.064  19.309  0.00  0.00    +0.000 HD
ENDBRANCH   5   7
BRANCH   1  19
ATOM     18  N   UNL     1       5.576   4.064  15.734  0.00  0.00    +0.000 N 
ATOM     19  C   UNL     1       5.011   5.156  16.390  0.00  0.00    +0.000 C 
ATOM     20  O   UNL     1       4.901   6.302  15.986  0.00  0.00    +0.000 OA
ATOM     21  H   UNL     1       5.533   3.153  16.161  0.00  0.00    +0.000 HD
BRANCH  18  27
ATOM     22  C   UNL     1       5.772   2.395  11.251  0.00  0.00    +0.000 C 
ATOM     23  C   UNL     1       6.284   3.357  12.264  0.00  0.00    +0.000 A 
ATOM     24  C   UNL     1       7.303   4.255  11.957  0.00  0.00    +0.000 A 
ATOM     25  C   UNL     1       7.753   5.111  12.947  0.00  0.00    +0.000 A 
ATOM     26  C   UNL     1       7.179   5.047  14.223  0.00  0.00    +0.000 A 
ATOM     27  C   UNL     1       6.154   4.128  14.454  0.00  0.00    +0.000 A 
ATOM     28  N   UNL     1       5.717   3.307  13.492  0.00  0.00    +0.000 NA
ENDBRANCH  18  27
ENDBRANCH   1  19
TORSDOF 3
ENDMDL
MODEL 8
REMARK VINA RESULT:      -8.5      1.330      1.507
REMARK  Name = 
REMARK  5 active torsions:
REMARK  status: ('A' for Active; 'I' for Inactive)
REMARK    1  A    between atoms: C_1  and  C_2
REMARK    2  A    between atoms: C_6  and  N_7
REMARK    3  A    between atoms: C_8  and  C_10
REMARK    4  A    between atoms: C_14  and  C_15
REMARK    5  A    between atoms: C_22  and  C_23
REMARK                            x       y       z     vdW  Elec       q    Type
REMARK                         _______ _______ _______ _____ _____    ______ ____
ROOT
ATOM      1  C   UNL     1       2.884   5.315  19.590  0.00  0.00    +0.000 A 
ATOM      2  C   UNL     1       3.361   4.190  20.268  0.00  0.00    +0.000 A 
ATOM      3  C   UNL     1       4.387   3.434  19.716  0.00  0.00    +0.000 A 
ATOM      4  C   UNL     1       4.914   3.780  18.470  0.00  0.00    +0.000 A 
ATOM      5  C   UNL     1       4.398   4.864  17.739  0.00  0.00    +0.000 A 
ATOM      6  C   UNL     1       3.371   5.633  18.305  0.00  0.00    +0.000 A 
ENDROOT
BRANCH   5   7
ATOM      7  C   UNL     1       5.027   5.141  16.406  0.00  0.00    +0.000 C 
ATOM      8  O   UNL     1       4.943   6.278  15.947  0.00  0.00    +0.000 OA
ATOM      9  N   UNL     1       5.658   4.079  15.779  0.00  0.00    +0.000 N 
ATOM     10  C   UNL     1       6.170   4.191  14.479  0.00  0.00    +0.000 A 
ATOM     11  C   UNL     1       7.202   5.074  14.189  0.00  0.00    +0.000 A 
ATOM     12  C   UNL     1       7.734   5.076  12.903  0.00  0.00    +0.000 A 
ATOM     13  C   UNL     1       7.183   4.243  11.936  0.00  0.00    +0.000 A 
ATOM     14  C   UNL     1       6.146   3.392  12.305  0.00  0.00    +0.000 A 
ATOM     15  C   UNL     1       5.461   2.539  11.279  0.00  0.00    +0.000 C 
ATOM     16  N   UNL     1       5.677   3.316  13.577  0.00  0.00    +0.000 NA
ATOM     17  H   UNL     1       5.359   3.149  16.002  0.00  0.00    +0.000 HD
ENDBRANCH   5   7
BRANCH   1  19
ATOM     18  N   UNL     1       2.123   7.554  20.176  0.00  0.00    +0.000 N 
ATOM     19  C   UNL     1       1.856   6.187  20.227  0.00  0.00    +0.000 C 
ATOM     20  O   UNL     1       0.880   5.628  20.703  0.00  0.00    +0.000 OA
ATOM     21  H   UNL     1       2.938   7.880  19.684  0.00  0.00    +0.000 HD
BRANCH  18  27
ATOM     22  C   UNL     1      -0.979  11.123  19.433  0.00  0.00    +0.000 C 
ATOM     23  C   UNL     1      -0.236  10.278  20.406  0.00  0.00    +0.000 A 
ATOM     24  C   UNL     1      -0.358  10.480  21.778  0.00  0.00    +0.000 A 
ATOM     25  C   UNL     1       0.375   9.675  22.634  0.00  0.00    +0.000 A 
ATOM     26  C   UNL     1       1.216   8.692  22.099  0.00  0.00    +0.000 A 
ATOM     27  C   UNL     1       1.280   8.541  20.713  0.00  0.00    +0.000 A 
ATOM     28  N   UNL     1       0.564   9.316  19.890  0.00  0.00    +0.000 NA
ENDBRANCH  18  27
ENDBRANCH   1  19
TORSDOF 3
ENDMDL
MODEL 9
REMARK VINA RESULT:      -8.4      1.232      1.722
REMARK  Name = 
REMARK  5 active torsions:
REMARK  status: ('A' for Active; 'I' for Inactive)
REMARK    1  A    between atoms: C_1  and  C_2
REMARK    2  A    between atoms: C_6  and  N_7
REMARK    3  A    between atoms: C_8  and  C_10
REMARK    4  A    between atoms: C_14  and  C_15
REMARK    5  A    between atoms: C_22  and  C_23
REMARK                            x       y       z     vdW  Elec       q    Type
REMARK                         _______ _______ _______ _____ _____    ______ ____
ROOT
ATOM      1  C   UNL     1       2.917   6.188  19.350  0.00  0.00    +0.000 A 
ATOM      2  C   UNL     1       3.250   5.053  20.096  0.00  0.00    +0.000 A 
ATOM      3  C   UNL     1       4.184   4.152  19.602  0.00  0.00    +0.000 A 
ATOM      4  C   UNL     1       4.762   4.365  18.349  0.00  0.00    +0.000 A 
ATOM      5  C   UNL     1       4.387   5.461  17.553  0.00  0.00    +0.000 A 
ATOM      6  C   UNL     1       3.452   6.376  18.059  0.00  0.00    +0.000 A 
ENDROOT
BRANCH   5   7
ATOM      7  C   UNL     1       5.058   5.588  16.217  0.00  0.00    +0.000 C 
ATOM      8  O   UNL     1       5.027   6.678  15.651  0.00  0.00    +0.000 OA
ATOM      9  N   UNL     1       5.665   4.450  15.712  0.00  0.00    +0.000 N 
ATOM     10  C   UNL     1       6.213   4.420  14.422  0.00  0.00    +0.000 A 
ATOM     11  C   UNL     1       7.283   5.236  14.079  0.00  0.00    +0.000 A 
ATOM     12  C   UNL     1       7.847   5.097  12.814  0.00  0.00    +0.000 A 
ATOM     13  C   UNL     1       7.289   4.195  11.915  0.00  0.00    +0.000 A 
ATOM     14  C   UNL     1       6.214   3.419  12.332  0.00  0.00    +0.000 A 
ATOM     15  C   UNL     1       5.523   2.496  11.373  0.00  0.00    +0.000 C 
ATOM     16  N   UNL     1       5.711   3.480  13.592  0.00  0.00    +0.000 NA
ATOM     17  H   UNL     1       5.326   3.556  16.013  0.00  0.00    +0.000 HD
ENDBRANCH   5   7
BRANCH   1  19
ATOM     18  N   UNL     1       1.852   8.371  19.167  0.00  0.00    +0.000 N 
ATOM     19  C   UNL     1       1.993   7.209  19.922  0.00  0.00    +0.000 C 
ATOM     20  O   UNL     1       1.438   6.922  20.971  0.00  0.00    +0.000 OA
ATOM     21  H   UNL     1       2.320   8.443  18.278  0.00  0.00    +0.000 HD
BRANCH  18  27
ATOM     22  C   UNL     1      -0.551  10.712  22.582  0.00  0.00    +0.000 C 
ATOM     23  C   UNL     1      -0.151  10.627  21.151  0.00  0.00    +0.000 A 
ATOM     24  C   UNL     1      -0.596  11.562  20.220  0.00  0.00    +0.000 A 
ATOM     25  C   UNL     1      -0.208  11.418  18.899  0.00  0.00    +0.000 A 
ATOM     26  C   UNL     1       0.612  10.342  18.537  0.00  0.00    +0.000 A 
ATOM     27  C   UNL     1       1.028   9.451  19.528  0.00  0.00    +0.000 A 
ATOM     28  N   UNL     1       0.656   9.597  20.805  0.00  0.00    +0.000 NA
ENDBRANCH  18  27
ENDBRANCH   1  19
TORSDOF 3
ENDMDL
