MODEL 1
REMARK VINA RESULT:      -8.0      0.000      0.000
REMARK  Name = 
REMARK  6 active torsions:
REMARK  status: ('A' for Active; 'I' for Inactive)
REMARK    1  A    between atoms: C_1  and  O_2
REMARK    2  A    between atoms: O_2  and  C_3
REMARK    3  A    between atoms: C_7  and  O_8
REMARK    4  A    between atoms: O_8  and  C_9
REMARK    5  A    between atoms: C_10  and  C_11
REMARK    6  A    between atoms: C_16  and  C_17
REMARK                            x       y       z     vdW  Elec       q    Type
REMARK                         _______ _______ _______ _____ _____    ______ ____
ROOT
ATOM      1  C   UNL     1       3.688   5.030  19.234  0.00  0.00    +0.000 C 
ATOM      2  C   UNL     1       3.418   4.090  20.155  0.00  0.00    +0.000 C 
ATOM      3  C   UNL     1       2.340   4.311  21.147  0.00  0.00    +0.000 C 
ATOM      4  O   UNL     1       2.122   3.458  21.997  0.00  0.00    +0.000 OA
ATOM      5  C   UNL     1       1.480   5.545  20.994  0.00  0.00    +0.000 C 
ATOM      6  C   UNL     1       2.310   6.723  20.461  0.00  0.00    +0.000 C 
ATOM      7  C   UNL     1       3.018   6.378  19.151  0.00  0.00    +0.000 C 
ENDROOT
BRANCH   6   8
ATOM      8  C   UNL     1       1.445   7.957  20.340  0.00  0.00    +0.000 A 
ATOM      9  C   UNL     1       0.586   8.361  21.394  0.00  0.00    +0.000 A 
ATOM     10  C   UNL     1      -0.015   9.621  21.389  0.00  0.00    +0.000 A 
ATOM     11  C   UNL     1       0.294  10.455  20.340  0.00  0.00    +0.000 A 
ATOM     12  C   UNL     1       1.064  10.040  19.277  0.00  0.00    +0.000 A 
ATOM     13  C   UNL     1       1.621   8.786  19.223  0.00  0.00    +0.000 A 
ATOM     14  O   UNL     1       1.302  11.044  18.388  0.00  0.00    +0.000 OA
ATOM     15  C   UNL     1       0.901  12.161  19.204  0.00  0.00    +0.000 C 
ATOM     16  O   UNL     1      -0.019  11.778  20.248  0.00  0.00    +0.000 OA
ENDBRANCH   6   8
BRANCH   1  22
ATOM     17  C   UNL     1       4.327   4.120  16.988  0.00  0.00    +0.000 A 
ATOM     18  C   UNL     1       5.317   3.825  16.037  0.00  0.00    +0.000 A 
ATOM     19  C   UNL     1       6.647   4.157  16.260  0.00  0.00    +0.000 A 
ATOM     20  C   UNL     1       7.012   4.742  17.466  0.00  0.00    +0.000 A 
ATOM     21  C   UNL     1       6.052   5.040  18.443  0.00  0.00    +0.000 A 
ATOM     22  C   UNL     1       4.683   4.767  18.197  0.00  0.00    +0.000 A 
BRANCH  17  24
ATOM     23  C   UNL     1       2.726   2.335  17.252  0.00  0.00    +0.000 C 
ATOM     24  O   UNL     1       3.124   3.551  16.648  0.00  0.00    +0.000 OA
ENDBRANCH  17  24
BRANCH  21  25
ATOM     25  O   UNL     1       6.627   5.370  19.649  0.00  0.00    +0.000 OA
ATOM     26  C   UNL     1       7.994   5.746  19.691  0.00  0.00    +0.000 C 
ENDBRANCH  21  25
ENDBRANCH   1  22
TORSDOF 4
ENDMDL
MODEL 2
REMARK VINA RESULT:      -8.0      2.763      7.757
REMARK  Name = 
REMARK  6 active torsions:
REMARK  status: ('A' for Active; 'I' for Inactive)
REMARK    1  A    between atoms: C_1  and  O_2
REMARK    2  A    between atoms: O_2  and  C_3
REMARK    3  A    between atoms: C_7  and  O_8
REMARK    4  A    between atoms: O_8  and  C_9
REMARK    5  A    between atoms: C_10  and  C_11
REMARK    6  A    between atoms: C_16  and  C_17
REMARK                            x       y       z     vdW  Elec       q    Type
REMARK                         _______ _______ _______ _____ _____    ______ ____
ROOT
ATOM      1  C   UNL     1       4.789   4.712  18.612  0.00  0.00    +0.000 C 
ATOM      2  C   UNL     1       5.777   5.173  19.397  0.00  0.00    +0.000 C 
ATOM      3  C   UNL     1       7.059   5.612  18.795  0.00  0.00    +0.000 C 
ATOM      4  O   UNL     1       7.960   6.004  19.524  0.00  0.00    +0.000 OA
ATOM      5  C   UNL     1       7.154   5.654  17.288  0.00  0.00    +0.000 C 
ATOM      6  C   UNL     1       6.342   4.511  16.659  0.00  0.00    +0.000 C 
ATOM      7  C   UNL     1       4.885   4.523  17.119  0.00  0.00    +0.000 C 
ENDROOT
BRANCH   6   8
ATOM      8  C   UNL     1       6.470   4.549  15.153  0.00  0.00    +0.000 A 
ATOM      9  C   UNL     1       7.499   5.292  14.519  0.00  0.00    +0.000 A 
ATOM     10  C   UNL     1       7.772   5.127  13.160  0.00  0.00    +0.000 A 
ATOM     11  C   UNL     1       7.026   4.191  12.483  0.00  0.00    +0.000 A 
ATOM     12  C   UNL     1       5.976   3.525  13.074  0.00  0.00    +0.000 A 
ATOM     13  C   UNL     1       5.644   3.709  14.393  0.00  0.00    +0.000 A 
ATOM     14  O   UNL     1       5.422   2.597  12.246  0.00  0.00    +0.000 OA
ATOM     15  C   UNL     1       6.463   2.536  11.253  0.00  0.00    +0.000 C 
ATOM     16  O   UNL     1       7.262   3.737  11.220  0.00  0.00    +0.000 OA
ENDBRANCH   6   8
BRANCH   1  22
ATOM     17  C   UNL     1       2.581   5.387  19.589  0.00  0.00    +0.000 A 
ATOM     18  C   UNL     1       1.371   5.033  20.207  0.00  0.00    +0.000 A 
ATOM     19  C   UNL     1       1.048   3.704  20.442  0.00  0.00    +0.000 A 
ATOM     20  C   UNL     1       1.960   2.709  20.110  0.00  0.00    +0.000 A 
ATOM     21  C   UNL     1       3.183   3.026  19.504  0.00  0.00    +0.000 A 
ATOM     22  C   UNL     1       3.493   4.375  19.198  0.00  0.00    +0.000 A 
BRANCH  17  24
ATOM     23  C   UNL     1       2.506   7.518  18.462  0.00  0.00    +0.000 C 
ATOM     24  O   UNL     1       2.777   6.746  19.616  0.00  0.00    +0.000 OA
ENDBRANCH  17  24
BRANCH  21  25
ATOM     25  O   UNL     1       4.046   1.955  19.489  0.00  0.00    +0.000 OA
ATOM     26  C   UNL     1       4.814   1.661  20.645  0.00  0.00    +0.000 C 
ENDBRANCH  21  25
ENDBRANCH   1  22
TORSDOF 4
ENDMDL
MODEL 3
REMARK VINA RESULT:      -7.9      2.710      7.583
REMARK  Name = 
REMARK  6 active torsions:
REMARK  status: ('A' for Active; 'I' for Inactive)
REMARK    1  A    between atoms: C_1  and  O_2
REMARK    2  A    between atoms: O_2  and  C_3
REMARK    3  A    between atoms: C_7  and  O_8
REMARK    4  A    between atoms: O_8  and  C_9
REMARK    5  A    between atoms: C_10  and  C_11
REMARK    6  A    between atoms: C_16  and  C_17
REMARK                            x       y       z     vdW  Elec       q    Type
REMARK                         _______ _______ _______ _____ _____    ______ ____
ROOT
ATOM      1  C   UNL     1       4.980   4.798  18.888  0.00  0.00    +0.000 C 
ATOM      2  C   UNL     1       6.037   5.122  19.651  0.00  0.00    +0.000 C 
ATOM      3  C   UNL     1       7.337   5.446  19.017  0.00  0.00    +0.000 C 
ATOM      4  O   UNL     1       8.299   5.713  19.725  0.00  0.00    +0.000 OA
ATOM      5  C   UNL     1       7.386   5.535  17.510  0.00  0.00    +0.000 C 
ATOM      6  C   UNL     1       6.436   4.509  16.872  0.00  0.00    +0.000 C 
ATOM      7  C   UNL     1       5.005   4.657  17.387  0.00  0.00    +0.000 C 
ENDROOT
BRANCH   6   8
ATOM      8  C   UNL     1       6.517   4.591  15.365  0.00  0.00    +0.000 A 
ATOM      9  C   UNL     1       7.546   5.325  14.721  0.00  0.00    +0.000 A 
ATOM     10  C   UNL     1       7.770   5.195  13.349  0.00  0.00    +0.000 A 
ATOM     11  C   UNL     1       6.977   4.302  12.668  0.00  0.00    +0.000 A 
ATOM     12  C   UNL     1       5.927   3.646  13.273  0.00  0.00    +0.000 A 
ATOM     13  C   UNL     1       5.643   3.798  14.608  0.00  0.00    +0.000 A 
ATOM     14  O   UNL     1       5.321   2.761  12.436  0.00  0.00    +0.000 OA
ATOM     15  C   UNL     1       6.328   2.702  11.408  0.00  0.00    +0.000 C 
ATOM     16  O   UNL     1       7.159   3.881  11.385  0.00  0.00    +0.000 OA
ENDBRANCH   6   8
BRANCH   1  22
ATOM     17  C   UNL     1       3.197   3.267  19.761  0.00  0.00    +0.000 A 
ATOM     18  C   UNL     1       1.914   3.086  20.302  0.00  0.00    +0.000 A 
ATOM     19  C   UNL     1       1.100   4.172  20.598  0.00  0.00    +0.000 A 
ATOM     20  C   UNL     1       1.541   5.456  20.304  0.00  0.00    +0.000 A 
ATOM     21  C   UNL     1       2.811   5.674  19.752  0.00  0.00    +0.000 A 
ATOM     22  C   UNL     1       3.676   4.577  19.510  0.00  0.00    +0.000 A 
BRANCH  17  24
ATOM     23  C   UNL     1       3.410   1.499  18.135  0.00  0.00    +0.000 C 
ATOM     24  O   UNL     1       3.753   2.070  19.383  0.00  0.00    +0.000 OA
ENDBRANCH  17  24
BRANCH  21  25
ATOM     25  O   UNL     1       2.964   6.964  19.298  0.00  0.00    +0.000 OA
ATOM     26  C   UNL     1       2.374   7.344  18.065  0.00  0.00    +0.000 C 
ENDBRANCH  21  25
ENDBRANCH   1  22
TORSDOF 4
ENDMDL
MODEL 4
REMARK VINA RESULT:      -7.6      0.396      2.555
REMARK  Name = 
REMARK  6 active torsions:
REMARK  status: ('A' for Active; 'I' for Inactive)
REMARK    1  A    between atoms: C_1  and  O_2
REMARK    2  A    between atoms: O_2  and  C_3
REMARK    3  A    between atoms: C_7  and  O_8
REMARK    4  A    between atoms: O_8  and  C_9
REMARK    5  A    between atoms: C_10  and  C_11
REMARK    6  A    between atoms: C_16  and  C_17
REMARK                            x       y       z     vdW  Elec       q    Type
REMARK                         _______ _______ _______ _____ _____    ______ ____
ROOT
ATOM      1  C   UNL     1       3.914   4.739  19.301  0.00  0.00    +0.000 C 
ATOM      2  C   UNL     1       3.584   3.774  20.176  0.00  0.00    +0.000 C 
ATOM      3  C   UNL     1       2.443   3.971  21.102  0.00  0.00    +0.000 C 
ATOM      4  O   UNL     1       2.170   3.094  21.911  0.00  0.00    +0.000 OA
ATOM      5  C   UNL     1       1.598   5.211  20.928  0.00  0.00    +0.000 C 
ATOM      6  C   UNL     1       2.462   6.401  20.483  0.00  0.00    +0.000 C 
ATOM      7  C   UNL     1       3.253   6.091  19.213  0.00  0.00    +0.000 C 
ENDROOT
BRANCH   6   8
ATOM      8  C   UNL     1       1.608   7.641  20.341  0.00  0.00    +0.000 A 
ATOM      9  C   UNL     1       0.801   8.106  21.411  0.00  0.00    +0.000 A 
ATOM     10  C   UNL     1       0.217   9.373  21.373  0.00  0.00    +0.000 A 
ATOM     11  C   UNL     1       0.490  10.153  20.273  0.00  0.00    +0.000 A 
ATOM     12  C   UNL     1       1.208   9.676  19.198  0.00  0.00    +0.000 A 
ATOM     13  C   UNL     1       1.745   8.414  19.180  0.00  0.00    +0.000 A 
ATOM     14  O   UNL     1       1.419  10.635  18.253  0.00  0.00    +0.000 OA
ATOM     15  C   UNL     1       1.069  11.794  19.032  0.00  0.00    +0.000 C 
ATOM     16  O   UNL     1       0.190  11.474  20.131  0.00  0.00    +0.000 OA
ENDBRANCH   6   8
BRANCH   1  22
ATOM     17  C   UNL     1       6.322   4.833  18.610  0.00  0.00    +0.000 A 
ATOM     18  C   UNL     1       7.308   4.651  17.627  0.00  0.00    +0.000 A 
ATOM     19  C   UNL     1       6.987   4.151  16.373  0.00  0.00    +0.000 A 
ATOM     20  C   UNL     1       5.660   3.875  16.066  0.00  0.00    +0.000 A 
ATOM     21  C   UNL     1       4.648   4.055  17.018  0.00  0.00    +0.000 A 
ATOM     22  C   UNL     1       4.974   4.502  18.323  0.00  0.00    +0.000 A 
BRANCH  17  24
ATOM     23  C   UNL     1       8.191   5.852  19.744  0.00  0.00    +0.000 C 
ATOM     24  O   UNL     1       6.821   5.499  19.702  0.00  0.00    +0.000 OA
ENDBRANCH  17  24
BRANCH  21  25
ATOM     25  O   UNL     1       3.392   3.979  16.460  0.00  0.00    +0.000 OA
ATOM     26  C   UNL     1       2.477   3.003  16.932  0.00  0.00    +0.000 C 
ENDBRANCH  21  25
ENDBRANCH   1  22
TORSDOF 4
ENDMDL
MODEL 5
REMARK VINA RESULT:      -7.6      3.544      8.978
REMARK  Name = 
REMARK  6 active torsions:
REMARK  status: ('A' for Active; 'I' for Inactive)
REMARK    1  A    between atoms: C_1  and  O_2
REMARK    2  A    between atoms: O_2  and  C_3
REMARK    3  A    between atoms: C_7  and  O_8
REMARK    4  A    between atoms: O_8  and  C_9
REMARK    5  A    between atoms: C_10  and  C_11
REMARK    6  A    between atoms: C_16  and  C_17
REMARK                            x       y       z     vdW  Elec       q    Type
REMARK                         _______ _______ _______ _____ _____    ______ ____
ROOT
ATOM      1  C   UNL     1      -1.366  11.606  18.448  0.00  0.00    +0.000 C 
ATOM      2  C   UNL     1      -0.694  12.766  18.352  0.00  0.00    +0.000 C 
ATOM      3  C   UNL     1       0.776  12.789  18.542  0.00  0.00    +0.000 C 
ATOM      4  O   UNL     1       1.372  13.856  18.479  0.00  0.00    +0.000 OA
ATOM      5  C   UNL     1       1.489  11.466  18.702  0.00  0.00    +0.000 C 
ATOM      6  C   UNL     1       0.613  10.465  19.472  0.00  0.00    +0.000 C 
ATOM      7  C   UNL     1      -0.755  10.278  18.815  0.00  0.00    +0.000 C 
ENDROOT
BRANCH   6   8
ATOM      8  C   UNL     1       1.350   9.157  19.648  0.00  0.00    +0.000 A 
ATOM      9  C   UNL     1       1.175   8.363  20.811  0.00  0.00    +0.000 A 
ATOM     10  C   UNL     1       1.649   7.051  20.863  0.00  0.00    +0.000 A 
ATOM     11  C   UNL     1       2.255   6.560  19.731  0.00  0.00    +0.000 A 
ATOM     12  C   UNL     1       2.496   7.351  18.629  0.00  0.00    +0.000 A 
ATOM     13  C   UNL     1       2.096   8.662  18.569  0.00  0.00    +0.000 A 
ATOM     14  O   UNL     1       3.042   6.647  17.599  0.00  0.00    +0.000 OA
ATOM     15  C   UNL     1       2.769   5.314  18.072  0.00  0.00    +0.000 C 
ATOM     16  O   UNL     1       2.603   5.263  19.505  0.00  0.00    +0.000 OA
ENDBRANCH   6   8
BRANCH   1  22
ATOM     17  C   UNL     1      -3.279  11.247  16.869  0.00  0.00    +0.000 A 
ATOM     18  C   UNL     1      -4.658  11.282  16.608  0.00  0.00    +0.000 A 
ATOM     19  C   UNL     1      -5.566  11.632  17.598  0.00  0.00    +0.000 A 
ATOM     20  C   UNL     1      -5.099  12.004  18.853  0.00  0.00    +0.000 A 
ATOM     21  C   UNL     1      -3.729  11.992  19.145  0.00  0.00    +0.000 A 
ATOM     22  C   UNL     1      -2.799  11.571  18.161  0.00  0.00    +0.000 A 
BRANCH  17  24
ATOM     23  C   UNL     1      -3.049  10.180  14.717  0.00  0.00    +0.000 C 
ATOM     24  O   UNL     1      -2.558  11.054  15.716  0.00  0.00    +0.000 OA
ENDBRANCH  17  24
BRANCH  21  25
ATOM     25  O   UNL     1      -3.447  12.628  20.332  0.00  0.00    +0.000 OA
ATOM     26  C   UNL     1      -4.503  12.930  21.230  0.00  0.00    +0.000 C 
ENDBRANCH  21  25
ENDBRANCH   1  22
TORSDOF 4
ENDMDL
MODEL 6
REMARK VINA RESULT:      -7.4      3.474      9.084
REMARK  Name = 
REMARK  6 active torsions:
REMARK  status: ('A' for Active; 'I' for Inactive)
REMARK    1  A    between atoms: C_1  and  O_2
REMARK    2  A    between atoms: O_2  and  C_3
REMARK    3  A    between atoms: C_7  and  O_8
REMARK    4  A    between atoms: O_8  and  C_9
REMARK    5  A    between atoms: C_10  and  C_11
REMARK    6  A    between atoms: C_16  and  C_17
REMARK                            x       y       z     vdW  Elec       q    Type
REMARK                         _______ _______ _______ _____ _____    ______ ____
ROOT
ATOM      1  C   UNL     1      -1.275  11.718  18.415  0.00  0.00    +0.000 C 
ATOM      2  C   UNL     1      -0.574  12.861  18.329  0.00  0.00    +0.000 C 
ATOM      3  C   UNL     1       0.893  12.849  18.540  0.00  0.00    +0.000 C 
ATOM      4  O   UNL     1       1.515  13.902  18.484  0.00  0.00    +0.000 OA
ATOM      5  C   UNL     1       1.573  11.510  18.708  0.00  0.00    +0.000 C 
ATOM      6  C   UNL     1       0.663  10.530  19.466  0.00  0.00    +0.000 C 
ATOM      7  C   UNL     1      -0.699  10.375  18.791  0.00  0.00    +0.000 C 
ENDROOT
BRANCH   6   8
ATOM      8  C   UNL     1       1.367   9.205  19.652  0.00  0.00    +0.000 A 
ATOM      9  C   UNL     1       1.152   8.413  20.809  0.00  0.00    +0.000 A 
ATOM     10  C   UNL     1       1.595   7.090  20.867  0.00  0.00    +0.000 A 
ATOM     11  C   UNL     1       2.210   6.589  19.744  0.00  0.00    +0.000 A 
ATOM     12  C   UNL     1       2.491   7.376  18.649  0.00  0.00    +0.000 A 
ATOM     13  C   UNL     1       2.121   8.696  18.585  0.00  0.00    +0.000 A 
ATOM     14  O   UNL     1       3.039   6.662  17.627  0.00  0.00    +0.000 OA
ATOM     15  C   UNL     1       2.727   5.335  18.091  0.00  0.00    +0.000 C 
ATOM     16  O   UNL     1       2.533   5.284  19.520  0.00  0.00    +0.000 OA
ENDBRANCH   6   8
BRANCH   1  22
ATOM     17  C   UNL     1      -3.664  12.056  19.094  0.00  0.00    +0.000 A 
ATOM     18  C   UNL     1      -5.032  11.985  18.787  0.00  0.00    +0.000 A 
ATOM     19  C   UNL     1      -5.465  11.585  17.530  0.00  0.00    +0.000 A 
ATOM     20  C   UNL     1      -4.531  11.199  16.576  0.00  0.00    +0.000 A 
ATOM     21  C   UNL     1      -3.158  11.246  16.851  0.00  0.00    +0.000 A 
ATOM     22  C   UNL     1      -2.703  11.716  18.109  0.00  0.00    +0.000 A 
BRANCH  17  24
ATOM     23  C   UNL     1      -3.419  13.628  20.906  0.00  0.00    +0.000 C 
ATOM     24  O   UNL     1      -3.464  12.297  20.431  0.00  0.00    +0.000 OA
ENDBRANCH  17  24
BRANCH  21  25
ATOM     25  O   UNL     1      -2.416  10.591  15.895  0.00  0.00    +0.000 OA
ATOM     26  C   UNL     1      -3.054  10.123  14.717  0.00  0.00    +0.000 C 
ENDBRANCH  21  25
ENDBRANCH   1  22
TORSDOF 4
ENDMDL
MODEL 7
REMARK VINA RESULT:      -7.3      0.960      1.498
REMARK  Name = 
REMARK  6 active torsions:
REMARK  status: ('A' for Active; 'I' for Inactive)
REMARK    1  A    between atoms: C_1  and  O_2
REMARK    2  A    between atoms: O_2  and  C_3
REMARK    3  A    between atoms: C_7  and  O_8
REMARK    4  A    between atoms: O_8  and  C_9
REMARK    5  A    between atoms: C_10  and  C_11
REMARK    6  A    between atoms: C_16  and  C_17
REMARK                            x       y       z     vdW  Elec       q    Type
REMARK                         _______ _______ _______ _____ _____    ______ ____
ROOT
ATOM      1  C   UNL     1       3.686   5.324  18.807  0.00  0.00    +0.000 C 
ATOM      2  C   UNL     1       3.355   4.479  19.799  0.00  0.00    +0.000 C 
ATOM      3  C   UNL     1       2.316   4.861  20.783  0.00  0.00    +0.000 C 
ATOM      4  O   UNL     1       2.044   4.093  21.696  0.00  0.00    +0.000 OA
ATOM      5  C   UNL     1       1.558   6.147  20.548  0.00  0.00    +0.000 C 
ATOM      6  C   UNL     1       2.472   7.210  19.920  0.00  0.00    +0.000 C 
ATOM      7  C   UNL     1       3.127   6.713  18.631  0.00  0.00    +0.000 C 
ENDROOT
BRANCH   6   8
ATOM      8  C   UNL     1       1.708   8.499  19.717  0.00  0.00    +0.000 A 
ATOM      9  C   UNL     1       1.361   8.953  18.418  0.00  0.00    +0.000 A 
ATOM     10  C   UNL     1       0.448   9.994  18.241  0.00  0.00    +0.000 A 
ATOM     11  C   UNL     1      -0.119  10.527  19.375  0.00  0.00    +0.000 A 
ATOM     12  C   UNL     1       0.273  10.144  20.639  0.00  0.00    +0.000 A 
ATOM     13  C   UNL     1       1.212   9.164  20.847  0.00  0.00    +0.000 A 
ATOM     14  O   UNL     1      -0.464  10.746  21.612  0.00  0.00    +0.000 OA
ATOM     15  C   UNL     1      -1.546  11.238  20.799  0.00  0.00    +0.000 C 
ATOM     16  O   UNL     1      -1.165  11.399  19.416  0.00  0.00    +0.000 OA
ENDBRANCH   6   8
BRANCH   1  22
ATOM     17  C   UNL     1       4.243   4.053  16.721  0.00  0.00    +0.000 A 
ATOM     18  C   UNL     1       5.196   3.616  15.786  0.00  0.00    +0.000 A 
ATOM     19  C   UNL     1       6.525   4.005  15.882  0.00  0.00    +0.000 A 
ATOM     20  C   UNL     1       6.930   4.796  16.950  0.00  0.00    +0.000 A 
ATOM     21  C   UNL     1       6.010   5.240  17.908  0.00  0.00    +0.000 A 
ATOM     22  C   UNL     1       4.638   4.904  17.782  0.00  0.00    +0.000 A 
BRANCH  17  24
ATOM     23  C   UNL     1       2.762   2.229  17.269  0.00  0.00    +0.000 C 
ATOM     24  O   UNL     1       3.041   3.412  16.545  0.00  0.00    +0.000 OA
ENDBRANCH  17  24
BRANCH  21  25
ATOM     25  O   UNL     1       6.630   5.784  19.009  0.00  0.00    +0.000 OA
ATOM     26  C   UNL     1       7.932   6.333  18.877  0.00  0.00    +0.000 C 
ENDBRANCH  21  25
ENDBRANCH   1  22
TORSDOF 4
ENDMDL
MODEL 8
REMARK VINA RESULT:      -7.2      1.208      2.952
REMARK  Name = 
REMARK  6 active torsions:
REMARK  status: ('A' for Active; 'I' for Inactive)
REMARK    1  A    between atoms: C_1  and  O_2
REMARK    2  A    between atoms: O_2  and  C_3
REMARK    3  A    between atoms: C_7  and  O_8
REMARK    4  A    between atoms: O_8  and  C_9
REMARK    5  A    between atoms: C_10  and  C_11
REMARK    6  A    between atoms: C_16  and  C_17
REMARK                            x       y       z     vdW  Elec       q    Type
REMARK                         _______ _______ _______ _____ _____    ______ ____
ROOT
ATOM      1  C   UNL     1       3.788   5.338  18.722  0.00  0.00    +0.000 C 
ATOM      2  C   UNL     1       3.477   4.543  19.760  0.00  0.00    +0.000 C 
ATOM      3  C   UNL     1       2.430   4.957  20.724  0.00  0.00    +0.000 C 
ATOM      4  O   UNL     1       2.175   4.236  21.679  0.00  0.00    +0.000 OA
ATOM      5  C   UNL     1       1.645   6.212  20.419  0.00  0.00    +0.000 C 
ATOM      6  C   UNL     1       2.537   7.258  19.731  0.00  0.00    +0.000 C 
ATOM      7  C   UNL     1       3.200   6.703  18.470  0.00  0.00    +0.000 C 
ENDROOT
BRANCH   6   8
ATOM      8  C   UNL     1       1.746   8.518  19.458  0.00  0.00    +0.000 A 
ATOM      9  C   UNL     1       1.448   8.927  18.133  0.00  0.00    +0.000 A 
ATOM     10  C   UNL     1       0.514   9.935  17.885  0.00  0.00    +0.000 A 
ATOM     11  C   UNL     1      -0.121  10.479  18.977  0.00  0.00    +0.000 A 
ATOM     12  C   UNL     1       0.221  10.140  20.267  0.00  0.00    +0.000 A 
ATOM     13  C   UNL     1       1.177   9.195  20.545  0.00  0.00    +0.000 A 
ATOM     14  O   UNL     1      -0.579  10.744  21.189  0.00  0.00    +0.000 OA
ATOM     15  C   UNL     1      -1.635  11.182  20.313  0.00  0.00    +0.000 C 
ATOM     16  O   UNL     1      -1.193  11.319  18.946  0.00  0.00    +0.000 OA
ENDBRANCH   6   8
BRANCH   1  22
ATOM     17  C   UNL     1       5.998   5.528  17.556  0.00  0.00    +0.000 A 
ATOM     18  C   UNL     1       6.874   5.106  16.542  0.00  0.00    +0.000 A 
ATOM     19  C   UNL     1       6.536   4.062  15.692  0.00  0.00    +0.000 A 
ATOM     20  C   UNL     1       5.290   3.458  15.812  0.00  0.00    +0.000 A 
ATOM     21  C   UNL     1       4.386   3.862  16.804  0.00  0.00    +0.000 A 
ATOM     22  C   UNL     1       4.748   4.882  17.720  0.00  0.00    +0.000 A 
BRANCH  17  24
ATOM     23  C   UNL     1       7.505   7.412  17.568  0.00  0.00    +0.000 C 
ATOM     24  O   UNL     1       6.448   6.678  18.156  0.00  0.00    +0.000 OA
ENDBRANCH  17  24
BRANCH  21  25
ATOM     25  O   UNL     1       3.130   3.338  16.604  0.00  0.00    +0.000 OA
ATOM     26  C   UNL     1       2.720   2.203  17.351  0.00  0.00    +0.000 C 
ENDBRANCH  21  25
ENDBRANCH   1  22
TORSDOF 4
ENDMDL
MODEL 9
REMARK VINA RESULT:      -7.2      2.953      7.514
REMARK  Name = 
REMARK  6 active torsions:
REMARK  status: ('A' for Active; 'I' for Inactive)
REMARK    1  A    between atoms: C_1  and  O_2
REMARK    2  A    between atoms: O_2  and  C_3
REMARK    3  A    between atoms: C_7  and  O_8
REMARK    4  A    between atoms: O_8  and  C_9
REMARK    5  A    between atoms: C_10  and  C_11
REMARK    6  A    between atoms: C_16  and  C_17
REMARK                            x       y       z     vdW  Elec       q    Type
REMARK                         _______ _______ _______ _____ _____    ______ ____
ROOT
ATOM      1  C   UNL     1       4.776   4.605  18.572  0.00  0.00    +0.000 C 
ATOM      2  C   UNL     1       5.678   5.162  19.398  0.00  0.00    +0.000 C 
ATOM      3  C   UNL     1       6.994   5.599  18.874  0.00  0.00    +0.000 C 
ATOM      4  O   UNL     1       7.816   6.080  19.643  0.00  0.00    +0.000 OA
ATOM      5  C   UNL     1       7.220   5.527  17.381  0.00  0.00    +0.000 C 
ATOM      6  C   UNL     1       6.500   4.309  16.780  0.00  0.00    +0.000 C 
ATOM      7  C   UNL     1       5.008   4.304  17.113  0.00  0.00    +0.000 C 
ENDROOT
BRANCH   6   8
ATOM      8  C   UNL     1       6.758   4.234  15.292  0.00  0.00    +0.000 A 
ATOM      9  C   UNL     1       5.897   3.506  14.431  0.00  0.00    +0.000 A 
ATOM     10  C   UNL     1       5.984   3.643  13.045  0.00  0.00    +0.000 A 
ATOM     11  C   UNL     1       6.911   4.537  12.563  0.00  0.00    +0.000 A 
ATOM     12  C   UNL     1       7.801   5.186  13.390  0.00  0.00    +0.000 A 
ATOM     13  C   UNL     1       7.780   5.027  14.753  0.00  0.00    +0.000 A 
ATOM     14  O   UNL     1       8.581   6.074  12.713  0.00  0.00    +0.000 OA
ATOM     15  C   UNL     1       7.829   6.140  11.487  0.00  0.00    +0.000 C 
ATOM     16  O   UNL     1       7.020   4.964  11.274  0.00  0.00    +0.000 OA
ENDBRANCH   6   8
BRANCH   1  22
ATOM     17  C   UNL     1       2.504   5.279  19.386  0.00  0.00    +0.000 A 
ATOM     18  C   UNL     1       1.255   4.926  19.923  0.00  0.00    +0.000 A 
ATOM     19  C   UNL     1       0.923   3.597  20.151  0.00  0.00    +0.000 A 
ATOM     20  C   UNL     1       1.860   2.604  19.895  0.00  0.00    +0.000 A 
ATOM     21  C   UNL     1       3.121   2.921  19.371  0.00  0.00    +0.000 A 
ATOM     22  C   UNL     1       3.445   4.268  19.071  0.00  0.00    +0.000 A 
BRANCH  17  24
ATOM     23  C   UNL     1       2.533   7.391  18.222  0.00  0.00    +0.000 C 
ATOM     24  O   UNL     1       2.690   6.639  19.410  0.00  0.00    +0.000 OA
ENDBRANCH  17  24
BRANCH  21  25
ATOM     25  O   UNL     1       3.988   1.854  19.428  0.00  0.00    +0.000 OA
ATOM     26  C   UNL     1       4.752   1.639  20.604  0.00  0.00    +0.000 C 
ENDBRANCH  21  25
ENDBRANCH   1  22
TORSDOF 4
ENDMDL
