MODEL 1
REMARK VINA RESULT:      -9.2      0.000      0.000
REMARK  Name = 
REMARK  7 active torsions:
REMARK  status: ('A' for Active; 'I' for Inactive)
REMARK    1  A    between atoms: C_2  and  C_3
REMARK    2  A    between atoms: C_2  and  C_10
REMARK    3  A    between atoms: N_13  and  C_14
REMARK    4  A    between atoms: C_14  and  C_15
REMARK    5  A    between atoms: C_15  and  C_16
REMARK    6  A    between atoms: N_20  and  S_21
REMARK    7  A    between atoms: S_21  and  C_24
REMARK                            x       y       z     vdW  Elec       q    Type
REMARK                         _______ _______ _______ _____ _____    ______ ____
ROOT
ATOM      1  C   UNL     1       2.519   4.756  20.312  0.00  0.00    +0.000 C 
ATOM      2  C   UNL     1       2.521   3.732  21.443  0.00  0.00    +0.000 C 
ATOM      3  C   UNL     1       1.159   3.069  21.319  0.00  0.00    +0.000 C 
ATOM      4  C   UNL     1       0.827   3.105  19.828  0.00  0.00    +0.000 C 
ATOM      5  N   UNL     1       1.846   4.003  19.185  0.00  0.00    +0.000 NA
ENDROOT
BRANCH   5   6
ATOM      6  S   UNL     1       2.950   3.199  18.127  0.00  0.00    +0.000 S 
ATOM      7  O   UNL     1       3.492   2.044  18.815  0.00  0.00    +0.000 OA
ATOM      8  O   UNL     1       2.299   3.057  16.842  0.00  0.00    +0.000 OA
BRANCH   6   9
ATOM      9  C   UNL     1       4.291   4.359  17.944  0.00  0.00    +0.000 A 
ATOM     10  C   UNL     1       4.172   5.366  16.985  0.00  0.00    +0.000 A 
ATOM     11  C   UNL     1       5.178   6.330  16.845  0.00  0.00    +0.000 A 
ATOM     12  C   UNL     1       6.301   6.291  17.696  0.00  0.00    +0.000 A 
ATOM     13  C   UNL     1       7.468   7.095  17.827  0.00  0.00    +0.000 A 
ATOM     14  C   UNL     1       8.208   6.591  18.871  0.00  0.00    +0.000 A 
ATOM     15  N   UNL     1       7.540   5.507  19.376  0.00  0.00    +0.000 N 
ATOM     16  C   UNL     1       6.383   5.284  18.662  0.00  0.00    +0.000 A 
ATOM     17  C   UNL     1       5.398   4.294  18.808  0.00  0.00    +0.000 A 
ATOM     18  H   UNL     1       7.843   4.955  20.168  0.00  0.00    +0.000 HD
ENDBRANCH   6   9
ENDBRANCH   5   6
BRANCH   1  19
ATOM     19  C   UNL     1       1.686   6.020  20.625  0.00  0.00    +0.000 C 
BRANCH  19  20
ATOM     20  C   UNL     1       1.942   7.218  19.691  0.00  0.00    +0.000 C 
BRANCH  20  24
ATOM     21  C   UNL     1       0.333  10.990  21.149  0.00  0.00    +0.000 C 
ATOM     22  C   UNL     1       1.131  10.888  19.847  0.00  0.00    +0.000 C 
ATOM     23  C   UNL     1       1.189   9.493  19.243  0.00  0.00    +0.000 C 
ATOM     24  N   UNL     1       1.603   8.526  20.270  0.00  0.00    +0.000 NA
ATOM     25  C   UNL     1       0.503   8.395  21.233  0.00  0.00    +0.000 C 
ATOM     26  C   UNL     1       0.293   9.702  21.991  0.00  0.00    +0.000 C 
BRANCH  21  28
ATOM     27  O   UNL     1      -1.762  11.291  19.968  0.00  0.00    +0.000 OA
ATOM     28  C   UNL     1      -1.071  11.565  20.947  0.00  0.00    +0.000 C 
BRANCH  28  29
ATOM     29  C   UNL     1      -1.622  12.480  22.010  0.00  0.00    +0.000 A 
ATOM     30  C   UNL     1      -2.970  12.370  22.381  0.00  0.00    +0.000 A 
ATOM     31  C   UNL     1      -3.473  13.136  23.438  0.00  0.00    +0.000 A 
ATOM     32  C   UNL     1      -2.632  14.012  24.118  0.00  0.00    +0.000 A 
ATOM     33  F   UNL     1      -3.100  14.710  25.160  0.00  0.00    +0.000 F 
ATOM     34  C   UNL     1      -1.308  14.167  23.738  0.00  0.00    +0.000 A 
ATOM     35  C   UNL     1      -0.807  13.411  22.677  0.00  0.00    +0.000 A 
ENDBRANCH  28  29
ENDBRANCH  21  28
ENDBRANCH  20  24
ENDBRANCH  19  20
ENDBRANCH   1  19
TORSDOF 7
ENDMDL
MODEL 2
REMARK VINA RESULT:      -9.2      0.794      1.162
REMARK  Name = 
REMARK  7 active torsions:
REMARK  status: ('A' for Active; 'I' for Inactive)
REMARK    1  A    between atoms: C_2  and  C_3
REMARK    2  A    between atoms: C_2  and  C_10
REMARK    3  A    between atoms: N_13  and  C_14
REMARK    4  A    between atoms: C_14  and  C_15
REMARK    5  A    between atoms: C_15  and  C_16
REMARK    6  A    between atoms: N_20  and  S_21
REMARK    7  A    between atoms: S_21  and  C_24
REMARK                            x       y       z     vdW  Elec       q    Type
REMARK                         _______ _______ _______ _____ _____    ______ ____
ROOT
ATOM      1  C   UNL     1       2.647   4.516  20.396  0.00  0.00    +0.000 C 
ATOM      2  C   UNL     1       2.635   3.375  21.407  0.00  0.00    +0.000 C 
ATOM      3  C   UNL     1       1.248   2.775  21.242  0.00  0.00    +0.000 C 
ATOM      4  C   UNL     1       0.889   2.987  19.772  0.00  0.00    +0.000 C 
ATOM      5  N   UNL     1       1.927   3.915  19.208  0.00  0.00    +0.000 NA
ENDROOT
BRANCH   5   6
ATOM      6  S   UNL     1       2.981   3.196  18.044  0.00  0.00    +0.000 S 
ATOM      7  O   UNL     1       3.563   2.001  18.622  0.00  0.00    +0.000 OA
ATOM      8  O   UNL     1       2.268   3.139  16.786  0.00  0.00    +0.000 OA
BRANCH   6   9
ATOM      9  C   UNL     1       4.306   4.378  17.877  0.00  0.00    +0.000 A 
ATOM     10  C   UNL     1       4.159   5.413  16.952  0.00  0.00    +0.000 A 
ATOM     11  C   UNL     1       5.152   6.393  16.827  0.00  0.00    +0.000 A 
ATOM     12  C   UNL     1       6.289   6.340  17.659  0.00  0.00    +0.000 A 
ATOM     13  C   UNL     1       7.449   7.154  17.797  0.00  0.00    +0.000 A 
ATOM     14  C   UNL     1       8.211   6.626  18.812  0.00  0.00    +0.000 A 
ATOM     15  N   UNL     1       7.564   5.518  19.293  0.00  0.00    +0.000 N 
ATOM     16  C   UNL     1       6.398   5.304  18.591  0.00  0.00    +0.000 A 
ATOM     17  C   UNL     1       5.427   4.298  18.720  0.00  0.00    +0.000 A 
ATOM     18  H   UNL     1       7.887   4.945  20.061  0.00  0.00    +0.000 HD
ENDBRANCH   6   9
ENDBRANCH   5   6
BRANCH   1  19
ATOM     19  C   UNL     1       1.866   5.765  20.864  0.00  0.00    +0.000 C 
BRANCH  19  20
ATOM     20  C   UNL     1       2.096   7.033  20.020  0.00  0.00    +0.000 C 
BRANCH  20  24
ATOM     21  C   UNL     1      -0.432  10.497  20.767  0.00  0.00    +0.000 C 
ATOM     22  C   UNL     1      -0.299   9.347  21.768  0.00  0.00    +0.000 C 
ATOM     23  C   UNL     1       0.949   8.494  21.598  0.00  0.00    +0.000 C 
ATOM     24  N   UNL     1       1.074   8.075  20.195  0.00  0.00    +0.000 NA
ATOM     25  C   UNL     1       1.406   9.263  19.399  0.00  0.00    +0.000 C 
ATOM     26  C   UNL     1       0.248  10.257  19.406  0.00  0.00    +0.000 C 
BRANCH  21  28
ATOM     27  O   UNL     1       1.101  12.310  21.249  0.00  0.00    +0.000 OA
ATOM     28  C   UNL     1      -0.036  11.853  21.354  0.00  0.00    +0.000 C 
BRANCH  28  29
ATOM     29  C   UNL     1      -1.095  12.655  22.063  0.00  0.00    +0.000 A 
ATOM     30  C   UNL     1      -2.444  12.453  21.738  0.00  0.00    +0.000 A 
ATOM     31  C   UNL     1      -3.447  13.111  22.458  0.00  0.00    +0.000 A 
ATOM     32  C   UNL     1      -3.102  13.970  23.496  0.00  0.00    +0.000 A 
ATOM     33  F   UNL     1      -4.061  14.563  24.218  0.00  0.00    +0.000 F 
ATOM     34  C   UNL     1      -1.773  14.217  23.805  0.00  0.00    +0.000 A 
ATOM     35  C   UNL     1      -0.771  13.570  23.080  0.00  0.00    +0.000 A 
ENDBRANCH  28  29
ENDBRANCH  21  28
ENDBRANCH  20  24
ENDBRANCH  19  20
ENDBRANCH   1  19
TORSDOF 7
ENDMDL
MODEL 3
REMARK VINA RESULT:      -9.1      1.035      1.552
REMARK  Name = 
REMARK  7 active torsions:
REMARK  status: ('A' for Active; 'I' for Inactive)
REMARK    1  A    between atoms: C_2  and  C_3
REMARK    2  A    between atoms: C_2  and  C_10
REMARK    3  A    between atoms: N_13  and  C_14
REMARK    4  A    between atoms: C_14  and  C_15
REMARK    5  A    between atoms: C_15  and  C_16
REMARK    6  A    between atoms: N_20  and  S_21
REMARK    7  A    between atoms: S_21  and  C_24
REMARK                            x       y       z     vdW  Elec       q    Type
REMARK                         _______ _______ _______ _____ _____    ______ ____
ROOT
ATOM      1  C   UNL     1       2.579   5.078  20.070  0.00  0.00    +0.000 C 
ATOM      2  C   UNL     1       2.469   4.269  21.358  0.00  0.00    +0.000 C 
ATOM      3  C   UNL     1       1.254   3.388  21.118  0.00  0.00    +0.000 C 
ATOM      4  C   UNL     1       1.237   3.125  19.613  0.00  0.00    +0.000 C 
ATOM      5  N   UNL     1       2.252   4.052  19.006  0.00  0.00    +0.000 NA
ENDROOT
BRANCH   5   6
ATOM      6  S   UNL     1       3.640   3.267  18.344  0.00  0.00    +0.000 S 
ATOM      7  O   UNL     1       4.266   2.477  19.386  0.00  0.00    +0.000 OA
ATOM      8  O   UNL     1       3.243   2.660  17.091  0.00  0.00    +0.000 OA
BRANCH   6   9
ATOM      9  C   UNL     1       4.759   4.608  17.981  0.00  0.00    +0.000 A 
ATOM     10  C   UNL     1       4.403   5.517  16.984  0.00  0.00    +0.000 A 
ATOM     11  C   UNL     1       5.227   6.615  16.703  0.00  0.00    +0.000 A 
ATOM     12  C   UNL     1       6.405   6.808  17.452  0.00  0.00    +0.000 A 
ATOM     13  C   UNL     1       7.434   7.792  17.436  0.00  0.00    +0.000 A 
ATOM     14  C   UNL     1       8.326   7.480  18.435  0.00  0.00    +0.000 A 
ATOM     15  N   UNL     1       7.883   6.341  19.055  0.00  0.00    +0.000 N 
ATOM     16  C   UNL     1       6.724   5.893  18.460  0.00  0.00    +0.000 A 
ATOM     17  C   UNL     1       5.926   4.774  18.745  0.00  0.00    +0.000 A 
ATOM     18  H   UNL     1       8.333   5.897  19.844  0.00  0.00    +0.000 HD
ENDBRANCH   6   9
ENDBRANCH   5   6
BRANCH   1  19
ATOM     19  C   UNL     1       1.552   6.229  19.975  0.00  0.00    +0.000 C 
BRANCH  19  20
ATOM     20  C   UNL     1       2.016   7.568  20.581  0.00  0.00    +0.000 C 
BRANCH  20  24
ATOM     21  C   UNL     1      -0.759  10.656  21.890  0.00  0.00    +0.000 C 
ATOM     22  C   UNL     1      -0.062   9.710  22.871  0.00  0.00    +0.000 C 
ATOM     23  C   UNL     1       1.201   9.052  22.334  0.00  0.00    +0.000 C 
ATOM     24  N   UNL     1       0.924   8.448  21.023  0.00  0.00    +0.000 NA
ATOM     25  C   UNL     1       0.716   9.537  20.062  0.00  0.00    +0.000 C 
ATOM     26  C   UNL     1      -0.547  10.321  20.402  0.00  0.00    +0.000 C 
BRANCH  21  28
ATOM     27  O   UNL     1       0.520  12.708  21.731  0.00  0.00    +0.000 OA
ATOM     28  C   UNL     1      -0.472  12.132  22.173  0.00  0.00    +0.000 C 
BRANCH  28  29
ATOM     29  C   UNL     1      -1.466  12.900  23.005  0.00  0.00    +0.000 A 
ATOM     30  C   UNL     1      -1.163  14.211  23.400  0.00  0.00    +0.000 A 
ATOM     31  C   UNL     1      -2.115  14.977  24.082  0.00  0.00    +0.000 A 
ATOM     32  C   UNL     1      -3.362  14.432  24.371  0.00  0.00    +0.000 A 
ATOM     33  F   UNL     1      -4.290  15.180  24.980  0.00  0.00    +0.000 F 
ATOM     34  C   UNL     1      -3.665  13.124  24.028  0.00  0.00    +0.000 A 
ATOM     35  C   UNL     1      -2.712  12.355  23.357  0.00  0.00    +0.000 A 
ENDBRANCH  28  29
ENDBRANCH  21  28
ENDBRANCH  20  24
ENDBRANCH  19  20
ENDBRANCH   1  19
TORSDOF 7
ENDMDL
MODEL 4
REMARK VINA RESULT:      -9.0      2.216      2.950
REMARK  Name = 
REMARK  7 active torsions:
REMARK  status: ('A' for Active; 'I' for Inactive)
REMARK    1  A    between atoms: C_2  and  C_3
REMARK    2  A    between atoms: C_2  and  C_10
REMARK    3  A    between atoms: N_13  and  C_14
REMARK    4  A    between atoms: C_14  and  C_15
REMARK    5  A    between atoms: C_15  and  C_16
REMARK    6  A    between atoms: N_20  and  S_21
REMARK    7  A    between atoms: S_21  and  C_24
REMARK                            x       y       z     vdW  Elec       q    Type
REMARK                         _______ _______ _______ _____ _____    ______ ____
ROOT
ATOM      1  C   UNL     1       2.597   4.497  20.341  0.00  0.00    +0.000 C 
ATOM      2  C   UNL     1       2.609   3.383  21.383  0.00  0.00    +0.000 C 
ATOM      3  C   UNL     1       1.238   2.744  21.231  0.00  0.00    +0.000 C 
ATOM      4  C   UNL     1       0.878   2.907  19.754  0.00  0.00    +0.000 C 
ATOM      5  N   UNL     1       1.896   3.846  19.168  0.00  0.00    +0.000 NA
ENDROOT
BRANCH   5   6
ATOM      6  S   UNL     1       2.971   3.122  18.027  0.00  0.00    +0.000 S 
ATOM      7  O   UNL     1       3.543   1.930  18.621  0.00  0.00    +0.000 OA
ATOM      8  O   UNL     1       2.280   3.057  16.756  0.00  0.00    +0.000 OA
BRANCH   6   9
ATOM      9  C   UNL     1       4.297   4.304  17.878  0.00  0.00    +0.000 A 
ATOM     10  C   UNL     1       4.164   5.337  16.948  0.00  0.00    +0.000 A 
ATOM     11  C   UNL     1       5.158   6.317  16.836  0.00  0.00    +0.000 A 
ATOM     12  C   UNL     1       6.282   6.268  17.685  0.00  0.00    +0.000 A 
ATOM     13  C   UNL     1       7.439   7.083  17.840  0.00  0.00    +0.000 A 
ATOM     14  C   UNL     1       8.186   6.558  18.868  0.00  0.00    +0.000 A 
ATOM     15  N   UNL     1       7.532   5.451  19.342  0.00  0.00    +0.000 N 
ATOM     16  C   UNL     1       6.377   5.234  18.622  0.00  0.00    +0.000 A 
ATOM     17  C   UNL     1       5.405   4.228  18.738  0.00  0.00    +0.000 A 
ATOM     18  H   UNL     1       7.843   4.880  20.116  0.00  0.00    +0.000 HD
ENDBRANCH   6   9
ENDBRANCH   5   6
BRANCH   1  19
ATOM     19  C   UNL     1       1.783   5.738  20.773  0.00  0.00    +0.000 C 
BRANCH  19  20
ATOM     20  C   UNL     1       2.116   7.034  20.010  0.00  0.00    +0.000 C 
BRANCH  20  24
ATOM     21  C   UNL     1      -0.346  10.551  20.733  0.00  0.00    +0.000 C 
ATOM     22  C   UNL     1      -0.319   9.357  21.691  0.00  0.00    +0.000 C 
ATOM     23  C   UNL     1       0.910   8.469  21.569  0.00  0.00    +0.000 C 
ATOM     24  N   UNL     1       1.118   8.104  20.160  0.00  0.00    +0.000 NA
ATOM     25  C   UNL     1       1.542   9.311  19.442  0.00  0.00    +0.000 C 
ATOM     26  C   UNL     1       0.419  10.343  19.414  0.00  0.00    +0.000 C 
BRANCH  21  28
ATOM     27  O   UNL     1      -0.060  12.051  22.615  0.00  0.00    +0.000 OA
ATOM     28  C   UNL     1       0.053  11.867  21.404  0.00  0.00    +0.000 C 
BRANCH  28  29
ATOM     29  C   UNL     1       0.625  12.959  20.539  0.00  0.00    +0.000 A 
ATOM     30  C   UNL     1       2.012  13.170  20.526  0.00  0.00    +0.000 A 
ATOM     31  C   UNL     1       2.572  14.108  19.651  0.00  0.00    +0.000 A 
ATOM     32  C   UNL     1       1.748  14.833  18.796  0.00  0.00    +0.000 A 
ATOM     33  F   UNL     1       2.286  15.695  17.925  0.00  0.00    +0.000 F 
ATOM     34  C   UNL     1       0.371  14.670  18.825  0.00  0.00    +0.000 A 
ATOM     35  C   UNL     1      -0.190  13.743  19.705  0.00  0.00    +0.000 A 
ENDBRANCH  28  29
ENDBRANCH  21  28
ENDBRANCH  20  24
ENDBRANCH  19  20
ENDBRANCH   1  19
TORSDOF 7
ENDMDL
MODEL 5
REMARK VINA RESULT:      -8.7      1.059      1.626
REMARK  Name = 
REMARK  7 active torsions:
REMARK  status: ('A' for Active; 'I' for Inactive)
REMARK    1  A    between atoms: C_2  and  C_3
REMARK    2  A    between atoms: C_2  and  C_10
REMARK    3  A    between atoms: N_13  and  C_14
REMARK    4  A    between atoms: C_14  and  C_15
REMARK    5  A    between atoms: C_15  and  C_16
REMARK    6  A    between atoms: N_20  and  S_21
REMARK    7  A    between atoms: S_21  and  C_24
REMARK                            x       y       z     vdW  Elec       q    Type
REMARK                         _______ _______ _______ _____ _____    ______ ____
ROOT
ATOM      1  C   UNL     1       2.678   4.606  20.416  0.00  0.00    +0.000 C 
ATOM      2  C   UNL     1       2.476   3.342  21.245  0.00  0.00    +0.000 C 
ATOM      3  C   UNL     1       1.093   2.868  20.831  0.00  0.00    +0.000 C 
ATOM      4  C   UNL     1       0.936   3.301  19.374  0.00  0.00    +0.000 C 
ATOM      5  N   UNL     1       2.086   4.222  19.077  0.00  0.00    +0.000 NA
ENDROOT
BRANCH   5   6
ATOM      6  S   UNL     1       3.241   3.595  17.956  0.00  0.00    +0.000 S 
ATOM      7  O   UNL     1       3.614   2.259  18.375  0.00  0.00    +0.000 OA
ATOM      8  O   UNL     1       2.733   3.839  16.623  0.00  0.00    +0.000 OA
BRANCH   6   9
ATOM      9  C   UNL     1       4.676   4.625  18.199  0.00  0.00    +0.000 A 
ATOM     10  C   UNL     1       5.656   4.197  19.097  0.00  0.00    +0.000 A 
ATOM     11  C   UNL     1       6.824   4.949  19.278  0.00  0.00    +0.000 A 
ATOM     12  C   UNL     1       7.015   6.127  18.528  0.00  0.00    +0.000 A 
ATOM     13  C   UNL     1       8.056   7.095  18.460  0.00  0.00    +0.000 A 
ATOM     14  C   UNL     1       7.704   8.022  17.508  0.00  0.00    +0.000 A 
ATOM     15  N   UNL     1       6.484   7.660  16.998  0.00  0.00    +0.000 N 
ATOM     16  C   UNL     1       6.027   6.519  17.621  0.00  0.00    +0.000 A 
ATOM     17  C   UNL     1       4.838   5.794  17.438  0.00  0.00    +0.000 A 
ATOM     18  H   UNL     1       5.993   8.150  16.263  0.00  0.00    +0.000 HD
ENDBRANCH   6   9
ENDBRANCH   5   6
BRANCH   1  19
ATOM     19  C   UNL     1       1.910   5.831  20.961  0.00  0.00    +0.000 C 
BRANCH  19  20
ATOM     20  C   UNL     1       2.029   7.108  20.107  0.00  0.00    +0.000 C 
BRANCH  20  24
ATOM     21  C   UNL     1      -0.474  10.521  21.126  0.00  0.00    +0.000 C 
ATOM     22  C   UNL     1      -0.206   9.378  22.108  0.00  0.00    +0.000 C 
ATOM     23  C   UNL     1       1.034   8.551  21.802  0.00  0.00    +0.000 C 
ATOM     24  N   UNL     1       1.011   8.130  20.393  0.00  0.00    +0.000 NA
ATOM     25  C   UNL     1       1.226   9.321  19.564  0.00  0.00    +0.000 C 
ATOM     26  C   UNL     1       0.056  10.290  19.699  0.00  0.00    +0.000 C 
BRANCH  21  28
ATOM     27  O   UNL     1       1.075  12.355  21.457  0.00  0.00    +0.000 OA
ATOM     28  C   UNL     1      -0.043  11.887  21.663  0.00  0.00    +0.000 C 
BRANCH  28  29
ATOM     29  C   UNL     1      -1.047  12.688  22.452  0.00  0.00    +0.000 A 
ATOM     30  C   UNL     1      -2.276  12.105  22.794  0.00  0.00    +0.000 A 
ATOM     31  C   UNL     1      -3.176  12.792  23.614  0.00  0.00    +0.000 A 
ATOM     32  C   UNL     1      -2.850  14.059  24.088  0.00  0.00    +0.000 A 
ATOM     33  F   UNL     1      -3.689  14.698  24.913  0.00  0.00    +0.000 F 
ATOM     34  C   UNL     1      -1.659  14.670  23.727  0.00  0.00    +0.000 A 
ATOM     35  C   UNL     1      -0.765  13.990  22.899  0.00  0.00    +0.000 A 
ENDBRANCH  28  29
ENDBRANCH  21  28
ENDBRANCH  20  24
ENDBRANCH  19  20
ENDBRANCH   1  19
TORSDOF 7
ENDMDL
MODEL 6
REMARK VINA RESULT:      -8.6      3.233      4.051
REMARK  Name = 
REMARK  7 active torsions:
REMARK  status: ('A' for Active; 'I' for Inactive)
REMARK    1  A    between atoms: C_2  and  C_3
REMARK    2  A    between atoms: C_2  and  C_10
REMARK    3  A    between atoms: N_13  and  C_14
REMARK    4  A    between atoms: C_14  and  C_15
REMARK    5  A    between atoms: C_15  and  C_16
REMARK    6  A    between atoms: N_20  and  S_21
REMARK    7  A    between atoms: S_21  and  C_24
REMARK                            x       y       z     vdW  Elec       q    Type
REMARK                         _______ _______ _______ _____ _____    ______ ____
ROOT
ATOM      1  C   UNL     1       2.950   5.367  19.986  0.00  0.00    +0.000 C 
ATOM      2  C   UNL     1       2.075   4.513  20.898  0.00  0.00    +0.000 C 
ATOM      3  C   UNL     1       0.984   4.009  19.967  0.00  0.00    +0.000 C 
ATOM      4  C   UNL     1       1.649   3.884  18.597  0.00  0.00    +0.000 C 
ATOM      5  N   UNL     1       2.988   4.556  18.709  0.00  0.00    +0.000 NA
ENDROOT
BRANCH   5   6
ATOM      6  S   UNL     1       4.341   3.488  18.601  0.00  0.00    +0.000 S 
ATOM      7  O   UNL     1       5.183   3.689  19.764  0.00  0.00    +0.000 OA
ATOM      8  O   UNL     1       3.835   2.173  18.271  0.00  0.00    +0.000 OA
BRANCH   6   9
ATOM      9  C   UNL     1       5.257   4.097  17.198  0.00  0.00    +0.000 A 
ATOM     10  C   UNL     1       6.124   5.175  17.387  0.00  0.00    +0.000 A 
ATOM     11  C   UNL     1       6.902   5.651  16.325  0.00  0.00    +0.000 A 
ATOM     12  C   UNL     1       6.822   5.018  15.067  0.00  0.00    +0.000 A 
ATOM     13  C   UNL     1       7.460   5.232  13.813  0.00  0.00    +0.000 A 
ATOM     14  C   UNL     1       7.008   4.266  12.944  0.00  0.00    +0.000 A 
ATOM     15  N   UNL     1       6.115   3.476  13.620  0.00  0.00    +0.000 N 
ATOM     16  C   UNL     1       5.962   3.927  14.913  0.00  0.00    +0.000 A 
ATOM     17  C   UNL     1       5.156   3.445  15.958  0.00  0.00    +0.000 A 
ATOM     18  H   UNL     1       5.643   2.671  13.231  0.00  0.00    +0.000 HD
ENDBRANCH   6   9
ENDBRANCH   5   6
BRANCH   1  19
ATOM     19  C   UNL     1       2.343   6.753  19.670  0.00  0.00    +0.000 C 
BRANCH  19  20
ATOM     20  C   UNL     1       1.494   7.367  20.800  0.00  0.00    +0.000 C 
BRANCH  20  24
ATOM     21  C   UNL     1       0.206  11.484  20.223  0.00  0.00    +0.000 C 
ATOM     22  C   UNL     1       0.996  10.716  19.162  0.00  0.00    +0.000 C 
ATOM     23  C   UNL     1       0.938   9.201  19.294  0.00  0.00    +0.000 C 
ATOM     24  N   UNL     1       1.265   8.813  20.674  0.00  0.00    +0.000 NA
ATOM     25  C   UNL     1       0.155   9.238  21.535  0.00  0.00    +0.000 C 
ATOM     26  C   UNL     1       0.055  10.760  21.574  0.00  0.00    +0.000 C 
BRANCH  21  28
ATOM     27  O   UNL     1      -1.732  12.940  20.236  0.00  0.00    +0.000 OA
ATOM     28  C   UNL     1      -1.144  11.994  19.714  0.00  0.00    +0.000 C 
BRANCH  28  29
ATOM     29  C   UNL     1      -1.749  11.318  18.512  0.00  0.00    +0.000 A 
ATOM     30  C   UNL     1      -2.397  10.085  18.671  0.00  0.00    +0.000 A 
ATOM     31  C   UNL     1      -3.057   9.493  17.588  0.00  0.00    +0.000 A 
ATOM     32  C   UNL     1      -3.065  10.130  16.351  0.00  0.00    +0.000 A 
ATOM     33  F   UNL     1      -3.736   9.589  15.328  0.00  0.00    +0.000 F 
ATOM     34  C   UNL     1      -2.394  11.328  16.163  0.00  0.00    +0.000 A 
ATOM     35  C   UNL     1      -1.726  11.915  17.239  0.00  0.00    +0.000 A 
ENDBRANCH  28  29
ENDBRANCH  21  28
ENDBRANCH  20  24
ENDBRANCH  19  20
ENDBRANCH   1  19
TORSDOF 7
ENDMDL
MODEL 7
REMARK VINA RESULT:      -8.5      3.896     10.651
REMARK  Name = 
REMARK  7 active torsions:
REMARK  status: ('A' for Active; 'I' for Inactive)
REMARK    1  A    between atoms: C_2  and  C_3
REMARK    2  A    between atoms: C_2  and  C_10
REMARK    3  A    between atoms: N_13  and  C_14
REMARK    4  A    between atoms: C_14  and  C_15
REMARK    5  A    between atoms: C_15  and  C_16
REMARK    6  A    between atoms: N_20  and  S_21
REMARK    7  A    between atoms: S_21  and  C_24
REMARK                            x       y       z     vdW  Elec       q    Type
REMARK                         _______ _______ _______ _____ _____    ______ ____
ROOT
ATOM      1  C   UNL     1       0.845   9.658  20.399  0.00  0.00    +0.000 C 
ATOM      2  C   UNL     1       1.492   9.797  19.026  0.00  0.00    +0.000 C 
ATOM      3  C   UNL     1       0.320   9.660  18.069  0.00  0.00    +0.000 C 
ATOM      4  C   UNL     1      -0.881  10.239  18.816  0.00  0.00    +0.000 C 
ATOM      5  N   UNL     1      -0.442  10.439  20.239  0.00  0.00    +0.000 NA
ENDROOT
BRANCH   5   6
ATOM      6  S   UNL     1      -0.322  12.090  20.732  0.00  0.00    +0.000 S 
ATOM      7  O   UNL     1       0.597  12.175  21.849  0.00  0.00    +0.000 OA
ATOM      8  O   UNL     1      -0.116  12.887  19.541  0.00  0.00    +0.000 OA
BRANCH   6   9
ATOM      9  C   UNL     1      -1.942  12.464  21.376  0.00  0.00    +0.000 A 
ATOM     10  C   UNL     1      -2.901  12.981  20.502  0.00  0.00    +0.000 A 
ATOM     11  C   UNL     1      -4.201  13.238  20.954  0.00  0.00    +0.000 A 
ATOM     12  C   UNL     1      -4.543  12.948  22.291  0.00  0.00    +0.000 A 
ATOM     13  C   UNL     1      -5.738  13.074  23.053  0.00  0.00    +0.000 A 
ATOM     14  C   UNL     1      -5.482  12.592  24.315  0.00  0.00    +0.000 A 
ATOM     15  N   UNL     1      -4.174  12.181  24.352  0.00  0.00    +0.000 N 
ATOM     16  C   UNL     1      -3.568  12.410  23.136  0.00  0.00    +0.000 A 
ATOM     17  C   UNL     1      -2.252  12.164  22.712  0.00  0.00    +0.000 A 
ATOM     18  H   UNL     1      -3.720  11.760  25.152  0.00  0.00    +0.000 HD
ENDBRANCH   6   9
ENDBRANCH   5   6
BRANCH   1  19
ATOM     19  C   UNL     1       0.493   8.200  20.771  0.00  0.00    +0.000 C 
BRANCH  19  20
ATOM     20  C   UNL     1       1.703   7.266  20.966  0.00  0.00    +0.000 C 
BRANCH  20  24
ATOM     21  C   UNL     1       2.072   3.510  18.798  0.00  0.00    +0.000 C 
ATOM     22  C   UNL     1       1.723   4.828  18.102  0.00  0.00    +0.000 C 
ATOM     23  C   UNL     1       2.109   6.079  18.876  0.00  0.00    +0.000 C 
ATOM     24  N   UNL     1       1.604   5.984  20.253  0.00  0.00    +0.000 NA
ATOM     25  C   UNL     1       2.380   4.948  20.945  0.00  0.00    +0.000 C 
ATOM     26  C   UNL     1       2.107   3.575  20.336  0.00  0.00    +0.000 C 
BRANCH  21  28
ATOM     27  O   UNL     1       3.469   1.635  18.159  0.00  0.00    +0.000 OA
ATOM     28  C   UNL     1       3.338   2.855  18.242  0.00  0.00    +0.000 C 
BRANCH  28  29
ATOM     29  C   UNL     1       4.448   3.753  17.760  0.00  0.00    +0.000 A 
ATOM     30  C   UNL     1       5.375   4.258  18.684  0.00  0.00    +0.000 A 
ATOM     31  C   UNL     1       6.472   5.006  18.242  0.00  0.00    +0.000 A 
ATOM     32  C   UNL     1       6.638   5.251  16.883  0.00  0.00    +0.000 A 
ATOM     33  F   UNL     1       7.713   5.925  16.455  0.00  0.00    +0.000 F 
ATOM     34  C   UNL     1       5.710   4.798  15.958  0.00  0.00    +0.000 A 
ATOM     35  C   UNL     1       4.609   4.061  16.398  0.00  0.00    +0.000 A 
ENDBRANCH  28  29
ENDBRANCH  21  28
ENDBRANCH  20  24
ENDBRANCH  19  20
ENDBRANCH   1  19
TORSDOF 7
ENDMDL
MODEL 8
REMARK VINA RESULT:      -8.5      4.198     11.081
REMARK  Name = 
REMARK  7 active torsions:
REMARK  status: ('A' for Active; 'I' for Inactive)
REMARK    1  A    between atoms: C_2  and  C_3
REMARK    2  A    between atoms: C_2  and  C_10
REMARK    3  A    between atoms: N_13  and  C_14
REMARK    4  A    between atoms: C_14  and  C_15
REMARK    5  A    between atoms: C_15  and  C_16
REMARK    6  A    between atoms: N_20  and  S_21
REMARK    7  A    between atoms: S_21  and  C_24
REMARK                            x       y       z     vdW  Elec       q    Type
REMARK                         _______ _______ _______ _____ _____    ______ ____
ROOT
ATOM      1  C   UNL     1       0.561  10.118  20.717  0.00  0.00    +0.000 C 
ATOM      2  C   UNL     1       1.236  10.311  19.364  0.00  0.00    +0.000 C 
ATOM      3  C   UNL     1       0.122  10.026  18.371  0.00  0.00    +0.000 C 
ATOM      4  C   UNL     1      -1.163  10.472  19.067  0.00  0.00    +0.000 C 
ATOM      5  N   UNL     1      -0.801  10.741  20.500  0.00  0.00    +0.000 NA
ENDROOT
BRANCH   5   6
ATOM      6  S   UNL     1      -0.890  12.402  20.966  0.00  0.00    +0.000 S 
ATOM      7  O   UNL     1       0.152  12.667  21.938  0.00  0.00    +0.000 OA
ATOM      8  O   UNL     1      -0.993  13.190  19.757  0.00  0.00    +0.000 OA
BRANCH   6   9
ATOM      9  C   UNL     1      -2.441  12.520  21.838  0.00  0.00    +0.000 A 
ATOM     10  C   UNL     1      -2.431  12.411  23.230  0.00  0.00    +0.000 A 
ATOM     11  C   UNL     1      -3.619  12.551  23.957  0.00  0.00    +0.000 A 
ATOM     12  C   UNL     1      -4.823  12.827  23.276  0.00  0.00    +0.000 A 
ATOM     13  C   UNL     1      -6.168  13.031  23.694  0.00  0.00    +0.000 A 
ATOM     14  C   UNL     1      -6.917  13.303  22.573  0.00  0.00    +0.000 A 
ATOM     15  N   UNL     1      -6.080  13.266  21.488  0.00  0.00    +0.000 N 
ATOM     16  C   UNL     1      -4.799  12.953  21.884  0.00  0.00    +0.000 A 
ATOM     17  C   UNL     1      -3.624  12.795  21.131  0.00  0.00    +0.000 A 
ATOM     18  H   UNL     1      -6.359  13.453  20.534  0.00  0.00    +0.000 HD
ENDBRANCH   6   9
ENDBRANCH   5   6
BRANCH   1  19
ATOM     19  C   UNL     1       0.366   8.634  21.104  0.00  0.00    +0.000 C 
BRANCH  19  20
ATOM     20  C   UNL     1       1.647   7.778  21.072  0.00  0.00    +0.000 C 
BRANCH  20  24
ATOM     21  C   UNL     1       2.086   4.227  18.592  0.00  0.00    +0.000 C 
ATOM     22  C   UNL     1       2.337   5.639  18.056  0.00  0.00    +0.000 C 
ATOM     23  C   UNL     1       2.621   6.685  19.123  0.00  0.00    +0.000 C 
ATOM     24  N   UNL     1       1.586   6.623  20.165  0.00  0.00    +0.000 NA
ATOM     25  C   UNL     1       1.773   5.371  20.908  0.00  0.00    +0.000 C 
ATOM     26  C   UNL     1       1.497   4.167  20.014  0.00  0.00    +0.000 C 
BRANCH  21  28
ATOM     27  O   UNL     1       3.337   2.184  18.951  0.00  0.00    +0.000 OA
ATOM     28  C   UNL     1       3.301   3.309  18.456  0.00  0.00    +0.000 C 
BRANCH  28  29
ATOM     29  C   UNL     1       4.481   3.807  17.663  0.00  0.00    +0.000 A 
ATOM     30  C   UNL     1       5.588   4.341  18.338  0.00  0.00    +0.000 A 
ATOM     31  C   UNL     1       6.735   4.711  17.626  0.00  0.00    +0.000 A 
ATOM     32  C   UNL     1       6.772   4.550  16.245  0.00  0.00    +0.000 A 
ATOM     33  F   UNL     1       7.885   4.858  15.568  0.00  0.00    +0.000 F 
ATOM     34  C   UNL     1       5.672   4.064  15.554  0.00  0.00    +0.000 A 
ATOM     35  C   UNL     1       4.524   3.706  16.261  0.00  0.00    +0.000 A 
ENDBRANCH  28  29
ENDBRANCH  21  28
ENDBRANCH  20  24
ENDBRANCH  19  20
ENDBRANCH   1  19
TORSDOF 7
ENDMDL
MODEL 9
REMARK VINA RESULT:      -8.5      2.930      3.683
REMARK  Name = 
REMARK  7 active torsions:
REMARK  status: ('A' for Active; 'I' for Inactive)
REMARK    1  A    between atoms: C_2  and  C_3
REMARK    2  A    between atoms: C_2  and  C_10
REMARK    3  A    between atoms: N_13  and  C_14
REMARK    4  A    between atoms: C_14  and  C_15
REMARK    5  A    between atoms: C_15  and  C_16
REMARK    6  A    between atoms: N_20  and  S_21
REMARK    7  A    between atoms: S_21  and  C_24
REMARK                            x       y       z     vdW  Elec       q    Type
REMARK                         _______ _______ _______ _____ _____    ______ ____
ROOT
ATOM      1  C   UNL     1       2.922   5.477  19.698  0.00  0.00    +0.000 C 
ATOM      2  C   UNL     1       2.165   4.779  20.823  0.00  0.00    +0.000 C 
ATOM      3  C   UNL     1       1.020   4.089  20.102  0.00  0.00    +0.000 C 
ATOM      4  C   UNL     1       1.567   3.737  18.719  0.00  0.00    +0.000 C 
ATOM      5  N   UNL     1       2.883   4.451  18.586  0.00  0.00    +0.000 NA
ENDROOT
BRANCH   5   6
ATOM      6  S   UNL     1       4.264   3.415  18.544  0.00  0.00    +0.000 S 
ATOM      7  O   UNL     1       5.053   3.646  19.737  0.00  0.00    +0.000 OA
ATOM      8  O   UNL     1       3.803   2.086  18.206  0.00  0.00    +0.000 OA
BRANCH   6   9
ATOM      9  C   UNL     1       5.222   4.035  17.173  0.00  0.00    +0.000 A 
ATOM     10  C   UNL     1       6.130   5.067  17.410  0.00  0.00    +0.000 A 
ATOM     11  C   UNL     1       6.940   5.547  16.373  0.00  0.00    +0.000 A 
ATOM     12  C   UNL     1       6.850   4.962  15.094  0.00  0.00    +0.000 A 
ATOM     13  C   UNL     1       7.511   5.193  13.855  0.00  0.00    +0.000 A 
ATOM     14  C   UNL     1       7.029   4.279  12.947  0.00  0.00    +0.000 A 
ATOM     15  N   UNL     1       6.096   3.504  13.584  0.00  0.00    +0.000 N 
ATOM     16  C   UNL     1       5.947   3.915  14.891  0.00  0.00    +0.000 A 
ATOM     17  C   UNL     1       5.108   3.431  15.909  0.00  0.00    +0.000 A 
ATOM     18  H   UNL     1       5.595   2.733  13.163  0.00  0.00    +0.000 HD
ENDBRANCH   6   9
ENDBRANCH   5   6
BRANCH   1  19
ATOM     19  C   UNL     1       2.234   6.768  19.200  0.00  0.00    +0.000 C 
BRANCH  19  20
ATOM     20  C   UNL     1       1.474   7.561  20.281  0.00  0.00    +0.000 C 
BRANCH  20  24
ATOM     21  C   UNL     1       0.957  11.792  19.399  0.00  0.00    +0.000 C 
ATOM     22  C   UNL     1       1.831  10.876  18.539  0.00  0.00    +0.000 C 
ATOM     23  C   UNL     1       1.523   9.392  18.672  0.00  0.00    +0.000 C 
ATOM     24  N   UNL     1       1.493   9.019  20.094  0.00  0.00    +0.000 NA
ATOM     25  C   UNL     1       0.302   9.633  20.693  0.00  0.00    +0.000 C 
ATOM     26  C   UNL     1       0.421  11.153  20.693  0.00  0.00    +0.000 C 
BRANCH  21  28
ATOM     27  O   UNL     1      -0.010  13.540  18.026  0.00  0.00    +0.000 OA
ATOM     28  C   UNL     1      -0.164  12.467  18.607  0.00  0.00    +0.000 C 
BRANCH  28  29
ATOM     29  C   UNL     1      -1.495  11.765  18.525  0.00  0.00    +0.000 A 
ATOM     30  C   UNL     1      -2.600  12.305  19.200  0.00  0.00    +0.000 A 
ATOM     31  C   UNL     1      -3.866  11.729  19.050  0.00  0.00    +0.000 A 
ATOM     32  C   UNL     1      -4.025  10.615  18.232  0.00  0.00    +0.000 A 
ATOM     33  F   UNL     1      -5.244  10.092  18.050  0.00  0.00    +0.000 F 
ATOM     34  C   UNL     1      -2.938  10.040  17.591  0.00  0.00    +0.000 A 
ATOM     35  C   UNL     1      -1.673  10.608  17.748  0.00  0.00    +0.000 A 
ENDBRANCH  28  29
ENDBRANCH  21  28
ENDBRANCH  20  24
ENDBRANCH  19  20
ENDBRANCH   1  19
TORSDOF 7
ENDMDL
