MODEL 1
REMARK VINA RESULT:      -7.0      0.000      0.000
REMARK  Name = 
REMARK  5 active torsions:
REMARK  status: ('A' for Active; 'I' for Inactive)
REMARK    1  A    between atoms: C_2  and  C_3
REMARK    2  A    between atoms: C_8  and  N_9
REMARK    3  A    between atoms: N_9  and  C_10
REMARK    4  A    between atoms: C_10  and  C_11
REMARK    5  A    between atoms: C_14  and  C_15
REMARK                            x       y       z     vdW  Elec       q    Type
REMARK                         _______ _______ _______ _____ _____    ______ ____
ROOT
ATOM      1  N   UNL     1       5.341   3.603  17.746  0.00  0.00    +0.000 N 
ATOM      2  H   UNL     1       5.943   3.180  18.451  0.00  0.00    +0.000 HD
ENDROOT
BRANCH   1   8
ATOM      3  C   UNL     1       3.557   2.928  19.285  0.00  0.00    +0.000 A 
ATOM      4  N   UNL     1       2.260   2.906  19.712  0.00  0.00    +0.000 NA
ATOM      5  C   UNL     1       1.392   3.599  18.950  0.00  0.00    +0.000 A 
ATOM      6  C   UNL     1       1.797   4.277  17.817  0.00  0.00    +0.000 A 
ATOM      7  N   UNL     1       3.087   4.294  17.394  0.00  0.00    +0.000 NA
ATOM      8  C   UNL     1       3.997   3.625  18.145  0.00  0.00    +0.000 A 
BRANCH   3  10
ATOM      9  N   UNL     1       5.227   1.568  20.727  0.00  0.00    +0.000 NA
ATOM     10  C   UNL     1       4.467   2.172  20.090  0.00  0.00    +0.000 C 
ENDBRANCH   3  10
ENDBRANCH   1   8
BRANCH   1  11
ATOM     11  C   UNL     1       5.916   4.874  17.285  0.00  0.00    +0.000 C 
BRANCH  11  12
ATOM     12  C   UNL     1       6.382   4.916  15.851  0.00  0.00    +0.000 A 
ATOM     13  N   UNL     1       7.570   5.434  15.517  0.00  0.00    +0.000 NA
ATOM     14  O   UNL     1       7.662   5.174  14.155  0.00  0.00    +0.000 OA
ATOM     15  C   UNL     1       6.518   4.516  13.788  0.00  0.00    +0.000 A 
ATOM     16  N   UNL     1       5.681   4.352  14.795  0.00  0.00    +0.000 NA
BRANCH  15  17
ATOM     17  C   UNL     1       6.354   3.987  12.367  0.00  0.00    +0.000 C 
ATOM     18  C   UNL     1       6.226   2.489  12.165  0.00  0.00    +0.000 C 
ATOM     19  C   UNL     1       5.067   3.375  11.865  0.00  0.00    +0.000 C 
ENDBRANCH  15  17
ENDBRANCH  11  12
ENDBRANCH   1  11
TORSDOF 5
ENDMDL
MODEL 2
REMARK VINA RESULT:      -6.9      1.046      1.046
REMARK  Name = 
REMARK  5 active torsions:
REMARK  status: ('A' for Active; 'I' for Inactive)
REMARK    1  A    between atoms: C_2  and  C_3
REMARK    2  A    between atoms: C_8  and  N_9
REMARK    3  A    between atoms: N_9  and  C_10
REMARK    4  A    between atoms: C_10  and  C_11
REMARK    5  A    between atoms: C_14  and  C_15
REMARK                            x       y       z     vdW  Elec       q    Type
REMARK                         _______ _______ _______ _____ _____    ______ ____
ROOT
ATOM      1  N   UNL     1       5.307   3.633  17.435  0.00  0.00    +0.000 N 
ATOM      2  H   UNL     1       5.597   2.770  17.891  0.00  0.00    +0.000 HD
ENDROOT
BRANCH   1   8
ATOM      3  C   UNL     1       3.926   3.874  19.446  0.00  0.00    +0.000 A 
ATOM      4  N   UNL     1       2.979   4.498  20.206  0.00  0.00    +0.000 NA
ATOM      5  C   UNL     1       2.427   5.594  19.650  0.00  0.00    +0.000 A 
ATOM      6  C   UNL     1       2.801   6.044  18.399  0.00  0.00    +0.000 A 
ATOM      7  N   UNL     1       3.741   5.419  17.645  0.00  0.00    +0.000 NA
ATOM      8  C   UNL     1       4.335   4.322  18.176  0.00  0.00    +0.000 A 
BRANCH   3  10
ATOM      9  N   UNL     1       4.922   1.735  20.518  0.00  0.00    +0.000 NA
ATOM     10  C   UNL     1       4.491   2.699  20.036  0.00  0.00    +0.000 C 
ENDBRANCH   3  10
ENDBRANCH   1   8
BRANCH   1  11
ATOM     11  C   UNL     1       6.483   4.403  17.009  0.00  0.00    +0.000 C 
BRANCH  11  12
ATOM     12  C   UNL     1       6.658   4.589  15.522  0.00  0.00    +0.000 A 
ATOM     13  N   UNL     1       7.604   5.396  15.026  0.00  0.00    +0.000 NA
ATOM     14  O   UNL     1       7.510   5.194  13.654  0.00  0.00    +0.000 OA
ATOM     15  C   UNL     1       6.513   4.279  13.445  0.00  0.00    +0.000 A 
ATOM     16  N   UNL     1       5.937   3.890  14.567  0.00  0.00    +0.000 NA
BRANCH  15  17
ATOM     17  C   UNL     1       6.228   3.755  12.041  0.00  0.00    +0.000 C 
ATOM     18  C   UNL     1       6.019   2.264  11.857  0.00  0.00    +0.000 C 
ATOM     19  C   UNL     1       4.883   3.201  11.631  0.00  0.00    +0.000 C 
ENDBRANCH  15  17
ENDBRANCH  11  12
ENDBRANCH   1  11
TORSDOF 5
ENDMDL
MODEL 3
REMARK VINA RESULT:      -6.7      1.610      2.550
REMARK  Name = 
REMARK  5 active torsions:
REMARK  status: ('A' for Active; 'I' for Inactive)
REMARK    1  A    between atoms: C_2  and  C_3
REMARK    2  A    between atoms: C_8  and  N_9
REMARK    3  A    between atoms: N_9  and  C_10
REMARK    4  A    between atoms: C_10  and  C_11
REMARK    5  A    between atoms: C_14  and  C_15
REMARK                            x       y       z     vdW  Elec       q    Type
REMARK                         _______ _______ _______ _____ _____    ______ ____
ROOT
ATOM      1  N   UNL     1       5.593   5.652  18.712  0.00  0.00    +0.000 N 
ATOM      2  H   UNL     1       5.154   6.342  18.105  0.00  0.00    +0.000 HD
ENDROOT
BRANCH   1   8
ATOM      3  C   UNL     1       3.344   5.023  19.457  0.00  0.00    +0.000 A 
ATOM      4  N   UNL     1       2.415   4.129  19.908  0.00  0.00    +0.000 NA
ATOM      5  C   UNL     1       2.864   2.870  20.078  0.00  0.00    +0.000 A 
ATOM      6  C   UNL     1       4.174   2.521  19.812  0.00  0.00    +0.000 A 
ATOM      7  N   UNL     1       5.095   3.414  19.366  0.00  0.00    +0.000 NA
ATOM      8  C   UNL     1       4.679   4.688  19.163  0.00  0.00    +0.000 A 
BRANCH   3  10
ATOM      9  N   UNL     1       2.459   7.439  19.149  0.00  0.00    +0.000 NA
ATOM     10  C   UNL     1       2.862   6.361  19.300  0.00  0.00    +0.000 C 
ENDBRANCH   3  10
ENDBRANCH   1   8
BRANCH   1  11
ATOM     11  C   UNL     1       6.832   5.153  18.100  0.00  0.00    +0.000 C 
BRANCH  11  12
ATOM     12  C   UNL     1       6.839   5.047  16.595  0.00  0.00    +0.000 A 
ATOM     13  N   UNL     1       7.432   5.973  15.833  0.00  0.00    +0.000 NA
ATOM     14  O   UNL     1       7.320   5.451  14.550  0.00  0.00    +0.000 OA
ATOM     15  C   UNL     1       6.670   4.250  14.654  0.00  0.00    +0.000 A 
ATOM     16  N   UNL     1       6.329   3.963  15.896  0.00  0.00    +0.000 NA
BRANCH  15  17
ATOM     17  C   UNL     1       6.484   3.363  13.427  0.00  0.00    +0.000 C 
ATOM     18  C   UNL     1       5.309   3.638  12.509  0.00  0.00    +0.000 C 
ATOM     19  C   UNL     1       6.698   3.861  12.017  0.00  0.00    +0.000 C 
ENDBRANCH  15  17
ENDBRANCH  11  12
ENDBRANCH   1  11
TORSDOF 5
ENDMDL
MODEL 4
REMARK VINA RESULT:      -6.7      1.901      2.080
REMARK  Name = 
REMARK  5 active torsions:
REMARK  status: ('A' for Active; 'I' for Inactive)
REMARK    1  A    between atoms: C_2  and  C_3
REMARK    2  A    between atoms: C_8  and  N_9
REMARK    3  A    between atoms: N_9  and  C_10
REMARK    4  A    between atoms: C_10  and  C_11
REMARK    5  A    between atoms: C_14  and  C_15
REMARK                            x       y       z     vdW  Elec       q    Type
REMARK                         _______ _______ _______ _____ _____    ______ ____
ROOT
ATOM      1  N   UNL     1       6.077   3.778  16.953  0.00  0.00    +0.000 N 
ATOM      2  H   UNL     1       6.626   3.178  17.566  0.00  0.00    +0.000 HD
ENDROOT
BRANCH   1   8
ATOM      3  C   UNL     1       5.067   5.033  18.801  0.00  0.00    +0.000 A 
ATOM      4  N   UNL     1       4.006   5.560  19.479  0.00  0.00    +0.000 NA
ATOM      5  C   UNL     1       2.798   5.325  18.929  0.00  0.00    +0.000 A 
ATOM      6  C   UNL     1       2.658   4.600  17.762  0.00  0.00    +0.000 A 
ATOM      7  N   UNL     1       3.716   4.075  17.091  0.00  0.00    +0.000 NA
ATOM      8  C   UNL     1       4.951   4.305  17.602  0.00  0.00    +0.000 A 
BRANCH   3  10
ATOM      9  N   UNL     1       7.369   5.445  19.918  0.00  0.00    +0.000 NA
ATOM     10  C   UNL     1       6.343   5.269  19.405  0.00  0.00    +0.000 C 
ENDBRANCH   3  10
ENDBRANCH   1   8
BRANCH   1  11
ATOM     11  C   UNL     1       6.952   4.734  16.262  0.00  0.00    +0.000 C 
BRANCH  11  12
ATOM     12  C   UNL     1       6.961   4.663  14.755  0.00  0.00    +0.000 A 
ATOM     13  N   UNL     1       7.746   5.463  14.023  0.00  0.00    +0.000 NA
ATOM     14  O   UNL     1       7.550   5.004  12.726  0.00  0.00    +0.000 OA
ATOM     15  C   UNL     1       6.663   3.963  12.792  0.00  0.00    +0.000 A 
ATOM     16  N   UNL     1       6.249   3.725  14.022  0.00  0.00    +0.000 NA
BRANCH  15  17
ATOM     17  C   UNL     1       6.317   3.162  11.540  0.00  0.00    +0.000 C 
ATOM     18  C   UNL     1       7.227   2.017  11.143  0.00  0.00    +0.000 C 
ATOM     19  C   UNL     1       5.835   1.732  11.591  0.00  0.00    +0.000 C 
ENDBRANCH  15  17
ENDBRANCH  11  12
ENDBRANCH   1  11
TORSDOF 5
ENDMDL
MODEL 5
REMARK VINA RESULT:      -6.7      1.411      1.529
REMARK  Name = 
REMARK  5 active torsions:
REMARK  status: ('A' for Active; 'I' for Inactive)
REMARK    1  A    between atoms: C_2  and  C_3
REMARK    2  A    between atoms: C_8  and  N_9
REMARK    3  A    between atoms: N_9  and  C_10
REMARK    4  A    between atoms: C_10  and  C_11
REMARK    5  A    between atoms: C_14  and  C_15
REMARK                            x       y       z     vdW  Elec       q    Type
REMARK                         _______ _______ _______ _____ _____    ______ ____
ROOT
ATOM      1  N   UNL     1       5.605   4.097  18.644  0.00  0.00    +0.000 N 
ATOM      2  H   UNL     1       6.218   3.685  19.345  0.00  0.00    +0.000 HD
ENDROOT
BRANCH   1   8
ATOM      3  C   UNL     1       3.338   3.363  19.215  0.00  0.00    +0.000 A 
ATOM      4  N   UNL     1       2.074   3.568  19.691  0.00  0.00    +0.000 NA
ATOM      5  C   UNL     1       1.809   4.826  20.095  0.00  0.00    +0.000 A 
ATOM      6  C   UNL     1       2.758   5.828  20.027  0.00  0.00    +0.000 A 
ATOM      7  N   UNL     1       4.012   5.620  19.552  0.00  0.00    +0.000 NA
ATOM      8  C   UNL     1       4.326   4.363  19.152  0.00  0.00    +0.000 A 
BRANCH   3  10
ATOM      9  N   UNL     1       3.789   0.946  18.395  0.00  0.00    +0.000 NA
ATOM     10  C   UNL     1       3.602   2.029  18.769  0.00  0.00    +0.000 C 
ENDBRANCH   3  10
ENDBRANCH   1   8
BRANCH   1  11
ATOM     11  C   UNL     1       6.289   5.202  17.959  0.00  0.00    +0.000 C 
BRANCH  11  12
ATOM     12  C   UNL     1       6.543   5.019  16.483  0.00  0.00    +0.000 A 
ATOM     13  N   UNL     1       7.501   5.706  15.849  0.00  0.00    +0.000 NA
ATOM     14  O   UNL     1       7.486   5.168  14.568  0.00  0.00    +0.000 OA
ATOM     15  C   UNL     1       6.517   4.200  14.544  0.00  0.00    +0.000 A 
ATOM     16  N   UNL     1       5.887   4.083  15.698  0.00  0.00    +0.000 NA
BRANCH  15  17
ATOM     17  C   UNL     1       6.320   3.336  13.303  0.00  0.00    +0.000 C 
ATOM     18  C   UNL     1       5.227   3.718  12.324  0.00  0.00    +0.000 C 
ATOM     19  C   UNL     1       6.655   3.814  11.910  0.00  0.00    +0.000 C 
ENDBRANCH  15  17
ENDBRANCH  11  12
ENDBRANCH   1  11
TORSDOF 5
ENDMDL
MODEL 6
REMARK VINA RESULT:      -6.6      2.970      6.226
REMARK  Name = 
REMARK  5 active torsions:
REMARK  status: ('A' for Active; 'I' for Inactive)
REMARK    1  A    between atoms: C_2  and  C_3
REMARK    2  A    between atoms: C_8  and  N_9
REMARK    3  A    between atoms: N_9  and  C_10
REMARK    4  A    between atoms: C_10  and  C_11
REMARK    5  A    between atoms: C_14  and  C_15
REMARK                            x       y       z     vdW  Elec       q    Type
REMARK                         _______ _______ _______ _____ _____    ______ ____
ROOT
ATOM      1  N   UNL     1       5.398   7.165  17.371  0.00  0.00    +0.000 N 
ATOM      2  H   UNL     1       5.890   7.233  18.260  0.00  0.00    +0.000 HD
ENDROOT
BRANCH   1   8
ATOM      3  C   UNL     1       7.000   5.354  16.970  0.00  0.00    +0.000 A 
ATOM      4  N   UNL     1       7.583   4.392  16.195  0.00  0.00    +0.000 NA
ATOM      5  C   UNL     1       7.097   4.290  14.943  0.00  0.00    +0.000 A 
ATOM      6  C   UNL     1       6.081   5.107  14.487  0.00  0.00    +0.000 A 
ATOM      7  N   UNL     1       5.505   6.064  15.260  0.00  0.00    +0.000 NA
ATOM      8  C   UNL     1       5.953   6.186  16.534  0.00  0.00    +0.000 A 
BRANCH   3  10
ATOM      9  N   UNL     1       7.959   5.538  19.371  0.00  0.00    +0.000 NA
ATOM     10  C   UNL     1       7.538   5.468  18.291  0.00  0.00    +0.000 C 
ENDBRANCH   3  10
ENDBRANCH   1   8
BRANCH   1  11
ATOM     11  C   UNL     1       3.948   7.099  17.597  0.00  0.00    +0.000 C 
BRANCH  11  12
ATOM     12  C   UNL     1       3.466   6.022  18.537  0.00  0.00    +0.000 A 
ATOM     13  N   UNL     1       4.231   5.579  19.541  0.00  0.00    +0.000 NA
ATOM     14  O   UNL     1       3.392   4.703  20.220  0.00  0.00    +0.000 OA
ATOM     15  C   UNL     1       2.191   4.698  19.563  0.00  0.00    +0.000 A 
ATOM     16  N   UNL     1       2.190   5.480  18.500  0.00  0.00    +0.000 NA
BRANCH  15  17
ATOM     17  C   UNL     1       1.008   3.915  20.123  0.00  0.00    +0.000 C 
ATOM     18  C   UNL     1       0.867   2.453  19.747  0.00  0.00    +0.000 C 
ATOM     19  C   UNL     1       1.162   2.827  21.158  0.00  0.00    +0.000 C 
ENDBRANCH  15  17
ENDBRANCH  11  12
ENDBRANCH   1  11
TORSDOF 5
ENDMDL
MODEL 7
REMARK VINA RESULT:      -6.5      1.743      2.579
REMARK  Name = 
REMARK  5 active torsions:
REMARK  status: ('A' for Active; 'I' for Inactive)
REMARK    1  A    between atoms: C_2  and  C_3
REMARK    2  A    between atoms: C_8  and  N_9
REMARK    3  A    between atoms: N_9  and  C_10
REMARK    4  A    between atoms: C_10  and  C_11
REMARK    5  A    between atoms: C_14  and  C_15
REMARK                            x       y       z     vdW  Elec       q    Type
REMARK                         _______ _______ _______ _____ _____    ______ ____
ROOT
ATOM      1  N   UNL     1       3.899   5.924  17.524  0.00  0.00    +0.000 N 
ATOM      2  H   UNL     1       3.477   5.694  16.626  0.00  0.00    +0.000 HD
ENDROOT
BRANCH   1   8
ATOM      3  C   UNL     1       2.840   5.308  19.648  0.00  0.00    +0.000 A 
ATOM      4  N   UNL     1       2.524   4.426  20.641  0.00  0.00    +0.000 NA
ATOM      5  C   UNL     1       3.004   3.178  20.474  0.00  0.00    +0.000 A 
ATOM      6  C   UNL     1       3.761   2.829  19.373  0.00  0.00    +0.000 A 
ATOM      7  N   UNL     1       4.075   3.710  18.389  0.00  0.00    +0.000 NA
ATOM      8  C   UNL     1       3.596   4.972  18.509  0.00  0.00    +0.000 A 
BRANCH   3  10
ATOM      9  N   UNL     1       1.970   7.723  20.008  0.00  0.00    +0.000 NA
ATOM     10  C   UNL     1       2.345   6.636  19.844  0.00  0.00    +0.000 C 
ENDBRANCH   3  10
ENDBRANCH   1   8
BRANCH   1  11
ATOM     11  C   UNL     1       5.317   6.265  17.347  0.00  0.00    +0.000 C 
BRANCH  11  12
ATOM     12  C   UNL     1       5.988   5.713  16.114  0.00  0.00    +0.000 A 
ATOM     13  N   UNL     1       7.259   6.011  15.819  0.00  0.00    +0.000 NA
ATOM     14  O   UNL     1       7.522   5.225  14.704  0.00  0.00    +0.000 OA
ATOM     15  C   UNL     1       6.382   4.518  14.426  0.00  0.00    +0.000 A 
ATOM     16  N   UNL     1       5.395   4.801  15.255  0.00  0.00    +0.000 NA
BRANCH  15  17
ATOM     17  C   UNL     1       6.373   3.472  13.317  0.00  0.00    +0.000 C 
ATOM     18  C   UNL     1       5.351   3.608  12.204  0.00  0.00    +0.000 C 
ATOM     19  C   UNL     1       6.800   3.776  11.900  0.00  0.00    +0.000 C 
ENDBRANCH  15  17
ENDBRANCH  11  12
ENDBRANCH   1  11
TORSDOF 5
ENDMDL
MODEL 8
REMARK VINA RESULT:      -6.4      0.939      1.098
REMARK  Name = 
REMARK  5 active torsions:
REMARK  status: ('A' for Active; 'I' for Inactive)
REMARK    1  A    between atoms: C_2  and  C_3
REMARK    2  A    between atoms: C_8  and  N_9
REMARK    3  A    between atoms: N_9  and  C_10
REMARK    4  A    between atoms: C_10  and  C_11
REMARK    5  A    between atoms: C_14  and  C_15
REMARK                            x       y       z     vdW  Elec       q    Type
REMARK                         _______ _______ _______ _____ _____    ______ ____
ROOT
ATOM      1  N   UNL     1       4.947   3.359  18.194  0.00  0.00    +0.000 N 
ATOM      2  H   UNL     1       5.517   2.596  18.555  0.00  0.00    +0.000 HD
ENDROOT
BRANCH   1   8
ATOM      3  C   UNL     1       3.653   2.966  20.239  0.00  0.00    +0.000 A 
ATOM      4  N   UNL     1       2.575   3.158  21.054  0.00  0.00    +0.000 NA
ATOM      5  C   UNL     1       1.640   4.004  20.581  0.00  0.00    +0.000 A 
ATOM      6  C   UNL     1       1.774   4.627  19.355  0.00  0.00    +0.000 A 
ATOM      7  N   UNL     1       2.847   4.433  18.547  0.00  0.00    +0.000 NA
ATOM      8  C   UNL     1       3.821   3.602  18.995  0.00  0.00    +0.000 A 
BRANCH   3  10
ATOM      9  N   UNL     1       5.415   1.312  21.176  0.00  0.00    +0.000 NA
ATOM     10  C   UNL     1       4.630   2.049  20.742  0.00  0.00    +0.000 C 
ENDBRANCH   3  10
ENDBRANCH   1   8
BRANCH   1  11
ATOM     11  C   UNL     1       5.792   4.517  17.872  0.00  0.00    +0.000 C 
BRANCH  11  12
ATOM     12  C   UNL     1       6.256   4.628  16.441  0.00  0.00    +0.000 A 
ATOM     13  N   UNL     1       7.131   5.567  16.062  0.00  0.00    +0.000 NA
ATOM     14  O   UNL     1       7.379   5.255  14.731  0.00  0.00    +0.000 OA
ATOM     15  C   UNL     1       6.630   4.151  14.425  0.00  0.00    +0.000 A 
ATOM     16  N   UNL     1       5.898   3.736  15.442  0.00  0.00    +0.000 NA
BRANCH  15  17
ATOM     17  C   UNL     1       6.760   3.483  13.060  0.00  0.00    +0.000 C 
ATOM     18  C   UNL     1       5.617   3.628  12.074  0.00  0.00    +0.000 C 
ATOM     19  C   UNL     1       6.931   4.265  11.779  0.00  0.00    +0.000 C 
ENDBRANCH  15  17
ENDBRANCH  11  12
ENDBRANCH   1  11
TORSDOF 5
ENDMDL
MODEL 9
REMARK VINA RESULT:      -6.4      2.658      6.131
REMARK  Name = 
REMARK  5 active torsions:
REMARK  status: ('A' for Active; 'I' for Inactive)
REMARK    1  A    between atoms: C_2  and  C_3
REMARK    2  A    between atoms: C_8  and  N_9
REMARK    3  A    between atoms: N_9  and  C_10
REMARK    4  A    between atoms: C_10  and  C_11
REMARK    5  A    between atoms: C_14  and  C_15
REMARK                            x       y       z     vdW  Elec       q    Type
REMARK                         _______ _______ _______ _____ _____    ______ ____
ROOT
ATOM      1  N   UNL     1       6.368   4.205  18.387  0.00  0.00    +0.000 N 
ATOM      2  H   UNL     1       5.871   3.364  18.673  0.00  0.00    +0.000 HD
ENDROOT
BRANCH   1   8
ATOM      3  C   UNL     1       5.295   3.969  16.196  0.00  0.00    +0.000 A 
ATOM      4  N   UNL     1       5.263   4.087  14.836  0.00  0.00    +0.000 NA
ATOM      5  C   UNL     1       6.376   4.602  14.277  0.00  0.00    +0.000 A 
ATOM      6  C   UNL     1       7.466   4.977  15.038  0.00  0.00    +0.000 A 
ATOM      7  N   UNL     1       7.495   4.856  16.390  0.00  0.00    +0.000 NA
ATOM      8  C   UNL     1       6.387   4.360  16.993  0.00  0.00    +0.000 A 
BRANCH   3  10
ATOM      9  N   UNL     1       3.170   2.916  17.242  0.00  0.00    +0.000 NA
ATOM     10  C   UNL     1       4.117   3.402  16.777  0.00  0.00    +0.000 C 
ENDBRANCH   3  10
ENDBRANCH   1   8
BRANCH   1  11
ATOM     11  C   UNL     1       5.911   5.358  19.175  0.00  0.00    +0.000 C 
BRANCH  11  12
ATOM     12  C   UNL     1       4.429   5.439  19.443  0.00  0.00    +0.000 A 
ATOM     13  N   UNL     1       3.657   6.346  18.831  0.00  0.00    +0.000 NA
ATOM     14  O   UNL     1       2.376   6.011  19.251  0.00  0.00    +0.000 OA
ATOM     15  C   UNL     1       2.488   4.928  20.080  0.00  0.00    +0.000 A 
ATOM     16  N   UNL     1       3.741   4.547  20.252  0.00  0.00    +0.000 NA
BRANCH  15  17
ATOM     17  C   UNL     1       1.242   4.241  20.628  0.00  0.00    +0.000 C 
ATOM     18  C   UNL     1       0.698   3.034  19.889  0.00  0.00    +0.000 C 
ATOM     19  C   UNL     1       1.272   2.866  21.254  0.00  0.00    +0.000 C 
ENDBRANCH  15  17
ENDBRANCH  11  12
ENDBRANCH   1  11
TORSDOF 5
ENDMDL
