MODEL 1
REMARK VINA RESULT:      -7.5      0.000      0.000
REMARK  Name = 
REMARK  6 active torsions:
REMARK  status: ('A' for Active; 'I' for Inactive)
REMARK    1  A    between atoms: C_2  and  C_3
REMARK    2  A    between atoms: C_3  and  O_4
REMARK    3  A    between atoms: O_4  and  C_5
REMARK    4  A    between atoms: C_5  and  C_7
REMARK    5  A    between atoms: N_16  and  C_17
REMARK    6  A    between atoms: C_17  and  C_18
REMARK                            x       y       z     vdW  Elec       q    Type
REMARK                         _______ _______ _______ _____ _____    ______ ____
ROOT
ATOM      1  C   UNL     1       2.044   2.428  20.049  0.00  0.00    +0.000 C 
ENDROOT
BRANCH   1   3
ATOM      2  O   UNL     1       2.223   3.664  22.119  0.00  0.00    +0.000 OA
ATOM      3  C   UNL     1       2.056   3.701  20.902  0.00  0.00    +0.000 C 
ATOM      4  N   UNL     1       1.871   4.873  20.201  0.00  0.00    +0.000 N 
ATOM      5  H   UNL     1       1.885   4.848  19.189  0.00  0.00    +0.000 HD
BRANCH   4   6
ATOM      6  C   UNL     1       1.896   6.171  20.838  0.00  0.00    +0.000 C 
BRANCH   6   7
ATOM      7  C   UNL     1       1.917   7.291  19.825  0.00  0.00    +0.000 A 
ATOM      8  C   UNL     1       2.606   7.140  18.611  0.00  0.00    +0.000 A 
ATOM      9  C   UNL     1       2.638   8.175  17.673  0.00  0.00    +0.000 A 
ATOM     10  C   UNL     1       1.988   9.380  17.939  0.00  0.00    +0.000 A 
ATOM     11  C   UNL     1       1.311   9.543  19.145  0.00  0.00    +0.000 A 
ATOM     12 CL   UNL     1       0.513  11.031  19.479  0.00  0.00    +0.000 Cl
ATOM     13  C   UNL     1       1.275   8.512  20.087  0.00  0.00    +0.000 A 
ENDBRANCH   6   7
ENDBRANCH   4   6
ENDBRANCH   1   3
BRANCH   1  14
ATOM     14  O   UNL     1       3.256   2.249  19.316  0.00  0.00    +0.000 OA
BRANCH  14  15
ATOM     15  C   UNL     1       3.164   2.596  18.009  0.00  0.00    +0.000 C 
ATOM     16  O   UNL     1       2.414   2.080  17.194  0.00  0.00    +0.000 OA
BRANCH  15  17
ATOM     17  C   UNL     1       4.108   3.697  17.669  0.00  0.00    +0.000 A 
ATOM     18  C   UNL     1       4.034   4.401  16.464  0.00  0.00    +0.000 A 
ATOM     19  C   UNL     1       4.947   5.426  16.180  0.00  0.00    +0.000 A 
ATOM     20  C   UNL     1       5.954   5.751  17.110  0.00  0.00    +0.000 A 
ATOM     21  N   UNL     1       6.921   6.730  16.953  0.00  0.00    +0.000 NA
ATOM     22  C   UNL     1       7.698   6.755  18.011  0.00  0.00    +0.000 A 
ATOM     23  S   UNL     1       7.329   5.635  19.252  0.00  0.00    +0.000 S 
ATOM     24  C   UNL     1       6.013   5.039  18.311  0.00  0.00    +0.000 A 
ATOM     25  C   UNL     1       5.100   4.014  18.613  0.00  0.00    +0.000 A 
ENDBRANCH  15  17
ENDBRANCH  14  15
ENDBRANCH   1  14
TORSDOF 6
ENDMDL
MODEL 2
REMARK VINA RESULT:      -7.0      2.592      3.504
REMARK  Name = 
REMARK  6 active torsions:
REMARK  status: ('A' for Active; 'I' for Inactive)
REMARK    1  A    between atoms: C_2  and  C_3
REMARK    2  A    between atoms: C_3  and  O_4
REMARK    3  A    between atoms: O_4  and  C_5
REMARK    4  A    between atoms: C_5  and  C_7
REMARK    5  A    between atoms: N_16  and  C_17
REMARK    6  A    between atoms: C_17  and  C_18
REMARK                            x       y       z     vdW  Elec       q    Type
REMARK                         _______ _______ _______ _____ _____    ______ ____
ROOT
ATOM      1  C   UNL     1       2.776   5.201  20.204  0.00  0.00    +0.000 C 
ENDROOT
BRANCH   1   3
ATOM      2  O   UNL     1       2.817   6.846  18.433  0.00  0.00    +0.000 OA
ATOM      3  C   UNL     1       2.500   6.577  19.590  0.00  0.00    +0.000 C 
ATOM      4  N   UNL     1       1.874   7.474  20.428  0.00  0.00    +0.000 N 
ATOM      5  H   UNL     1       1.510   7.146  21.315  0.00  0.00    +0.000 HD
BRANCH   4   6
ATOM      6  C   UNL     1       1.498   8.804  20.002  0.00  0.00    +0.000 C 
BRANCH   6   7
ATOM      7  C   UNL     1       0.632   9.496  21.028  0.00  0.00    +0.000 A 
ATOM      8  C   UNL     1       0.621   9.059  22.362  0.00  0.00    +0.000 A 
ATOM      9  C   UNL     1      -0.185   9.689  23.315  0.00  0.00    +0.000 A 
ATOM     10  C   UNL     1      -0.997  10.761  22.944  0.00  0.00    +0.000 A 
ATOM     11  C   UNL     1      -1.000  11.194  21.621  0.00  0.00    +0.000 A 
ATOM     12 CL   UNL     1      -2.007  12.513  21.160  0.00  0.00    +0.000 Cl
ATOM     13  C   UNL     1      -0.198  10.569  20.665  0.00  0.00    +0.000 A 
ENDBRANCH   6   7
ENDBRANCH   4   6
ENDBRANCH   1   3
BRANCH   1  14
ATOM     14  O   UNL     1       2.821   4.164  19.224  0.00  0.00    +0.000 OA
BRANCH  14  15
ATOM     15  C   UNL     1       3.974   3.453  19.229  0.00  0.00    +0.000 C 
ATOM     16  O   UNL     1       4.200   2.479  19.932  0.00  0.00    +0.000 OA
BRANCH  15  17
ATOM     17  C   UNL     1       4.963   4.011  18.265  0.00  0.00    +0.000 A 
ATOM     18  C   UNL     1       6.000   4.860  18.663  0.00  0.00    +0.000 A 
ATOM     19  C   UNL     1       6.905   5.370  17.722  0.00  0.00    +0.000 A 
ATOM     20  C   UNL     1       6.771   5.032  16.360  0.00  0.00    +0.000 A 
ATOM     21  N   UNL     1       7.587   5.471  15.331  0.00  0.00    +0.000 NA
ATOM     22  C   UNL     1       7.169   4.965  14.193  0.00  0.00    +0.000 A 
ATOM     23  S   UNL     1       5.800   3.939  14.274  0.00  0.00    +0.000 S 
ATOM     24  C   UNL     1       5.731   4.181  15.980  0.00  0.00    +0.000 A 
ATOM     25  C   UNL     1       4.820   3.656  16.913  0.00  0.00    +0.000 A 
ENDBRANCH  15  17
ENDBRANCH  14  15
ENDBRANCH   1  14
TORSDOF 6
ENDMDL
MODEL 3
REMARK VINA RESULT:      -7.0      1.638      1.960
REMARK  Name = 
REMARK  6 active torsions:
REMARK  status: ('A' for Active; 'I' for Inactive)
REMARK    1  A    between atoms: C_2  and  C_3
REMARK    2  A    between atoms: C_3  and  O_4
REMARK    3  A    between atoms: O_4  and  C_5
REMARK    4  A    between atoms: C_5  and  C_7
REMARK    5  A    between atoms: N_16  and  C_17
REMARK    6  A    between atoms: C_17  and  C_18
REMARK                            x       y       z     vdW  Elec       q    Type
REMARK                         _______ _______ _______ _____ _____    ______ ____
ROOT
ATOM      1  C   UNL     1       2.844   2.737  21.012  0.00  0.00    +0.000 C 
ENDROOT
BRANCH   1   3
ATOM      2  O   UNL     1       0.695   3.734  20.530  0.00  0.00    +0.000 OA
ATOM      3  C   UNL     1       1.867   3.907  20.860  0.00  0.00    +0.000 C 
ATOM      4  N   UNL     1       2.401   5.150  21.123  0.00  0.00    +0.000 N 
ATOM      5  H   UNL     1       3.327   5.211  21.529  0.00  0.00    +0.000 HD
BRANCH   4   6
ATOM      6  C   UNL     1       1.612   6.361  21.070  0.00  0.00    +0.000 C 
BRANCH   6   7
ATOM      7  C   UNL     1       1.955   7.200  19.862  0.00  0.00    +0.000 A 
ATOM      8  C   UNL     1       2.790   6.690  18.855  0.00  0.00    +0.000 A 
ATOM      9  C   UNL     1       3.119   7.463  17.738  0.00  0.00    +0.000 A 
ATOM     10  C   UNL     1       2.622   8.761  17.617  0.00  0.00    +0.000 A 
ATOM     11  C   UNL     1       1.801   9.278  18.615  0.00  0.00    +0.000 A 
ATOM     12 CL   UNL     1       1.191  10.882  18.469  0.00  0.00    +0.000 Cl
ATOM     13  C   UNL     1       1.469   8.511  19.733  0.00  0.00    +0.000 A 
ENDBRANCH   6   7
ENDBRANCH   4   6
ENDBRANCH   1   3
BRANCH   1  14
ATOM     14  O   UNL     1       3.994   2.873  20.178  0.00  0.00    +0.000 OA
BRANCH  14  15
ATOM     15  C   UNL     1       3.722   2.810  18.853  0.00  0.00    +0.000 C 
ATOM     16  O   UNL     1       2.784   2.206  18.353  0.00  0.00    +0.000 OA
BRANCH  15  17
ATOM     17  C   UNL     1       4.722   3.571  18.053  0.00  0.00    +0.000 A 
ATOM     18  C   UNL     1       5.609   4.481  18.635  0.00  0.00    +0.000 A 
ATOM     19  C   UNL     1       6.531   5.182  17.845  0.00  0.00    +0.000 A 
ATOM     20  C   UNL     1       6.565   4.978  16.451  0.00  0.00    +0.000 A 
ATOM     21  N   UNL     1       7.414   5.608  15.558  0.00  0.00    +0.000 NA
ATOM     22  C   UNL     1       7.167   5.182  14.341  0.00  0.00    +0.000 A 
ATOM     23  S   UNL     1       5.928   4.011  14.182  0.00  0.00    +0.000 S 
ATOM     24  C   UNL     1       5.674   4.062  15.886  0.00  0.00    +0.000 A 
ATOM     25  C   UNL     1       4.749   3.346  16.666  0.00  0.00    +0.000 A 
ENDBRANCH  15  17
ENDBRANCH  14  15
ENDBRANCH   1  14
TORSDOF 6
ENDMDL
MODEL 4
REMARK VINA RESULT:      -6.9      2.424      4.511
REMARK  Name = 
REMARK  6 active torsions:
REMARK  status: ('A' for Active; 'I' for Inactive)
REMARK    1  A    between atoms: C_2  and  C_3
REMARK    2  A    between atoms: C_3  and  O_4
REMARK    3  A    between atoms: O_4  and  C_5
REMARK    4  A    between atoms: C_5  and  C_7
REMARK    5  A    between atoms: N_16  and  C_17
REMARK    6  A    between atoms: C_17  and  C_18
REMARK                            x       y       z     vdW  Elec       q    Type
REMARK                         _______ _______ _______ _____ _____    ______ ____
ROOT
ATOM      1  C   UNL     1       6.440   5.797  16.491  0.00  0.00    +0.000 C 
ENDROOT
BRANCH   1   3
ATOM      2  O   UNL     1       4.964   7.094  15.083  0.00  0.00    +0.000 OA
ATOM      3  C   UNL     1       5.226   6.689  16.214  0.00  0.00    +0.000 C 
ATOM      4  N   UNL     1       4.461   6.993  17.319  0.00  0.00    +0.000 N 
ATOM      5  H   UNL     1       4.645   6.512  18.191  0.00  0.00    +0.000 HD
BRANCH   4   6
ATOM      6  C   UNL     1       3.255   7.787  17.235  0.00  0.00    +0.000 C 
BRANCH   6   7
ATOM      7  C   UNL     1       2.514   7.819  18.551  0.00  0.00    +0.000 A 
ATOM      8  C   UNL     1       2.635   6.757  19.462  0.00  0.00    +0.000 A 
ATOM      9  C   UNL     1       1.945   6.776  20.677  0.00  0.00    +0.000 A 
ATOM     10  C   UNL     1       1.118   7.853  20.995  0.00  0.00    +0.000 A 
ATOM     11  C   UNL     1       0.984   8.906  20.093  0.00  0.00    +0.000 A 
ATOM     12 CL   UNL     1      -0.040  10.234  20.481  0.00  0.00    +0.000 Cl
ATOM     13  C   UNL     1       1.671   8.893  18.878  0.00  0.00    +0.000 A 
ENDBRANCH   6   7
ENDBRANCH   4   6
ENDBRANCH   1   3
BRANCH   1  14
ATOM     14  O   UNL     1       6.134   4.717  17.373  0.00  0.00    +0.000 OA
BRANCH  14  15
ATOM     15  C   UNL     1       5.347   3.763  16.820  0.00  0.00    +0.000 C 
ATOM     16  O   UNL     1       5.612   3.127  15.810  0.00  0.00    +0.000 OA
BRANCH  15  17
ATOM     17  C   UNL     1       4.090   3.576  17.596  0.00  0.00    +0.000 A 
ATOM     18  C   UNL     1       2.826   3.725  17.020  0.00  0.00    +0.000 A 
ATOM     19  C   UNL     1       1.667   3.548  17.789  0.00  0.00    +0.000 A 
ATOM     20  C   UNL     1       1.770   3.221  19.156  0.00  0.00    +0.000 A 
ATOM     21  N   UNL     1       0.712   3.027  20.027  0.00  0.00    +0.000 NA
ATOM     22  C   UNL     1       1.173   2.743  21.223  0.00  0.00    +0.000 A 
ATOM     23  S   UNL     1       2.877   2.679  21.386  0.00  0.00    +0.000 S 
ATOM     24  C   UNL     1       3.042   3.072  19.715  0.00  0.00    +0.000 A 
ATOM     25  C   UNL     1       4.212   3.240  18.956  0.00  0.00    +0.000 A 
ENDBRANCH  15  17
ENDBRANCH  14  15
ENDBRANCH   1  14
TORSDOF 6
ENDMDL
MODEL 5
REMARK VINA RESULT:      -6.8      1.404      1.756
REMARK  Name = 
REMARK  6 active torsions:
REMARK  status: ('A' for Active; 'I' for Inactive)
REMARK    1  A    between atoms: C_2  and  C_3
REMARK    2  A    between atoms: C_3  and  O_4
REMARK    3  A    between atoms: O_4  and  C_5
REMARK    4  A    between atoms: C_5  and  C_7
REMARK    5  A    between atoms: N_16  and  C_17
REMARK    6  A    between atoms: C_17  and  C_18
REMARK                            x       y       z     vdW  Elec       q    Type
REMARK                         _______ _______ _______ _____ _____    ______ ____
ROOT
ATOM      1  C   UNL     1       1.605   2.574  19.933  0.00  0.00    +0.000 C 
ENDROOT
BRANCH   1   3
ATOM      2  O   UNL     1       2.207   3.690  21.991  0.00  0.00    +0.000 OA
ATOM      3  C   UNL     1       1.866   3.799  20.815  0.00  0.00    +0.000 C 
ATOM      4  N   UNL     1       1.692   5.015  20.190  0.00  0.00    +0.000 N 
ATOM      5  H   UNL     1       1.553   5.036  19.187  0.00  0.00    +0.000 HD
BRANCH   4   6
ATOM      6  C   UNL     1       1.936   6.274  20.858  0.00  0.00    +0.000 C 
BRANCH   6   7
ATOM      7  C   UNL     1       1.873   7.438  19.898  0.00  0.00    +0.000 A 
ATOM      8  C   UNL     1       2.504   7.363  18.646  0.00  0.00    +0.000 A 
ATOM      9  C   UNL     1       2.458   8.440  17.756  0.00  0.00    +0.000 A 
ATOM     10  C   UNL     1       1.786   9.610  18.109  0.00  0.00    +0.000 A 
ATOM     11  C   UNL     1       1.167   9.697  19.353  0.00  0.00    +0.000 A 
ATOM     12 CL   UNL     1       0.342  11.143  19.793  0.00  0.00    +0.000 Cl
ATOM     13  C   UNL     1       1.209   8.625  20.246  0.00  0.00    +0.000 A 
ENDBRANCH   6   7
ENDBRANCH   4   6
ENDBRANCH   1   3
BRANCH   1  14
ATOM     14  O   UNL     1       2.138   2.725  18.617  0.00  0.00    +0.000 OA
BRANCH  14  15
ATOM     15  C   UNL     1       3.357   2.159  18.450  0.00  0.00    +0.000 C 
ATOM     16  O   UNL     1       3.639   0.999  18.715  0.00  0.00    +0.000 OA
BRANCH  15  17
ATOM     17  C   UNL     1       4.340   3.134  17.902  0.00  0.00    +0.000 A 
ATOM     18  C   UNL     1       4.933   4.123  18.692  0.00  0.00    +0.000 A 
ATOM     19  C   UNL     1       5.849   5.027  18.134  0.00  0.00    +0.000 A 
ATOM     20  C   UNL     1       6.175   4.946  16.766  0.00  0.00    +0.000 A 
ATOM     21  N   UNL     1       7.052   5.777  16.089  0.00  0.00    +0.000 NA
ATOM     22  C   UNL     1       7.111   5.419  14.827  0.00  0.00    +0.000 A 
ATOM     23  S   UNL     1       6.146   4.081  14.369  0.00  0.00    +0.000 S 
ATOM     24  C   UNL     1       5.576   3.950  15.991  0.00  0.00    +0.000 A 
ATOM     25  C   UNL     1       4.661   3.032  16.538  0.00  0.00    +0.000 A 
ENDBRANCH  15  17
ENDBRANCH  14  15
ENDBRANCH   1  14
TORSDOF 6
ENDMDL
MODEL 6
REMARK VINA RESULT:      -6.7      1.994      2.674
REMARK  Name = 
REMARK  6 active torsions:
REMARK  status: ('A' for Active; 'I' for Inactive)
REMARK    1  A    between atoms: C_2  and  C_3
REMARK    2  A    between atoms: C_3  and  O_4
REMARK    3  A    between atoms: O_4  and  C_5
REMARK    4  A    between atoms: C_5  and  C_7
REMARK    5  A    between atoms: N_16  and  C_17
REMARK    6  A    between atoms: C_17  and  C_18
REMARK                            x       y       z     vdW  Elec       q    Type
REMARK                         _______ _______ _______ _____ _____    ______ ____
ROOT
ATOM      1  C   UNL     1       2.124   3.960  19.787  0.00  0.00    +0.000 C 
ENDROOT
BRANCH   1   3
ATOM      2  O   UNL     1       1.512   5.060  17.723  0.00  0.00    +0.000 OA
ATOM      3  C   UNL     1       2.083   5.138  18.809  0.00  0.00    +0.000 C 
ATOM      4  N   UNL     1       2.728   6.277  19.241  0.00  0.00    +0.000 N 
ATOM      5  H   UNL     1       3.052   6.325  20.200  0.00  0.00    +0.000 HD
BRANCH   4   6
ATOM      6  C   UNL     1       2.754   7.497  18.465  0.00  0.00    +0.000 C 
BRANCH   6   7
ATOM      7  C   UNL     1       1.710   8.482  18.936  0.00  0.00    +0.000 A 
ATOM      8  C   UNL     1       1.124   9.384  18.034  0.00  0.00    +0.000 A 
ATOM      9  C   UNL     1       0.164  10.304  18.465  0.00  0.00    +0.000 A 
ATOM     10  C   UNL     1      -0.218  10.339  19.806  0.00  0.00    +0.000 A 
ATOM     11  C   UNL     1       0.366   9.455  20.709  0.00  0.00    +0.000 A 
ATOM     12 CL   UNL     1      -0.099   9.501  22.366  0.00  0.00    +0.000 Cl
ATOM     13  C   UNL     1       1.325   8.534  20.286  0.00  0.00    +0.000 A 
ENDBRANCH   6   7
ENDBRANCH   4   6
ENDBRANCH   1   3
BRANCH   1  14
ATOM     14  O   UNL     1       3.431   3.401  19.916  0.00  0.00    +0.000 OA
BRANCH  14  15
ATOM     15  C   UNL     1       3.839   2.702  18.830  0.00  0.00    +0.000 C 
ATOM     16  O   UNL     1       3.458   1.580  18.528  0.00  0.00    +0.000 OA
BRANCH  15  17
ATOM     17  C   UNL     1       4.832   3.470  18.029  0.00  0.00    +0.000 A 
ATOM     18  C   UNL     1       5.763   4.331  18.618  0.00  0.00    +0.000 A 
ATOM     19  C   UNL     1       6.676   5.042  17.826  0.00  0.00    +0.000 A 
ATOM     20  C   UNL     1       6.658   4.897  16.424  0.00  0.00    +0.000 A 
ATOM     21  N   UNL     1       7.493   5.543  15.529  0.00  0.00    +0.000 NA
ATOM     22  C   UNL     1       7.192   5.177  14.305  0.00  0.00    +0.000 A 
ATOM     23  S   UNL     1       5.917   4.047  14.140  0.00  0.00    +0.000 S 
ATOM     24  C   UNL     1       5.722   4.031  15.852  0.00  0.00    +0.000 A 
ATOM     25  C   UNL     1       4.805   3.306  16.633  0.00  0.00    +0.000 A 
ENDBRANCH  15  17
ENDBRANCH  14  15
ENDBRANCH   1  14
TORSDOF 6
ENDMDL
MODEL 7
REMARK VINA RESULT:      -6.6      6.136      8.218
REMARK  Name = 
REMARK  6 active torsions:
REMARK  status: ('A' for Active; 'I' for Inactive)
REMARK    1  A    between atoms: C_2  and  C_3
REMARK    2  A    between atoms: C_3  and  O_4
REMARK    3  A    between atoms: O_4  and  C_5
REMARK    4  A    between atoms: C_5  and  C_7
REMARK    5  A    between atoms: N_16  and  C_17
REMARK    6  A    between atoms: C_17  and  C_18
REMARK                            x       y       z     vdW  Elec       q    Type
REMARK                         _______ _______ _______ _____ _____    ______ ____
ROOT
ATOM      1  C   UNL     1       8.269   8.221  18.311  0.00  0.00    +0.000 C 
ENDROOT
BRANCH   1   3
ATOM      2  O   UNL     1       8.014   6.831  16.349  0.00  0.00    +0.000 OA
ATOM      3  C   UNL     1       7.465   7.445  17.262  0.00  0.00    +0.000 C 
ATOM      4  N   UNL     1       6.098   7.488  17.427  0.00  0.00    +0.000 N 
ATOM      5  H   UNL     1       5.717   7.887  18.277  0.00  0.00    +0.000 HD
BRANCH   4   6
ATOM      6  C   UNL     1       5.188   6.778  16.555  0.00  0.00    +0.000 C 
BRANCH   6   7
ATOM      7  C   UNL     1       4.177   5.973  17.338  0.00  0.00    +0.000 A 
ATOM      8  C   UNL     1       3.297   6.609  18.229  0.00  0.00    +0.000 A 
ATOM      9  C   UNL     1       2.366   5.869  18.963  0.00  0.00    +0.000 A 
ATOM     10  C   UNL     1       2.307   4.483  18.822  0.00  0.00    +0.000 A 
ATOM     11  C   UNL     1       3.182   3.844  17.949  0.00  0.00    +0.000 A 
ATOM     12 CL   UNL     1       3.115   2.132  17.777  0.00  0.00    +0.000 Cl
ATOM     13  C   UNL     1       4.115   4.576  17.212  0.00  0.00    +0.000 A 
ENDBRANCH   6   7
ENDBRANCH   4   6
ENDBRANCH   1   3
BRANCH   1  14
ATOM     14  O   UNL     1       8.469   9.586  17.946  0.00  0.00    +0.000 OA
BRANCH  14  15
ATOM     15  C   UNL     1       9.062  10.331  18.910  0.00  0.00    +0.000 C 
ATOM     16  O   UNL     1       9.101  10.046  20.099  0.00  0.00    +0.000 OA
BRANCH  15  17
ATOM     17  C   UNL     1       9.670  11.568  18.347  0.00  0.00    +0.000 A 
ATOM     18  C   UNL     1      10.910  11.565  17.701  0.00  0.00    +0.000 A 
ATOM     19  C   UNL     1      11.450  12.755  17.191  0.00  0.00    +0.000 A 
ATOM     20  C   UNL     1      10.746  13.967  17.332  0.00  0.00    +0.000 A 
ATOM     21  N   UNL     1      11.167  15.208  16.885  0.00  0.00    +0.000 NA
ATOM     22  C   UNL     1      10.267  16.114  17.192  0.00  0.00    +0.000 A 
ATOM     23  S   UNL     1       8.873  15.554  18.014  0.00  0.00    +0.000 S 
ATOM     24  C   UNL     1       9.507  13.951  17.978  0.00  0.00    +0.000 A 
ATOM     25  C   UNL     1       8.950  12.766  18.488  0.00  0.00    +0.000 A 
ENDBRANCH  15  17
ENDBRANCH  14  15
ENDBRANCH   1  14
TORSDOF 6
ENDMDL
MODEL 8
REMARK VINA RESULT:      -6.6      2.387      3.124
REMARK  Name = 
REMARK  6 active torsions:
REMARK  status: ('A' for Active; 'I' for Inactive)
REMARK    1  A    between atoms: C_2  and  C_3
REMARK    2  A    between atoms: C_3  and  O_4
REMARK    3  A    between atoms: O_4  and  C_5
REMARK    4  A    between atoms: C_5  and  C_7
REMARK    5  A    between atoms: N_16  and  C_17
REMARK    6  A    between atoms: C_17  and  C_18
REMARK                            x       y       z     vdW  Elec       q    Type
REMARK                         _______ _______ _______ _____ _____    ______ ____
ROOT
ATOM      1  C   UNL     1       2.674   5.400  18.640  0.00  0.00    +0.000 C 
ENDROOT
BRANCH   1   3
ATOM      2  O   UNL     1       1.884   5.123  20.908  0.00  0.00    +0.000 OA
ATOM      3  C   UNL     1       2.183   5.899  20.003  0.00  0.00    +0.000 C 
ATOM      4  N   UNL     1       2.110   7.269  20.130  0.00  0.00    +0.000 N 
ATOM      5  H   UNL     1       2.507   7.852  19.402  0.00  0.00    +0.000 HD
BRANCH   4   6
ATOM      6  C   UNL     1       1.709   7.915  21.360  0.00  0.00    +0.000 C 
BRANCH   6   7
ATOM      7  C   UNL     1       0.845   9.126  21.100  0.00  0.00    +0.000 A 
ATOM      8  C   UNL     1       0.799   9.707  19.822  0.00  0.00    +0.000 A 
ATOM      9  C   UNL     1       0.009  10.833  19.576  0.00  0.00    +0.000 A 
ATOM     10  C   UNL     1      -0.741  11.398  20.607  0.00  0.00    +0.000 A 
ATOM     11  C   UNL     1      -0.694  10.835  21.879  0.00  0.00    +0.000 A 
ATOM     12 CL   UNL     1      -1.615  11.536  23.155  0.00  0.00    +0.000 Cl
ATOM     13  C   UNL     1       0.093   9.711  22.131  0.00  0.00    +0.000 A 
ENDBRANCH   6   7
ENDBRANCH   4   6
ENDBRANCH   1   3
BRANCH   1  14
ATOM     14  O   UNL     1       2.898   3.990  18.622  0.00  0.00    +0.000 OA
BRANCH  14  15
ATOM     15  C   UNL     1       4.166   3.632  18.936  0.00  0.00    +0.000 C 
ATOM     16  O   UNL     1       4.494   2.991  19.924  0.00  0.00    +0.000 OA
BRANCH  15  17
ATOM     17  C   UNL     1       5.139   4.125  17.922  0.00  0.00    +0.000 A 
ATOM     18  C   UNL     1       6.241   4.914  18.264  0.00  0.00    +0.000 A 
ATOM     19  C   UNL     1       7.129   5.364  17.276  0.00  0.00    +0.000 A 
ATOM     20  C   UNL     1       6.913   5.026  15.926  0.00  0.00    +0.000 A 
ATOM     21  N   UNL     1       7.703   5.409  14.855  0.00  0.00    +0.000 NA
ATOM     22  C   UNL     1       7.203   4.921  13.743  0.00  0.00    +0.000 A 
ATOM     23  S   UNL     1       5.782   3.978  13.897  0.00  0.00    +0.000 S 
ATOM     24  C   UNL     1       5.808   4.234  15.602  0.00  0.00    +0.000 A 
ATOM     25  C   UNL     1       4.913   3.770  16.581  0.00  0.00    +0.000 A 
ENDBRANCH  15  17
ENDBRANCH  14  15
ENDBRANCH   1  14
TORSDOF 6
ENDMDL
MODEL 9
REMARK VINA RESULT:      -6.5      3.037      4.035
REMARK  Name = 
REMARK  6 active torsions:
REMARK  status: ('A' for Active; 'I' for Inactive)
REMARK    1  A    between atoms: C_2  and  C_3
REMARK    2  A    between atoms: C_3  and  O_4
REMARK    3  A    between atoms: O_4  and  C_5
REMARK    4  A    between atoms: C_5  and  C_7
REMARK    5  A    between atoms: N_16  and  C_17
REMARK    6  A    between atoms: C_17  and  C_18
REMARK                            x       y       z     vdW  Elec       q    Type
REMARK                         _______ _______ _______ _____ _____    ______ ____
ROOT
ATOM      1  C   UNL     1       2.274   6.508  19.683  0.00  0.00    +0.000 C 
ENDROOT
BRANCH   1   3
ATOM      2  O   UNL     1       2.891   7.920  17.819  0.00  0.00    +0.000 OA
ATOM      3  C   UNL     1       2.272   7.811  18.876  0.00  0.00    +0.000 C 
ATOM      4  N   UNL     1       1.527   8.833  19.423  0.00  0.00    +0.000 N 
ATOM      5  H   UNL     1       0.927   8.635  20.215  0.00  0.00    +0.000 HD
BRANCH   4   6
ATOM      6  C   UNL     1       1.378  10.118  18.776  0.00  0.00    +0.000 C 
BRANCH   6   7
ATOM      7  C   UNL     1      -0.075  10.497  18.613  0.00  0.00    +0.000 A 
ATOM      8  C   UNL     1      -0.693  11.358  19.534  0.00  0.00    +0.000 A 
ATOM      9  C   UNL     1      -2.040  11.706  19.395  0.00  0.00    +0.000 A 
ATOM     10  C   UNL     1      -2.789  11.192  18.337  0.00  0.00    +0.000 A 
ATOM     11  C   UNL     1      -2.186  10.329  17.425  0.00  0.00    +0.000 A 
ATOM     12 CL   UNL     1      -3.111   9.688  16.122  0.00  0.00    +0.000 Cl
ATOM     13  C   UNL     1      -0.842   9.978  17.558  0.00  0.00    +0.000 A 
ENDBRANCH   6   7
ENDBRANCH   4   6
ENDBRANCH   1   3
BRANCH   1  14
ATOM     14  O   UNL     1       3.575   5.929  19.783  0.00  0.00    +0.000 OA
BRANCH  14  15
ATOM     15  C   UNL     1       3.742   4.821  19.021  0.00  0.00    +0.000 C 
ATOM     16  O   UNL     1       3.107   3.783  19.135  0.00  0.00    +0.000 OA
BRANCH  15  17
ATOM     17  C   UNL     1       4.818   5.013  18.009  0.00  0.00    +0.000 A 
ATOM     18  C   UNL     1       5.982   5.736  18.283  0.00  0.00    +0.000 A 
ATOM     19  C   UNL     1       6.968   5.899  17.298  0.00  0.00    +0.000 A 
ATOM     20  C   UNL     1       6.787   5.337  16.019  0.00  0.00    +0.000 A 
ATOM     21  N   UNL     1       7.672   5.429  14.958  0.00  0.00    +0.000 NA
ATOM     22  C   UNL     1       7.181   4.795  13.919  0.00  0.00    +0.000 A 
ATOM     23  S   UNL     1       5.656   4.047  14.136  0.00  0.00    +0.000 S 
ATOM     24  C   UNL     1       5.619   4.615  15.763  0.00  0.00    +0.000 A 
ATOM     25  C   UNL     1       4.625   4.436  16.742  0.00  0.00    +0.000 A 
ENDBRANCH  15  17
ENDBRANCH  14  15
ENDBRANCH   1  14
TORSDOF 6
ENDMDL
