MODEL 1
REMARK VINA RESULT:      -7.5      0.000      0.000
REMARK  Name = 
REMARK  8 active torsions:
REMARK  status: ('A' for Active; 'I' for Inactive)
REMARK    1  A    between atoms: C_1  and  C_2
REMARK    2  A    between atoms: C_2  and  C_4
REMARK    3  A    between atoms: C_6  and  C_7
REMARK    4  A    between atoms: C_7  and  N_8
REMARK    5  A    between atoms: C_11  and  C_12
REMARK    6  A    between atoms: C_11  and  O_13
REMARK    7  A    between atoms: C_14  and  O_15
REMARK    8  A    between atoms: N_17  and  C_18
REMARK                            x       y       z     vdW  Elec       q    Type
REMARK                         _______ _______ _______ _____ _____    ______ ____
ROOT
ATOM      1  N   UNL     1       3.105   3.780  17.606  0.00  0.00    +0.000 NA
ATOM      2  C   UNL     1       2.646   2.410  17.851  0.00  0.00    +0.000 C 
ATOM      3  C   UNL     1       2.373   2.063  19.322  0.00  0.00    +0.000 C 
ATOM      4  C   UNL     1       1.409   3.046  20.007  0.00  0.00    +0.000 C 
ATOM      5  C   UNL     1       1.355   2.760  21.518  0.00  0.00    +0.000 C 
ATOM      6  C   UNL     1       1.814   4.510  19.714  0.00  0.00    +0.000 C 
ATOM      7  C   UNL     1       2.170   4.739  18.225  0.00  0.00    +0.000 C 
ENDROOT
BRANCH   4   8
ATOM      8  O   UNL     1       0.086   2.821  19.486  0.00  0.00    +0.000 OA
ATOM      9  H   UNL     1      -0.334   2.129  20.028  0.00  0.00    +0.000 HD
ENDBRANCH   4   8
BRANCH   6  10
ATOM     10  O   UNL     1       2.914   4.920  20.534  0.00  0.00    +0.000 OA
ATOM     11  H   UNL     1       3.580   4.213  20.492  0.00  0.00    +0.000 HD
ENDBRANCH   6  10
BRANCH   1  12
ATOM     12  C   UNL     1       4.526   4.004  17.917  0.00  0.00    +0.000 C 
BRANCH  12  15
ATOM     13  C   UNL     1       6.217   4.216  14.519  0.00  0.00    +0.000 A 
ATOM     14  C   UNL     1       5.069   3.931  15.325  0.00  0.00    +0.000 A 
ATOM     15  C   UNL     1       5.373   4.192  16.664  0.00  0.00    +0.000 A 
ATOM     16  N   UNL     1       6.689   4.599  16.682  0.00  0.00    +0.000 N 
ATOM     17  C   UNL     1       7.521   4.931  17.814  0.00  0.00    +0.000 C 
ATOM     18  C   UNL     1       7.188   4.630  15.406  0.00  0.00    +0.000 A 
BRANCH  13  20
ATOM     19  C   UNL     1       5.550   3.293  12.215  0.00  0.00    +0.000 C 
ATOM     20  C   UNL     1       6.462   4.125  13.074  0.00  0.00    +0.000 C 
ATOM     21  O   UNL     1       7.408   4.714  12.551  0.00  0.00    +0.000 OA
ENDBRANCH  13  20
ENDBRANCH  12  15
ENDBRANCH   1  12
TORSDOF 5
ENDMDL
MODEL 2
REMARK VINA RESULT:      -7.3      1.034      1.172
REMARK  Name = 
REMARK  8 active torsions:
REMARK  status: ('A' for Active; 'I' for Inactive)
REMARK    1  A    between atoms: C_1  and  C_2
REMARK    2  A    between atoms: C_2  and  C_4
REMARK    3  A    between atoms: C_6  and  C_7
REMARK    4  A    between atoms: C_7  and  N_8
REMARK    5  A    between atoms: C_11  and  C_12
REMARK    6  A    between atoms: C_11  and  O_13
REMARK    7  A    between atoms: C_14  and  O_15
REMARK    8  A    between atoms: N_17  and  C_18
REMARK                            x       y       z     vdW  Elec       q    Type
REMARK                         _______ _______ _______ _____ _____    ______ ____
ROOT
ATOM      1  N   UNL     1       2.849   3.527  17.596  0.00  0.00    +0.000 NA
ATOM      2  C   UNL     1       2.404   2.176  17.950  0.00  0.00    +0.000 C 
ATOM      3  C   UNL     1       2.217   1.919  19.452  0.00  0.00    +0.000 C 
ATOM      4  C   UNL     1       1.295   2.945  20.132  0.00  0.00    +0.000 C 
ATOM      5  C   UNL     1       1.329   2.751  21.658  0.00  0.00    +0.000 C 
ATOM      6  C   UNL     1       1.684   4.388  19.728  0.00  0.00    +0.000 C 
ATOM      7  C   UNL     1       1.952   4.525  18.210  0.00  0.00    +0.000 C 
ENDROOT
BRANCH   4   8
ATOM      8  O   UNL     1      -0.057   2.695  19.703  0.00  0.00    +0.000 OA
ATOM      9  H   UNL     1      -0.031   2.467  18.756  0.00  0.00    +0.000 HD
ENDBRANCH   4   8
BRANCH   6  10
ATOM     10  O   UNL     1       2.829   4.842  20.457  0.00  0.00    +0.000 OA
ATOM     11  H   UNL     1       3.590   4.790  19.853  0.00  0.00    +0.000 HD
ENDBRANCH   6  10
BRANCH   1  12
ATOM     12  C   UNL     1       4.286   3.763  17.810  0.00  0.00    +0.000 C 
BRANCH  12  15
ATOM     13  C   UNL     1       6.164   4.791  14.669  0.00  0.00    +0.000 A 
ATOM     14  C   UNL     1       5.669   3.777  15.550  0.00  0.00    +0.000 A 
ATOM     15  C   UNL     1       4.961   4.382  16.592  0.00  0.00    +0.000 A 
ATOM     16  N   UNL     1       5.046   5.739  16.371  0.00  0.00    +0.000 N 
ATOM     17  C   UNL     1       4.544   6.825  17.180  0.00  0.00    +0.000 C 
ATOM     18  C   UNL     1       5.747   5.984  15.219  0.00  0.00    +0.000 A 
BRANCH  13  20
ATOM     19  C   UNL     1       6.643   3.689  12.396  0.00  0.00    +0.000 C 
ATOM     20  C   UNL     1       6.958   4.730  13.435  0.00  0.00    +0.000 C 
ATOM     21  O   UNL     1       7.886   5.515  13.237  0.00  0.00    +0.000 OA
ENDBRANCH  13  20
ENDBRANCH  12  15
ENDBRANCH   1  12
TORSDOF 5
ENDMDL
MODEL 3
REMARK VINA RESULT:      -7.3      1.022      1.165
REMARK  Name = 
REMARK  8 active torsions:
REMARK  status: ('A' for Active; 'I' for Inactive)
REMARK    1  A    between atoms: C_1  and  C_2
REMARK    2  A    between atoms: C_2  and  C_4
REMARK    3  A    between atoms: C_6  and  C_7
REMARK    4  A    between atoms: C_7  and  N_8
REMARK    5  A    between atoms: C_11  and  C_12
REMARK    6  A    between atoms: C_11  and  O_13
REMARK    7  A    between atoms: C_14  and  O_15
REMARK    8  A    between atoms: N_17  and  C_18
REMARK                            x       y       z     vdW  Elec       q    Type
REMARK                         _______ _______ _______ _____ _____    ______ ____
ROOT
ATOM      1  N   UNL     1       2.994   4.640  18.313  0.00  0.00    +0.000 NA
ATOM      2  C   UNL     1       2.826   3.185  18.279  0.00  0.00    +0.000 C 
ATOM      3  C   UNL     1       2.562   2.523  19.639  0.00  0.00    +0.000 C 
ATOM      4  C   UNL     1       1.379   3.147  20.397  0.00  0.00    +0.000 C 
ATOM      5  C   UNL     1       1.314   2.580  21.826  0.00  0.00    +0.000 C 
ATOM      6  C   UNL     1       1.477   4.691  20.396  0.00  0.00    +0.000 C 
ATOM      7  C   UNL     1       1.848   5.260  19.005  0.00  0.00    +0.000 C 
ENDROOT
BRANCH   4   8
ATOM      8  O   UNL     1       0.161   2.762  19.732  0.00  0.00    +0.000 OA
ATOM      9  H   UNL     1      -0.102   1.889  20.076  0.00  0.00    +0.000 HD
ENDBRANCH   4   8
BRANCH   6  10
ATOM     10  O   UNL     1       2.423   5.154  21.366  0.00  0.00    +0.000 OA
ATOM     11  H   UNL     1       2.960   5.841  20.935  0.00  0.00    +0.000 HD
ENDBRANCH   6  10
BRANCH   1  12
ATOM     12  C   UNL     1       4.318   5.083  18.779  0.00  0.00    +0.000 C 
BRANCH  12  15
ATOM     13  C   UNL     1       6.469   5.004  15.646  0.00  0.00    +0.000 A 
ATOM     14  C   UNL     1       5.200   4.858  16.291  0.00  0.00    +0.000 A 
ATOM     15  C   UNL     1       5.342   5.142  17.652  0.00  0.00    +0.000 A 
ATOM     16  N   UNL     1       6.676   5.427  17.843  0.00  0.00    +0.000 N 
ATOM     17  C   UNL     1       7.375   5.725  19.071  0.00  0.00    +0.000 C 
ATOM     18  C   UNL     1       7.346   5.362  16.648  0.00  0.00    +0.000 A 
BRANCH  13  20
ATOM     19  C   UNL     1       6.210   3.821  13.379  0.00  0.00    +0.000 C 
ATOM     20  C   UNL     1       6.898   4.834  14.252  0.00  0.00    +0.000 C 
ATOM     21  O   UNL     1       7.819   5.503  13.784  0.00  0.00    +0.000 OA
ENDBRANCH  13  20
ENDBRANCH  12  15
ENDBRANCH   1  12
TORSDOF 5
ENDMDL
MODEL 4
REMARK VINA RESULT:      -7.0      1.228      1.438
REMARK  Name = 
REMARK  8 active torsions:
REMARK  status: ('A' for Active; 'I' for Inactive)
REMARK    1  A    between atoms: C_1  and  C_2
REMARK    2  A    between atoms: C_2  and  C_4
REMARK    3  A    between atoms: C_6  and  C_7
REMARK    4  A    between atoms: C_7  and  N_8
REMARK    5  A    between atoms: C_11  and  C_12
REMARK    6  A    between atoms: C_11  and  O_13
REMARK    7  A    between atoms: C_14  and  O_15
REMARK    8  A    between atoms: N_17  and  C_18
REMARK                            x       y       z     vdW  Elec       q    Type
REMARK                         _______ _______ _______ _____ _____    ______ ____
ROOT
ATOM      1  N   UNL     1       3.630   4.756  17.937  0.00  0.00    +0.000 NA
ATOM      2  C   UNL     1       2.175   4.703  17.768  0.00  0.00    +0.000 C 
ATOM      3  C   UNL     1       1.443   3.723  18.695  0.00  0.00    +0.000 C 
ATOM      4  C   UNL     1       1.767   3.938  20.183  0.00  0.00    +0.000 C 
ATOM      5  C   UNL     1       1.171   2.794  21.021  0.00  0.00    +0.000 C 
ATOM      6  C   UNL     1       3.294   4.074  20.400  0.00  0.00    +0.000 C 
ATOM      7  C   UNL     1       3.960   5.000  19.354  0.00  0.00    +0.000 C 
ENDROOT
BRANCH   4   8
ATOM      8  O   UNL     1       1.131   5.156  20.614  0.00  0.00    +0.000 OA
ATOM      9  H   UNL     1       0.585   4.946  21.393  0.00  0.00    +0.000 HD
ENDBRANCH   4   8
BRANCH   6  10
ATOM     10  O   UNL     1       3.938   2.795  20.380  0.00  0.00    +0.000 OA
ATOM     11  H   UNL     1       4.887   2.957  20.246  0.00  0.00    +0.000 HD
ENDBRANCH   6  10
BRANCH   1  12
ATOM     12  C   UNL     1       4.351   3.636  17.312  0.00  0.00    +0.000 C 
BRANCH  12  15
ATOM     13  C   UNL     1       6.700   4.589  14.479  0.00  0.00    +0.000 A 
ATOM     14  C   UNL     1       5.437   4.095  14.940  0.00  0.00    +0.000 A 
ATOM     15  C   UNL     1       5.424   4.105  16.338  0.00  0.00    +0.000 A 
ATOM     16  N   UNL     1       6.663   4.566  16.726  0.00  0.00    +0.000 N 
ATOM     17  C   UNL     1       7.202   4.711  18.058  0.00  0.00    +0.000 C 
ATOM     18  C   UNL     1       7.418   4.870  15.622  0.00  0.00    +0.000 A 
BRANCH  13  20
ATOM     19  C   UNL     1       6.865   3.861  12.020  0.00  0.00    +0.000 C 
ATOM     20  C   UNL     1       7.254   4.793  13.135  0.00  0.00    +0.000 C 
ATOM     21  O   UNL     1       8.038   5.713  12.903  0.00  0.00    +0.000 OA
ENDBRANCH  13  20
ENDBRANCH  12  15
ENDBRANCH   1  12
TORSDOF 5
ENDMDL
MODEL 5
REMARK VINA RESULT:      -6.9      1.363      1.877
REMARK  Name = 
REMARK  8 active torsions:
REMARK  status: ('A' for Active; 'I' for Inactive)
REMARK    1  A    between atoms: C_1  and  C_2
REMARK    2  A    between atoms: C_2  and  C_4
REMARK    3  A    between atoms: C_6  and  C_7
REMARK    4  A    between atoms: C_7  and  N_8
REMARK    5  A    between atoms: C_11  and  C_12
REMARK    6  A    between atoms: C_11  and  O_13
REMARK    7  A    between atoms: C_14  and  O_15
REMARK    8  A    between atoms: N_17  and  C_18
REMARK                            x       y       z     vdW  Elec       q    Type
REMARK                         _______ _______ _______ _____ _____    ______ ____
ROOT
ATOM      1  N   UNL     1       4.548   3.888  17.979  0.00  0.00    +0.000 NA
ATOM      2  C   UNL     1       4.579   4.421  19.344  0.00  0.00    +0.000 C 
ATOM      3  C   UNL     1       3.205   4.707  19.967  0.00  0.00    +0.000 C 
ATOM      4  C   UNL     1       2.256   3.499  19.922  0.00  0.00    +0.000 C 
ATOM      5  C   UNL     1       0.845   3.923  20.365  0.00  0.00    +0.000 C 
ATOM      6  C   UNL     1       2.247   2.858  18.514  0.00  0.00    +0.000 C 
ATOM      7  C   UNL     1       3.670   2.704  17.924  0.00  0.00    +0.000 C 
ENDROOT
BRANCH   4   8
ATOM      8  O   UNL     1       2.721   2.520  20.870  0.00  0.00    +0.000 OA
ATOM      9  H   UNL     1       2.072   2.476  21.595  0.00  0.00    +0.000 HD
ENDBRANCH   4   8
BRANCH   6  10
ATOM     10  O   UNL     1       1.434   3.609  17.605  0.00  0.00    +0.000 OA
ATOM     11  H   UNL     1       1.824   4.498  17.543  0.00  0.00    +0.000 HD
ENDBRANCH   6  10
BRANCH   1  12
ATOM     12  C   UNL     1       4.295   4.902  16.942  0.00  0.00    +0.000 C 
BRANCH  12  15
ATOM     13  C   UNL     1       6.254   4.236  13.753  0.00  0.00    +0.000 A 
ATOM     14  C   UNL     1       5.045   4.148  14.515  0.00  0.00    +0.000 A 
ATOM     15  C   UNL     1       5.239   4.767  15.754  0.00  0.00    +0.000 A 
ATOM     16  N   UNL     1       6.547   5.198  15.762  0.00  0.00    +0.000 N 
ATOM     17  C   UNL     1       7.285   5.843  16.823  0.00  0.00    +0.000 C 
ATOM     18  C   UNL     1       7.148   4.898  14.567  0.00  0.00    +0.000 A 
BRANCH  13  20
ATOM     19  C   UNL     1       5.950   2.540  11.846  0.00  0.00    +0.000 C 
ATOM     20  C   UNL     1       6.615   3.766  12.410  0.00  0.00    +0.000 C 
ATOM     21  O   UNL     1       7.459   4.355  11.735  0.00  0.00    +0.000 OA
ENDBRANCH  13  20
ENDBRANCH  12  15
ENDBRANCH   1  12
TORSDOF 5
ENDMDL
MODEL 6
REMARK VINA RESULT:      -6.8      1.642      2.209
REMARK  Name = 
REMARK  8 active torsions:
REMARK  status: ('A' for Active; 'I' for Inactive)
REMARK    1  A    between atoms: C_1  and  C_2
REMARK    2  A    between atoms: C_2  and  C_4
REMARK    3  A    between atoms: C_6  and  C_7
REMARK    4  A    between atoms: C_7  and  N_8
REMARK    5  A    between atoms: C_11  and  C_12
REMARK    6  A    between atoms: C_11  and  O_13
REMARK    7  A    between atoms: C_14  and  O_15
REMARK    8  A    between atoms: N_17  and  C_18
REMARK                            x       y       z     vdW  Elec       q    Type
REMARK                         _______ _______ _______ _____ _____    ______ ____
ROOT
ATOM      1  N   UNL     1       3.966   4.912  19.613  0.00  0.00    +0.000 NA
ATOM      2  C   UNL     1       2.814   5.012  20.514  0.00  0.00    +0.000 C 
ATOM      3  C   UNL     1       1.510   4.401  19.982  0.00  0.00    +0.000 C 
ATOM      4  C   UNL     1       1.667   2.940  19.530  0.00  0.00    +0.000 C 
ATOM      5  C   UNL     1       0.385   2.471  18.818  0.00  0.00    +0.000 C 
ATOM      6  C   UNL     1       2.916   2.772  18.632  0.00  0.00    +0.000 C 
ATOM      7  C   UNL     1       4.154   3.509  19.197  0.00  0.00    +0.000 C 
ENDROOT
BRANCH   4   8
ATOM      8  O   UNL     1       1.827   2.116  20.700  0.00  0.00    +0.000 OA
ATOM      9  H   UNL     1       2.720   2.276  21.056  0.00  0.00    +0.000 HD
ENDBRANCH   4   8
BRANCH   6  10
ATOM     10  O   UNL     1       2.662   3.223  17.297  0.00  0.00    +0.000 OA
ATOM     11  H   UNL     1       1.701   3.175  17.158  0.00  0.00    +0.000 HD
ENDBRANCH   6  10
BRANCH   1  12
ATOM     12  C   UNL     1       3.959   5.893  18.515  0.00  0.00    +0.000 C 
BRANCH  12  15
ATOM     13  C   UNL     1       6.374   5.192  15.665  0.00  0.00    +0.000 A 
ATOM     14  C   UNL     1       5.042   5.391  16.150  0.00  0.00    +0.000 A 
ATOM     15  C   UNL     1       5.090   5.661  17.521  0.00  0.00    +0.000 A 
ATOM     16  N   UNL     1       6.420   5.598  17.874  0.00  0.00    +0.000 N 
ATOM     17  C   UNL     1       7.021   5.734  19.180  0.00  0.00    +0.000 C 
ATOM     18  C   UNL     1       7.187   5.335  16.769  0.00  0.00    +0.000 A 
BRANCH  13  20
ATOM     19  C   UNL     1       6.242   3.832  13.487  0.00  0.00    +0.000 C 
ATOM     20  C   UNL     1       6.907   4.884  14.332  0.00  0.00    +0.000 C 
ATOM     21  O   UNL     1       7.898   5.470  13.892  0.00  0.00    +0.000 OA
ENDBRANCH  13  20
ENDBRANCH  12  15
ENDBRANCH   1  12
TORSDOF 5
ENDMDL
MODEL 7
REMARK VINA RESULT:      -6.7      1.099      1.220
REMARK  Name = 
REMARK  8 active torsions:
REMARK  status: ('A' for Active; 'I' for Inactive)
REMARK    1  A    between atoms: C_1  and  C_2
REMARK    2  A    between atoms: C_2  and  C_4
REMARK    3  A    between atoms: C_6  and  C_7
REMARK    4  A    between atoms: C_7  and  N_8
REMARK    5  A    between atoms: C_11  and  C_12
REMARK    6  A    between atoms: C_11  and  O_13
REMARK    7  A    between atoms: C_14  and  O_15
REMARK    8  A    between atoms: N_17  and  C_18
REMARK                            x       y       z     vdW  Elec       q    Type
REMARK                         _______ _______ _______ _____ _____    ______ ____
ROOT
ATOM      1  N   UNL     1       4.074   2.877  17.890  0.00  0.00    +0.000 NA
ATOM      2  C   UNL     1       3.649   2.034  19.011  0.00  0.00    +0.000 C 
ATOM      3  C   UNL     1       2.731   2.718  20.035  0.00  0.00    +0.000 C 
ATOM      4  C   UNL     1       1.491   3.366  19.398  0.00  0.00    +0.000 C 
ATOM      5  C   UNL     1       0.741   4.206  20.447  0.00  0.00    +0.000 C 
ATOM      6  C   UNL     1       1.885   4.211  18.162  0.00  0.00    +0.000 C 
ATOM      7  C   UNL     1       2.892   3.480  17.243  0.00  0.00    +0.000 C 
ENDROOT
BRANCH   4   8
ATOM      8  O   UNL     1       0.598   2.319  18.975  0.00  0.00    +0.000 OA
ATOM      9  H   UNL     1       0.589   1.637  19.670  0.00  0.00    +0.000 HD
ENDBRANCH   4   8
BRANCH   6  10
ATOM     10  O   UNL     1       2.426   5.478  18.548  0.00  0.00    +0.000 OA
ATOM     11  H   UNL     1       1.890   5.802  19.292  0.00  0.00    +0.000 HD
ENDBRANCH   6  10
BRANCH   1  12
ATOM     12  C   UNL     1       5.154   3.821  18.221  0.00  0.00    +0.000 C 
BRANCH  12  15
ATOM     13  C   UNL     1       6.712   4.684  14.863  0.00  0.00    +0.000 A 
ATOM     14  C   UNL     1       5.808   3.907  15.655  0.00  0.00    +0.000 A 
ATOM     15  C   UNL     1       5.869   4.344  16.981  0.00  0.00    +0.000 A 
ATOM     16  N   UNL     1       6.813   5.347  17.007  0.00  0.00    +0.000 N 
ATOM     17  C   UNL     1       7.310   6.097  18.137  0.00  0.00    +0.000 C 
ATOM     18  C   UNL     1       7.304   5.563  15.746  0.00  0.00    +0.000 A 
BRANCH  13  20
ATOM     19  C   UNL     1       6.401   3.648  12.531  0.00  0.00    +0.000 C 
ATOM     20  C   UNL     1       7.051   4.659  13.434  0.00  0.00    +0.000 C 
ATOM     21  O   UNL     1       7.867   5.451  12.961  0.00  0.00    +0.000 OA
ENDBRANCH  13  20
ENDBRANCH  12  15
ENDBRANCH   1  12
TORSDOF 5
ENDMDL
MODEL 8
REMARK VINA RESULT:      -6.6      1.624      2.278
REMARK  Name = 
REMARK  8 active torsions:
REMARK  status: ('A' for Active; 'I' for Inactive)
REMARK    1  A    between atoms: C_1  and  C_2
REMARK    2  A    between atoms: C_2  and  C_4
REMARK    3  A    between atoms: C_6  and  C_7
REMARK    4  A    between atoms: C_7  and  N_8
REMARK    5  A    between atoms: C_11  and  C_12
REMARK    6  A    between atoms: C_11  and  O_13
REMARK    7  A    between atoms: C_14  and  O_15
REMARK    8  A    between atoms: N_17  and  C_18
REMARK                            x       y       z     vdW  Elec       q    Type
REMARK                         _______ _______ _______ _____ _____    ______ ____
ROOT
ATOM      1  N   UNL     1       4.270   3.212  18.312  0.00  0.00    +0.000 NA
ATOM      2  C   UNL     1       4.268   4.089  19.486  0.00  0.00    +0.000 C 
ATOM      3  C   UNL     1       2.938   4.159  20.250  0.00  0.00    +0.000 C 
ATOM      4  C   UNL     1       2.398   2.777  20.655  0.00  0.00    +0.000 C 
ATOM      5  C   UNL     1       0.974   2.915  21.219  0.00  0.00    +0.000 C 
ATOM      6  C   UNL     1       2.450   1.794  19.461  0.00  0.00    +0.000 C 
ATOM      7  C   UNL     1       3.791   1.869  18.691  0.00  0.00    +0.000 C 
ENDROOT
BRANCH   4   8
ATOM      8  O   UNL     1       3.226   2.260  21.714  0.00  0.00    +0.000 OA
ATOM      9  H   UNL     1       3.262   1.291  21.616  0.00  0.00    +0.000 HD
ENDBRANCH   4   8
BRANCH   6  10
ATOM     10  O   UNL     1       1.367   2.020  18.553  0.00  0.00    +0.000 OA
ATOM     11  H   UNL     1       0.748   2.628  18.993  0.00  0.00    +0.000 HD
ENDBRANCH   6  10
BRANCH   1  12
ATOM     12  C   UNL     1       3.626   3.794  17.124  0.00  0.00    +0.000 C 
BRANCH  12  15
ATOM     13  C   UNL     1       6.252   4.947  14.630  0.00  0.00    +0.000 A 
ATOM     14  C   UNL     1       5.439   3.914  15.197  0.00  0.00    +0.000 A 
ATOM     15  C   UNL     1       4.625   4.465  16.190  0.00  0.00    +0.000 A 
ATOM     16  N   UNL     1       4.953   5.801  16.252  0.00  0.00    +0.000 N 
ATOM     17  C   UNL     1       4.458   6.818  17.150  0.00  0.00    +0.000 C 
ATOM     18  C   UNL     1       5.909   6.094  15.314  0.00  0.00    +0.000 A 
BRANCH  13  20
ATOM     19  C   UNL     1       7.096   4.042  12.377  0.00  0.00    +0.000 C 
ATOM     20  C   UNL     1       7.270   4.939  13.571  0.00  0.00    +0.000 C 
ATOM     21  O   UNL     1       8.271   5.652  13.646  0.00  0.00    +0.000 OA
ENDBRANCH  13  20
ENDBRANCH  12  15
ENDBRANCH   1  12
TORSDOF 5
ENDMDL
MODEL 9
REMARK VINA RESULT:      -6.6      1.294      1.978
REMARK  Name = 
REMARK  8 active torsions:
REMARK  status: ('A' for Active; 'I' for Inactive)
REMARK    1  A    between atoms: C_1  and  C_2
REMARK    2  A    between atoms: C_2  and  C_4
REMARK    3  A    between atoms: C_6  and  C_7
REMARK    4  A    between atoms: C_7  and  N_8
REMARK    5  A    between atoms: C_11  and  C_12
REMARK    6  A    between atoms: C_11  and  O_13
REMARK    7  A    between atoms: C_14  and  O_15
REMARK    8  A    between atoms: N_17  and  C_18
REMARK                            x       y       z     vdW  Elec       q    Type
REMARK                         _______ _______ _______ _____ _____    ______ ____
ROOT
ATOM      1  N   UNL     1       4.650   4.258  18.484  0.00  0.00    +0.000 NA
ATOM      2  C   UNL     1       3.765   5.408  18.690  0.00  0.00    +0.000 C 
ATOM      3  C   UNL     1       2.301   5.062  18.998  0.00  0.00    +0.000 C 
ATOM      4  C   UNL     1       2.144   4.090  20.179  0.00  0.00    +0.000 C 
ATOM      5  C   UNL     1       0.680   3.628  20.288  0.00  0.00    +0.000 C 
ATOM      6  C   UNL     1       3.114   2.893  20.041  0.00  0.00    +0.000 C 
ATOM      7  C   UNL     1       4.540   3.332  19.627  0.00  0.00    +0.000 C 
ENDROOT
BRANCH   4   8
ATOM      8  O   UNL     1       2.456   4.798  21.394  0.00  0.00    +0.000 OA
ATOM      9  H   UNL     1       3.423   4.909  21.433  0.00  0.00    +0.000 HD
ENDBRANCH   4   8
BRANCH   6  10
ATOM     10  O   UNL     1       2.623   1.929  19.102  0.00  0.00    +0.000 OA
ATOM     11  H   UNL     1       3.360   1.710  18.507  0.00  0.00    +0.000 HD
ENDBRANCH   6  10
BRANCH   1  12
ATOM     12  C   UNL     1       4.524   3.631  17.158  0.00  0.00    +0.000 C 
BRANCH  12  15
ATOM     13  C   UNL     1       6.827   4.655  14.312  0.00  0.00    +0.000 A 
ATOM     14  C   UNL     1       5.575   4.142  14.780  0.00  0.00    +0.000 A 
ATOM     15  C   UNL     1       5.580   4.127  16.178  0.00  0.00    +0.000 A 
ATOM     16  N   UNL     1       6.820   4.593  16.558  0.00  0.00    +0.000 N 
ATOM     17  C   UNL     1       7.375   4.721  17.885  0.00  0.00    +0.000 C 
ATOM     18  C   UNL     1       7.557   4.923  15.450  0.00  0.00    +0.000 A 
BRANCH  13  20
ATOM     19  C   UNL     1       6.962   3.974  11.837  0.00  0.00    +0.000 C 
ATOM     20  C   UNL     1       7.361   4.887  12.964  0.00  0.00    +0.000 C 
ATOM     21  O   UNL     1       8.137   5.816  12.739  0.00  0.00    +0.000 OA
ENDBRANCH  13  20
ENDBRANCH  12  15
ENDBRANCH   1  12
TORSDOF 5
ENDMDL
