MODEL 1
REMARK VINA RESULT:      -7.9      0.000      0.000
REMARK  Name = 
REMARK  5 active torsions:
REMARK  status: ('A' for Active; 'I' for Inactive)
REMARK    1  A    between atoms: C_2  and  C_3
REMARK    2  A    between atoms: C_2  and  C_14
REMARK    3  A    between atoms: C_12  and  O_13
REMARK    4  A    between atoms: C_14  and  O_15
REMARK    5  A    between atoms: C_14  and  C_16
REMARK                            x       y       z     vdW  Elec       q    Type
REMARK                         _______ _______ _______ _____ _____    ______ ____
ROOT
ATOM      1  C   UNL     1       5.762   4.410  17.956  0.00  0.00    +0.000 A 
ATOM      2  N   UNL     1       4.681   3.810  17.384  0.00  0.00    +0.000 NA
ATOM      3  C   UNL     1       3.575   3.697  18.149  0.00  0.00    +0.000 A 
ATOM      4  C   UNL     1       2.418   3.148  17.608  0.00  0.00    +0.000 A 
ATOM      5  C   UNL     1       1.243   3.044  18.354  0.00  0.00    +0.000 A 
ATOM      6  C   UNL     1       1.225   3.485  19.670  0.00  0.00    +0.000 A 
ATOM      7  C   UNL     1       2.382   4.029  20.230  0.00  0.00    +0.000 A 
ATOM      8  C   UNL     1       3.554   4.151  19.493  0.00  0.00    +0.000 A 
ATOM      9  N   UNL     1       4.639   4.708  20.063  0.00  0.00    +0.000 NA
ATOM     10  C   UNL     1       5.727   4.837  19.274  0.00  0.00    +0.000 A 
ENDROOT
BRANCH   1  12
ATOM     11  O   UNL     1       8.009   4.102  17.257  0.00  0.00    +0.000 OA
ATOM     12  C   UNL     1       6.926   4.659  17.067  0.00  0.00    +0.000 C 
BRANCH  12  13
ATOM     13  C   UNL     1       6.738   5.675  15.940  0.00  0.00    +0.000 C 
BRANCH  13  14
ATOM     14  C   UNL     1       6.803   4.989  14.620  0.00  0.00    +0.000 A 
ATOM     15  C   UNL     1       6.062   3.980  14.040  0.00  0.00    +0.000 A 
ATOM     16  C   UNL     1       6.574   3.806  12.730  0.00  0.00    +0.000 A 
ATOM     17  C   UNL     1       7.592   4.719  12.592  0.00  0.00    +0.000 A 
ATOM     18  O   UNL     1       7.739   5.441  13.732  0.00  0.00    +0.000 OA
ENDBRANCH  13  14
BRANCH  13  19
ATOM     19  O   UNL     1       7.797   6.634  15.944  0.00  0.00    +0.000 OA
ATOM     20  H   UNL     1       8.611   6.107  15.814  0.00  0.00    +0.000 HD
ENDBRANCH  13  19
ENDBRANCH  12  13
ENDBRANCH   1  12
BRANCH  10  21
ATOM     21  O   UNL     1       6.762   5.414  19.926  0.00  0.00    +0.000 OA
ATOM     22  H   UNL     1       7.288   5.757  19.183  0.00  0.00    +0.000 HD
ENDBRANCH  10  21
TORSDOF 5
ENDMDL
MODEL 2
REMARK VINA RESULT:      -7.9      1.935      6.305
REMARK  Name = 
REMARK  5 active torsions:
REMARK  status: ('A' for Active; 'I' for Inactive)
REMARK    1  A    between atoms: C_2  and  C_3
REMARK    2  A    between atoms: C_2  and  C_14
REMARK    3  A    between atoms: C_12  and  O_13
REMARK    4  A    between atoms: C_14  and  O_15
REMARK    5  A    between atoms: C_14  and  C_16
REMARK                            x       y       z     vdW  Elec       q    Type
REMARK                         _______ _______ _______ _____ _____    ______ ____
ROOT
ATOM      1  C   UNL     1       5.879   4.459  16.833  0.00  0.00    +0.000 A 
ATOM      2  N   UNL     1       5.381   3.834  15.730  0.00  0.00    +0.000 NA
ATOM      3  C   UNL     1       6.007   4.079  14.560  0.00  0.00    +0.000 A 
ATOM      4  C   UNL     1       5.587   3.427  13.406  0.00  0.00    +0.000 A 
ATOM      5  C   UNL     1       6.228   3.627  12.183  0.00  0.00    +0.000 A 
ATOM      6  C   UNL     1       7.303   4.502  12.106  0.00  0.00    +0.000 A 
ATOM      7  C   UNL     1       7.730   5.170  13.254  0.00  0.00    +0.000 A 
ATOM      8  C   UNL     1       7.108   4.971  14.481  0.00  0.00    +0.000 A 
ATOM      9  N   UNL     1       7.570   5.614  15.570  0.00  0.00    +0.000 NA
ATOM     10  C   UNL     1       6.948   5.336  16.736  0.00  0.00    +0.000 A 
ENDROOT
BRANCH   1  12
ATOM     11  O   UNL     1       5.850   4.312  19.203  0.00  0.00    +0.000 OA
ATOM     12  C   UNL     1       5.277   4.077  18.137  0.00  0.00    +0.000 C 
BRANCH  12  13
ATOM     13  C   UNL     1       3.941   3.335  18.096  0.00  0.00    +0.000 C 
BRANCH  13  14
ATOM     14  C   UNL     1       3.217   3.516  19.385  0.00  0.00    +0.000 A 
ATOM     15  C   UNL     1       2.385   4.502  19.873  0.00  0.00    +0.000 A 
ATOM     16  C   UNL     1       1.956   4.071  21.152  0.00  0.00    +0.000 A 
ATOM     17  C   UNL     1       2.550   2.850  21.365  0.00  0.00    +0.000 A 
ATOM     18  O   UNL     1       3.317   2.504  20.299  0.00  0.00    +0.000 OA
ENDBRANCH  13  14
BRANCH  13  19
ATOM     19  O   UNL     1       4.150   1.929  17.951  0.00  0.00    +0.000 OA
ATOM     20  H   UNL     1       4.759   1.844  17.191  0.00  0.00    +0.000 HD
ENDBRANCH  13  19
ENDBRANCH  12  13
ENDBRANCH   1  12
BRANCH  10  21
ATOM     21  O   UNL     1       7.484   6.019  17.773  0.00  0.00    +0.000 OA
ATOM     22  H   UNL     1       8.402   6.135  17.470  0.00  0.00    +0.000 HD
ENDBRANCH  10  21
TORSDOF 5
ENDMDL
MODEL 3
REMARK VINA RESULT:      -7.7      0.856      1.259
REMARK  Name = 
REMARK  5 active torsions:
REMARK  status: ('A' for Active; 'I' for Inactive)
REMARK    1  A    between atoms: C_2  and  C_3
REMARK    2  A    between atoms: C_2  and  C_14
REMARK    3  A    between atoms: C_12  and  O_13
REMARK    4  A    between atoms: C_14  and  O_15
REMARK    5  A    between atoms: C_14  and  C_16
REMARK                            x       y       z     vdW  Elec       q    Type
REMARK                         _______ _______ _______ _____ _____    ______ ____
ROOT
ATOM      1  C   UNL     1       5.308   4.932  17.588  0.00  0.00    +0.000 A 
ATOM      2  N   UNL     1       4.123   4.446  17.126  0.00  0.00    +0.000 NA
ATOM      3  C   UNL     1       3.370   3.749  18.003  0.00  0.00    +0.000 A 
ATOM      4  C   UNL     1       2.123   3.275  17.612  0.00  0.00    +0.000 A 
ATOM      5  C   UNL     1       1.299   2.579  18.498  0.00  0.00    +0.000 A 
ATOM      6  C   UNL     1       1.732   2.340  19.795  0.00  0.00    +0.000 A 
ATOM      7  C   UNL     1       2.987   2.801  20.198  0.00  0.00    +0.000 A 
ATOM      8  C   UNL     1       3.811   3.507  19.330  0.00  0.00    +0.000 A 
ATOM      9  N   UNL     1       5.002   3.959  19.767  0.00  0.00    +0.000 NA
ATOM     10  C   UNL     1       5.728   4.677  18.885  0.00  0.00    +0.000 A 
ENDROOT
BRANCH   1  12
ATOM     11  O   UNL     1       5.650   6.937  16.364  0.00  0.00    +0.000 OA
ATOM     12  C   UNL     1       6.065   5.816  16.664  0.00  0.00    +0.000 C 
BRANCH  12  13
ATOM     13  C   UNL     1       7.353   5.253  16.062  0.00  0.00    +0.000 C 
BRANCH  13  14
ATOM     14  C   UNL     1       7.097   4.767  14.677  0.00  0.00    +0.000 A 
ATOM     15  C   UNL     1       6.212   3.853  14.144  0.00  0.00    +0.000 A 
ATOM     16  C   UNL     1       6.410   3.872  12.741  0.00  0.00    +0.000 A 
ATOM     17  C   UNL     1       7.401   4.795  12.506  0.00  0.00    +0.000 A 
ATOM     18  O   UNL     1       7.824   5.343  13.674  0.00  0.00    +0.000 OA
ENDBRANCH  13  14
BRANCH  13  19
ATOM     19  O   UNL     1       7.803   4.118  16.805  0.00  0.00    +0.000 OA
ATOM     20  H   UNL     1       7.782   3.378  16.167  0.00  0.00    +0.000 HD
ENDBRANCH  13  19
ENDBRANCH  12  13
ENDBRANCH   1  12
BRANCH  10  21
ATOM     21  O   UNL     1       6.900   5.096  19.413  0.00  0.00    +0.000 OA
ATOM     22  H   UNL     1       7.541   4.676  18.813  0.00  0.00    +0.000 HD
ENDBRANCH  10  21
TORSDOF 5
ENDMDL
MODEL 4
REMARK VINA RESULT:      -7.7      1.839      3.086
REMARK  Name = 
REMARK  5 active torsions:
REMARK  status: ('A' for Active; 'I' for Inactive)
REMARK    1  A    between atoms: C_2  and  C_3
REMARK    2  A    between atoms: C_2  and  C_14
REMARK    3  A    between atoms: C_12  and  O_13
REMARK    4  A    between atoms: C_14  and  O_15
REMARK    5  A    between atoms: C_14  and  C_16
REMARK                            x       y       z     vdW  Elec       q    Type
REMARK                         _______ _______ _______ _____ _____    ______ ____
ROOT
ATOM      1  C   UNL     1       4.610   4.563  16.609  0.00  0.00    +0.000 A 
ATOM      2  N   UNL     1       4.224   3.347  17.085  0.00  0.00    +0.000 NA
ATOM      3  C   UNL     1       3.298   3.346  18.067  0.00  0.00    +0.000 A 
ATOM      4  C   UNL     1       2.817   2.137  18.557  0.00  0.00    +0.000 A 
ATOM      5  C   UNL     1       1.836   2.092  19.549  0.00  0.00    +0.000 A 
ATOM      6  C   UNL     1       1.333   3.275  20.071  0.00  0.00    +0.000 A 
ATOM      7  C   UNL     1       1.814   4.496  19.596  0.00  0.00    +0.000 A 
ATOM      8  C   UNL     1       2.781   4.555  18.600  0.00  0.00    +0.000 A 
ATOM      9  N   UNL     1       3.197   5.754  18.150  0.00  0.00    +0.000 NA
ATOM     10  C   UNL     1       4.102   5.735  17.149  0.00  0.00    +0.000 A 
ENDROOT
BRANCH   1  12
ATOM     11  O   UNL     1       5.083   4.533  14.283  0.00  0.00    +0.000 OA
ATOM     12  C   UNL     1       5.520   4.554  15.435  0.00  0.00    +0.000 C 
BRANCH  12  13
ATOM     13  C   UNL     1       7.022   4.520  15.720  0.00  0.00    +0.000 C 
BRANCH  13  14
ATOM     14  C   UNL     1       7.328   5.316  16.941  0.00  0.00    +0.000 A 
ATOM     15  C   UNL     1       7.563   4.976  18.258  0.00  0.00    +0.000 A 
ATOM     16  C   UNL     1       7.860   6.183  18.938  0.00  0.00    +0.000 A 
ATOM     17  C   UNL     1       7.789   7.182  17.997  0.00  0.00    +0.000 A 
ATOM     18  O   UNL     1       7.467   6.667  16.782  0.00  0.00    +0.000 OA
ENDBRANCH  13  14
BRANCH  13  19
ATOM     19  O   UNL     1       7.752   5.131  14.654  0.00  0.00    +0.000 OA
ATOM     20  H   UNL     1       7.081   5.318  13.968  0.00  0.00    +0.000 HD
ENDBRANCH  13  19
ENDBRANCH  12  13
ENDBRANCH   1  12
BRANCH  10  21
ATOM     21  O   UNL     1       4.453   6.981  16.756  0.00  0.00    +0.000 OA
ATOM     22  H   UNL     1       3.584   7.363  16.540  0.00  0.00    +0.000 HD
ENDBRANCH  10  21
TORSDOF 5
ENDMDL
MODEL 5
REMARK VINA RESULT:      -7.6      1.968      5.958
REMARK  Name = 
REMARK  5 active torsions:
REMARK  status: ('A' for Active; 'I' for Inactive)
REMARK    1  A    between atoms: C_2  and  C_3
REMARK    2  A    between atoms: C_2  and  C_14
REMARK    3  A    between atoms: C_12  and  O_13
REMARK    4  A    between atoms: C_14  and  O_15
REMARK    5  A    between atoms: C_14  and  C_16
REMARK                            x       y       z     vdW  Elec       q    Type
REMARK                         _______ _______ _______ _____ _____    ______ ____
ROOT
ATOM      1  C   UNL     1       5.751   4.858  17.129  0.00  0.00    +0.000 A 
ATOM      2  N   UNL     1       5.162   4.193  16.097  0.00  0.00    +0.000 NA
ATOM      3  C   UNL     1       5.789   4.249  14.903  0.00  0.00    +0.000 A 
ATOM      4  C   UNL     1       5.273   3.544  13.822  0.00  0.00    +0.000 A 
ATOM      5  C   UNL     1       5.908   3.548  12.579  0.00  0.00    +0.000 A 
ATOM      6  C   UNL     1       7.075   4.279  12.408  0.00  0.00    +0.000 A 
ATOM      7  C   UNL     1       7.600   5.001  13.482  0.00  0.00    +0.000 A 
ATOM      8  C   UNL     1       6.984   4.994  14.727  0.00  0.00    +0.000 A 
ATOM      9  N   UNL     1       7.538   5.680  15.745  0.00  0.00    +0.000 NA
ATOM     10  C   UNL     1       6.912   5.590  16.937  0.00  0.00    +0.000 A 
ENDROOT
BRANCH   1  12
ATOM     11  O   UNL     1       5.505   3.780  19.230  0.00  0.00    +0.000 OA
ATOM     12  C   UNL     1       5.135   4.676  18.469  0.00  0.00    +0.000 C 
BRANCH  12  13
ATOM     13  C   UNL     1       3.987   5.616  18.840  0.00  0.00    +0.000 C 
BRANCH  13  14
ATOM     14  C   UNL     1       2.818   4.827  19.321  0.00  0.00    +0.000 A 
ATOM     15  C   UNL     1       2.055   4.874  20.470  0.00  0.00    +0.000 A 
ATOM     16  C   UNL     1       1.037   3.900  20.316  0.00  0.00    +0.000 A 
ATOM     17  C   UNL     1       1.241   3.323  19.085  0.00  0.00    +0.000 A 
ATOM     18  O   UNL     1       2.319   3.878  18.474  0.00  0.00    +0.000 OA
ENDBRANCH  13  14
BRANCH  13  19
ATOM     19  O   UNL     1       3.534   6.336  17.691  0.00  0.00    +0.000 OA
ATOM     20  H   UNL     1       3.364   5.649  17.017  0.00  0.00    +0.000 HD
ENDBRANCH  13  19
ENDBRANCH  12  13
ENDBRANCH   1  12
BRANCH  10  21
ATOM     21  O   UNL     1       7.544   6.302  17.898  0.00  0.00    +0.000 OA
ATOM     22  H   UNL     1       8.447   5.944  17.837  0.00  0.00    +0.000 HD
ENDBRANCH  10  21
TORSDOF 5
ENDMDL
MODEL 6
REMARK VINA RESULT:      -7.6      2.168      3.260
REMARK  Name = 
REMARK  5 active torsions:
REMARK  status: ('A' for Active; 'I' for Inactive)
REMARK    1  A    between atoms: C_2  and  C_3
REMARK    2  A    between atoms: C_2  and  C_14
REMARK    3  A    between atoms: C_12  and  O_13
REMARK    4  A    between atoms: C_14  and  O_15
REMARK    5  A    between atoms: C_14  and  C_16
REMARK                            x       y       z     vdW  Elec       q    Type
REMARK                         _______ _______ _______ _____ _____    ______ ____
ROOT
ATOM      1  C   UNL     1       4.569   4.781  17.556  0.00  0.00    +0.000 A 
ATOM      2  N   UNL     1       4.295   3.633  18.236  0.00  0.00    +0.000 NA
ATOM      3  C   UNL     1       3.316   3.697  19.163  0.00  0.00    +0.000 A 
ATOM      4  C   UNL     1       2.946   2.548  19.852  0.00  0.00    +0.000 A 
ATOM      5  C   UNL     1       1.917   2.564  20.795  0.00  0.00    +0.000 A 
ATOM      6  C   UNL     1       1.252   3.752  21.065  0.00  0.00    +0.000 A 
ATOM      7  C   UNL     1       1.620   4.916  20.389  0.00  0.00    +0.000 A 
ATOM      8  C   UNL     1       2.634   4.911  19.438  0.00  0.00    +0.000 A 
ATOM      9  N   UNL     1       2.939   6.050  18.788  0.00  0.00    +0.000 NA
ATOM     10  C   UNL     1       3.900   5.960  17.845  0.00  0.00    +0.000 A 
ENDROOT
BRANCH   1  12
ATOM     11  O   UNL     1       5.175   4.575  15.269  0.00  0.00    +0.000 OA
ATOM     12  C   UNL     1       5.546   4.670  16.441  0.00  0.00    +0.000 C 
BRANCH  12  13
ATOM     13  C   UNL     1       7.027   4.627  16.816  0.00  0.00    +0.000 C 
BRANCH  13  14
ATOM     14  C   UNL     1       7.421   5.899  17.484  0.00  0.00    +0.000 A 
ATOM     15  C   UNL     1       7.981   6.189  18.711  0.00  0.00    +0.000 A 
ATOM     16  C   UNL     1       8.178   7.591  18.743  0.00  0.00    +0.000 A 
ATOM     17  C   UNL     1       7.728   8.070  17.535  0.00  0.00    +0.000 A 
ATOM     18  O   UNL     1       7.267   7.051  16.764  0.00  0.00    +0.000 OA
ENDBRANCH  13  14
BRANCH  13  19
ATOM     19  O   UNL     1       7.840   4.525  15.645  0.00  0.00    +0.000 OA
ATOM     20  H   UNL     1       8.455   3.788  15.832  0.00  0.00    +0.000 HD
ENDBRANCH  13  19
ENDBRANCH  12  13
ENDBRANCH   1  12
BRANCH  10  21
ATOM     21  O   UNL     1       4.131   7.147  17.240  0.00  0.00    +0.000 OA
ATOM     22  H   UNL     1       3.303   7.622  17.429  0.00  0.00    +0.000 HD
ENDBRANCH  10  21
TORSDOF 5
ENDMDL
MODEL 7
REMARK VINA RESULT:      -7.6      1.229      1.639
REMARK  Name = 
REMARK  5 active torsions:
REMARK  status: ('A' for Active; 'I' for Inactive)
REMARK    1  A    between atoms: C_2  and  C_3
REMARK    2  A    between atoms: C_2  and  C_14
REMARK    3  A    between atoms: C_12  and  O_13
REMARK    4  A    between atoms: C_14  and  O_15
REMARK    5  A    between atoms: C_14  and  C_16
REMARK                            x       y       z     vdW  Elec       q    Type
REMARK                         _______ _______ _______ _____ _____    ______ ____
ROOT
ATOM      1  C   UNL     1       4.709   4.962  17.360  0.00  0.00    +0.000 A 
ATOM      2  N   UNL     1       3.553   4.256  17.214  0.00  0.00    +0.000 NA
ATOM      3  C   UNL     1       2.792   4.104  18.318  0.00  0.00    +0.000 A 
ATOM      4  C   UNL     1       1.572   3.445  18.227  0.00  0.00    +0.000 A 
ATOM      5  C   UNL     1       0.739   3.296  19.337  0.00  0.00    +0.000 A 
ATOM      6  C   UNL     1       1.138   3.803  20.566  0.00  0.00    +0.000 A 
ATOM      7  C   UNL     1       2.366   4.458  20.676  0.00  0.00    +0.000 A 
ATOM      8  C   UNL     1       3.197   4.625  19.575  0.00  0.00    +0.000 A 
ATOM      9  N   UNL     1       4.360   5.288  19.718  0.00  0.00    +0.000 NA
ATOM     10  C   UNL     1       5.094   5.454  18.597  0.00  0.00    +0.000 A 
ENDROOT
BRANCH   1  12
ATOM     11  O   UNL     1       5.225   6.238  15.425  0.00  0.00    +0.000 OA
ATOM     12  C   UNL     1       5.470   5.247  16.116  0.00  0.00    +0.000 C 
BRANCH  12  13
ATOM     13  C   UNL     1       6.533   4.228  15.702  0.00  0.00    +0.000 C 
BRANCH  13  14
ATOM     14  C   UNL     1       6.888   4.417  14.268  0.00  0.00    +0.000 A 
ATOM     15  C   UNL     1       6.433   3.846  13.097  0.00  0.00    +0.000 A 
ATOM     16  C   UNL     1       7.121   4.491  12.040  0.00  0.00    +0.000 A 
ATOM     17  C   UNL     1       7.951   5.415  12.629  0.00  0.00    +0.000 A 
ATOM     18  O   UNL     1       7.817   5.378  13.980  0.00  0.00    +0.000 OA
ENDBRANCH  13  14
BRANCH  13  19
ATOM     19  O   UNL     1       6.026   2.897  15.814  0.00  0.00    +0.000 OA
ATOM     20  H   UNL     1       6.500   2.391  15.125  0.00  0.00    +0.000 HD
ENDBRANCH  13  19
ENDBRANCH  12  13
ENDBRANCH   1  12
BRANCH  10  21
ATOM     21  O   UNL     1       6.237   6.137  18.834  0.00  0.00    +0.000 OA
ATOM     22  H   UNL     1       6.824   5.424  19.141  0.00  0.00    +0.000 HD
ENDBRANCH  10  21
TORSDOF 5
ENDMDL
MODEL 8
REMARK VINA RESULT:      -7.6      1.696      2.037
REMARK  Name = 
REMARK  5 active torsions:
REMARK  status: ('A' for Active; 'I' for Inactive)
REMARK    1  A    between atoms: C_2  and  C_3
REMARK    2  A    between atoms: C_2  and  C_14
REMARK    3  A    between atoms: C_12  and  O_13
REMARK    4  A    between atoms: C_14  and  O_15
REMARK    5  A    between atoms: C_14  and  C_16
REMARK                            x       y       z     vdW  Elec       q    Type
REMARK                         _______ _______ _______ _____ _____    ______ ____
ROOT
ATOM      1  C   UNL     1       4.332   5.512  16.953  0.00  0.00    +0.000 A 
ATOM      2  N   UNL     1       4.111   4.168  16.961  0.00  0.00    +0.000 NA
ATOM      3  C   UNL     1       3.140   3.718  17.782  0.00  0.00    +0.000 A 
ATOM      4  C   UNL     1       2.823   2.364  17.795  0.00  0.00    +0.000 A 
ATOM      5  C   UNL     1       1.803   1.863  18.605  0.00  0.00    +0.000 A 
ATOM      6  C   UNL     1       1.092   2.727  19.427  0.00  0.00    +0.000 A 
ATOM      7  C   UNL     1       1.406   4.087  19.433  0.00  0.00    +0.000 A 
ATOM      8  C   UNL     1       2.410   4.600  18.621  0.00  0.00    +0.000 A 
ATOM      9  N   UNL     1       2.662   5.923  18.635  0.00  0.00    +0.000 NA
ATOM     10  C   UNL     1       3.618   6.358  17.787  0.00  0.00    +0.000 A 
ENDROOT
BRANCH   1  12
ATOM     11  O   UNL     1       5.047   6.994  15.242  0.00  0.00    +0.000 OA
ATOM     12  C   UNL     1       5.302   6.016  15.947  0.00  0.00    +0.000 C 
BRANCH  12  13
ATOM     13  C   UNL     1       6.608   5.236  15.787  0.00  0.00    +0.000 C 
BRANCH  13  14
ATOM     14  C   UNL     1       6.720   4.707  14.400  0.00  0.00    +0.000 A 
ATOM     15  C   UNL     1       6.069   3.700  13.716  0.00  0.00    +0.000 A 
ATOM     16  C   UNL     1       6.576   3.719  12.393  0.00  0.00    +0.000 A 
ATOM     17  C   UNL     1       7.502   4.734  12.351  0.00  0.00    +0.000 A 
ATOM     18  O   UNL     1       7.596   5.339  13.563  0.00  0.00    +0.000 OA
ENDBRANCH  13  14
BRANCH  13  19
ATOM     19  O   UNL     1       6.623   4.097  16.650  0.00  0.00    +0.000 OA
ATOM     20  H   UNL     1       7.528   4.076  17.020  0.00  0.00    +0.000 HD
ENDBRANCH  13  19
ENDBRANCH  12  13
ENDBRANCH   1  12
BRANCH  10  21
ATOM     21  O   UNL     1       3.795   7.696  17.864  0.00  0.00    +0.000 OA
ATOM     22  H   UNL     1       4.765   7.757  17.924  0.00  0.00    +0.000 HD
ENDBRANCH  10  21
TORSDOF 5
ENDMDL
MODEL 9
REMARK VINA RESULT:      -7.5      2.359      3.510
REMARK  Name = 
REMARK  5 active torsions:
REMARK  status: ('A' for Active; 'I' for Inactive)
REMARK    1  A    between atoms: C_2  and  C_3
REMARK    2  A    between atoms: C_2  and  C_14
REMARK    3  A    between atoms: C_12  and  O_13
REMARK    4  A    between atoms: C_14  and  O_15
REMARK    5  A    between atoms: C_14  and  C_16
REMARK                            x       y       z     vdW  Elec       q    Type
REMARK                         _______ _______ _______ _____ _____    ______ ____
ROOT
ATOM      1  C   UNL     1       4.297   5.673  17.277  0.00  0.00    +0.000 A 
ATOM      2  N   UNL     1       4.211   4.328  17.470  0.00  0.00    +0.000 NA
ATOM      3  C   UNL     1       3.210   3.892  18.263  0.00  0.00    +0.000 A 
ATOM      4  C   UNL     1       3.030   2.527  18.454  0.00  0.00    +0.000 A 
ATOM      5  C   UNL     1       1.986   2.033  19.239  0.00  0.00    +0.000 A 
ATOM      6  C   UNL     1       1.113   2.918  19.855  0.00  0.00    +0.000 A 
ATOM      7  C   UNL     1       1.288   4.292  19.680  0.00  0.00    +0.000 A 
ATOM      8  C   UNL     1       2.314   4.796  18.891  0.00  0.00    +0.000 A 
ATOM      9  N   UNL     1       2.430   6.127  18.725  0.00  0.00    +0.000 NA
ATOM     10  C   UNL     1       3.420   6.543  17.907  0.00  0.00    +0.000 A 
ENDROOT
BRANCH   1  12
ATOM     11  O   UNL     1       4.985   6.758  15.281  0.00  0.00    +0.000 OA
ATOM     12  C   UNL     1       5.311   6.136  16.294  0.00  0.00    +0.000 C 
BRANCH  12  13
ATOM     13  C   UNL     1       6.767   5.761  16.568  0.00  0.00    +0.000 C 
BRANCH  13  14
ATOM     14  C   UNL     1       7.413   6.807  17.408  0.00  0.00    +0.000 A 
ATOM     15  C   UNL     1       8.089   6.771  18.611  0.00  0.00    +0.000 A 
ATOM     16  C   UNL     1       8.525   8.094  18.868  0.00  0.00    +0.000 A 
ATOM     17  C   UNL     1       8.091   8.854  17.808  0.00  0.00    +0.000 A 
ATOM     18  O   UNL     1       7.416   8.083  16.917  0.00  0.00    +0.000 OA
ENDBRANCH  13  14
BRANCH  13  19
ATOM     19  O   UNL     1       7.513   5.714  15.349  0.00  0.00    +0.000 OA
ATOM     20  H   UNL     1       7.178   4.923  14.882  0.00  0.00    +0.000 HD
ENDBRANCH  13  19
ENDBRANCH  12  13
ENDBRANCH   1  12
BRANCH  10  21
ATOM     21  O   UNL     1       3.454   7.890  17.795  0.00  0.00    +0.000 OA
ATOM     22  H   UNL     1       3.776   7.996  16.882  0.00  0.00    +0.000 HD
ENDBRANCH  10  21
TORSDOF 5
ENDMDL
