MODEL 1
REMARK VINA RESULT:      -8.4      0.000      0.000
REMARK  Name = 
REMARK  8 active torsions:
REMARK  status: ('A' for Active; 'I' for Inactive)
REMARK    1  A    between atoms: C_1  and  O_2
REMARK    2  A    between atoms: O_2  and  C_3
REMARK    3  A    between atoms: C_6  and  C_7
REMARK    4  A    between atoms: C_13  and  C_14
REMARK    5  A    between atoms: C_14  and  C_15
REMARK    6  A    between atoms: C_15  and  C_16
REMARK    7  A    between atoms: N_18  and  C_19
REMARK    8  A    between atoms: C_19  and  C_20
REMARK                            x       y       z     vdW  Elec       q    Type
REMARK                         _______ _______ _______ _____ _____    ______ ____
ROOT
ATOM      1  C   UNL     1       2.504   7.394  18.535  0.00  0.00    +0.000 A 
ATOM      2  C   UNL     1       2.177   7.456  19.914  0.00  0.00    +0.000 A 
ATOM      3  C   UNL     1       1.463   8.611  20.049  0.00  0.00    +0.000 A 
ATOM      4  C   UNL     1       0.897   9.296  21.159  0.00  0.00    +0.000 A 
ATOM      5  N   UNL     1       0.916   8.991  22.429  0.00  0.00    +0.000 NA
ATOM      6  N   UNL     1       0.241   9.992  23.092  0.00  0.00    +0.000 NA
ATOM      7  C   UNL     1      -0.166  10.885  22.206  0.00  0.00    +0.000 A 
ATOM      8  N   UNL     1       0.227  10.487  20.946  0.00  0.00    +0.000 N 
ATOM      9  C   UNL     1       0.085  11.035  19.662  0.00  0.00    +0.000 A 
ATOM     10  C   UNL     1       0.631  10.388  18.605  0.00  0.00    +0.000 A 
ATOM     11  N   UNL     1       1.334   9.179  18.787  0.00  0.00    +0.000 N 
ATOM     12  N   UNL     1       1.980   8.434  17.858  0.00  0.00    +0.000 NA
ENDROOT
BRANCH   1  16
ATOM     13  C   UNL     1       4.857   4.485  16.467  0.00  0.00    +0.000 A 
ATOM     14  C   UNL     1       5.235   5.827  16.467  0.00  0.00    +0.000 A 
ATOM     15  C   UNL     1       4.497   6.770  17.184  0.00  0.00    +0.000 A 
ATOM     16  C   UNL     1       3.353   6.387  17.897  0.00  0.00    +0.000 A 
ATOM     17  C   UNL     1       2.988   5.035  17.909  0.00  0.00    +0.000 A 
ATOM     18  C   UNL     1       3.732   4.089  17.192  0.00  0.00    +0.000 A 
BRANCH  13  20
ATOM     19  C   UNL     1       6.343   4.311  14.638  0.00  0.00    +0.000 C 
ATOM     20  O   UNL     1       5.631   3.670  15.690  0.00  0.00    +0.000 OA
ENDBRANCH  13  20
ENDBRANCH   1  16
BRANCH   7  21
ATOM     21  C   UNL     1      -0.943  12.114  22.516  0.00  0.00    +0.000 C 
BRANCH  21  22
ATOM     22  C   UNL     1      -2.277  11.787  23.191  0.00  0.00    +0.000 C 
BRANCH  22  23
ATOM     23  C   UNL     1      -3.380  12.634  22.598  0.00  0.00    +0.000 C 
ATOM     24  O   UNL     1      -4.174  13.269  23.286  0.00  0.00    +0.000 OA
ATOM     25  N   UNL     1      -3.427  12.625  21.222  0.00  0.00    +0.000 N 
ATOM     26  H   UNL     1      -2.914  11.917  20.713  0.00  0.00    +0.000 HD
BRANCH  25  27
ATOM     27  C   UNL     1      -4.496  13.319  20.538  0.00  0.00    +0.000 C 
BRANCH  27  28
ATOM     28  C   UNL     1      -5.467  12.329  19.984  0.00  0.00    +0.000 A 
ATOM     29  C   UNL     1      -6.537  11.735  20.627  0.00  0.00    +0.000 A 
ATOM     30  C   UNL     1      -7.195  10.770  19.811  0.00  0.00    +0.000 A 
ATOM     31  C   UNL     1      -6.616  10.670  18.566  0.00  0.00    +0.000 A 
ATOM     32  S   UNL     1      -5.297  11.743  18.383  0.00  0.00    +0.000 S 
ENDBRANCH  27  28
ENDBRANCH  25  27
ENDBRANCH  22  23
ENDBRANCH  21  22
ENDBRANCH   7  21
TORSDOF 7
ENDMDL
MODEL 2
REMARK VINA RESULT:      -8.2      0.968      1.347
REMARK  Name = 
REMARK  8 active torsions:
REMARK  status: ('A' for Active; 'I' for Inactive)
REMARK    1  A    between atoms: C_1  and  O_2
REMARK    2  A    between atoms: O_2  and  C_3
REMARK    3  A    between atoms: C_6  and  C_7
REMARK    4  A    between atoms: C_13  and  C_14
REMARK    5  A    between atoms: C_14  and  C_15
REMARK    6  A    between atoms: C_15  and  C_16
REMARK    7  A    between atoms: N_18  and  C_19
REMARK    8  A    between atoms: C_19  and  C_20
REMARK                            x       y       z     vdW  Elec       q    Type
REMARK                         _______ _______ _______ _____ _____    ______ ____
ROOT
ATOM      1  C   UNL     1       2.055   8.005  18.745  0.00  0.00    +0.000 A 
ATOM      2  C   UNL     1       1.702   7.988  20.119  0.00  0.00    +0.000 A 
ATOM      3  C   UNL     1       0.988   9.136  20.307  0.00  0.00    +0.000 A 
ATOM      4  C   UNL     1       0.403   9.757  21.444  0.00  0.00    +0.000 A 
ATOM      5  N   UNL     1       0.398   9.378  22.695  0.00  0.00    +0.000 NA
ATOM      6  N   UNL     1      -0.287  10.341  23.401  0.00  0.00    +0.000 NA
ATOM      7  C   UNL     1      -0.676  11.286  22.561  0.00  0.00    +0.000 A 
ATOM      8  N   UNL     1      -0.261  10.960  21.288  0.00  0.00    +0.000 N 
ATOM      9  C   UNL     1      -0.378  11.582  20.035  0.00  0.00    +0.000 A 
ATOM     10  C   UNL     1       0.187  10.996  18.953  0.00  0.00    +0.000 A 
ATOM     11  N   UNL     1       0.884   9.776  19.078  0.00  0.00    +0.000 N 
ATOM     12  N   UNL     1       1.546   9.084  18.119  0.00  0.00    +0.000 NA
ENDROOT
BRANCH   1  16
ATOM     13  C   UNL     1       4.699   5.160  16.960  0.00  0.00    +0.000 A 
ATOM     14  C   UNL     1       3.581   4.732  17.675  0.00  0.00    +0.000 A 
ATOM     15  C   UNL     1       2.689   5.659  18.215  0.00  0.00    +0.000 A 
ATOM     16  C   UNL     1       2.914   7.034  18.065  0.00  0.00    +0.000 A 
ATOM     17  C   UNL     1       4.028   7.458  17.331  0.00  0.00    +0.000 A 
ATOM     18  C   UNL     1       4.920   6.526  16.786  0.00  0.00    +0.000 A 
BRANCH  13  20
ATOM     19  C   UNL     1       6.905   4.476  16.457  0.00  0.00    +0.000 C 
ATOM     20  O   UNL     1       5.520   4.157  16.524  0.00  0.00    +0.000 OA
ENDBRANCH  13  20
ENDBRANCH   1  16
BRANCH   7  21
ATOM     21  C   UNL     1      -1.456  12.497  22.928  0.00  0.00    +0.000 C 
BRANCH  21  22
ATOM     22  C   UNL     1      -2.829  12.136  23.501  0.00  0.00    +0.000 C 
BRANCH  22  23
ATOM     23  C   UNL     1      -3.902  12.979  22.849  0.00  0.00    +0.000 C 
ATOM     24  O   UNL     1      -3.915  14.206  22.914  0.00  0.00    +0.000 OA
ATOM     25  N   UNL     1      -4.868  12.258  22.187  0.00  0.00    +0.000 N 
ATOM     26  H   UNL     1      -4.947  11.263  22.355  0.00  0.00    +0.000 HD
BRANCH  25  27
ATOM     27  C   UNL     1      -6.000  12.944  21.604  0.00  0.00    +0.000 C 
BRANCH  27  28
ATOM     28  C   UNL     1      -6.356  12.311  20.299  0.00  0.00    +0.000 A 
ATOM     29  C   UNL     1      -6.761  11.011  20.066  0.00  0.00    +0.000 A 
ATOM     30  C   UNL     1      -6.933  10.734  18.679  0.00  0.00    +0.000 A 
ATOM     31  C   UNL     1      -6.668  11.837  17.899  0.00  0.00    +0.000 A 
ATOM     32  S   UNL     1      -6.229  13.197  18.837  0.00  0.00    +0.000 S 
ENDBRANCH  27  28
ENDBRANCH  25  27
ENDBRANCH  22  23
ENDBRANCH  21  22
ENDBRANCH   7  21
TORSDOF 7
ENDMDL
MODEL 3
REMARK VINA RESULT:      -8.1      5.652      9.509
REMARK  Name = 
REMARK  8 active torsions:
REMARK  status: ('A' for Active; 'I' for Inactive)
REMARK    1  A    between atoms: C_1  and  O_2
REMARK    2  A    between atoms: O_2  and  C_3
REMARK    3  A    between atoms: C_6  and  C_7
REMARK    4  A    between atoms: C_13  and  C_14
REMARK    5  A    between atoms: C_14  and  C_15
REMARK    6  A    between atoms: C_15  and  C_16
REMARK    7  A    between atoms: N_18  and  C_19
REMARK    8  A    between atoms: C_19  and  C_20
REMARK                            x       y       z     vdW  Elec       q    Type
REMARK                         _______ _______ _______ _____ _____    ______ ____
ROOT
ATOM      1  C   UNL     1       8.606   9.477  18.373  0.00  0.00    +0.000 A 
ATOM      2  C   UNL     1       7.586   9.187  17.431  0.00  0.00    +0.000 A 
ATOM      3  C   UNL     1       7.326   7.858  17.601  0.00  0.00    +0.000 A 
ATOM      4  C   UNL     1       6.472   6.930  16.946  0.00  0.00    +0.000 A 
ATOM      5  N   UNL     1       5.662   7.106  15.936  0.00  0.00    +0.000 NA
ATOM      6  N   UNL     1       5.081   5.886  15.671  0.00  0.00    +0.000 NA
ATOM      7  C   UNL     1       5.558   4.996  16.525  0.00  0.00    +0.000 A 
ATOM      8  N   UNL     1       6.455   5.614  17.370  0.00  0.00    +0.000 N 
ATOM      9  C   UNL     1       7.255   5.170  18.435  0.00  0.00    +0.000 A 
ATOM     10  C   UNL     1       8.076   6.052  19.054  0.00  0.00    +0.000 A 
ATOM     11  N   UNL     1       8.129   7.399  18.638  0.00  0.00    +0.000 N 
ATOM     12  N   UNL     1       8.921   8.393  19.108  0.00  0.00    +0.000 NA
ENDROOT
BRANCH   1  16
ATOM     13  C   UNL     1      10.483  13.272  18.969  0.00  0.00    +0.000 A 
ATOM     14  C   UNL     1      10.883  12.163  19.713  0.00  0.00    +0.000 A 
ATOM     15  C   UNL     1      10.307  10.912  19.485  0.00  0.00    +0.000 A 
ATOM     16  C   UNL     1       9.304  10.756  18.519  0.00  0.00    +0.000 A 
ATOM     17  C   UNL     1       8.919  11.869  17.762  0.00  0.00    +0.000 A 
ATOM     18  C   UNL     1       9.501  13.123  17.990  0.00  0.00    +0.000 A 
BRANCH  13  20
ATOM     19  C   UNL     1      10.634  15.606  18.631  0.00  0.00    +0.000 C 
ATOM     20  O   UNL     1      11.086  14.447  19.321  0.00  0.00    +0.000 OA
ENDBRANCH  13  20
ENDBRANCH   1  16
BRANCH   7  21
ATOM     21  C   UNL     1       5.172   3.562  16.581  0.00  0.00    +0.000 C 
BRANCH  21  22
ATOM     22  C   UNL     1       3.771   3.372  17.168  0.00  0.00    +0.000 C 
BRANCH  22  23
ATOM     23  C   UNL     1       3.694   4.001  18.540  0.00  0.00    +0.000 C 
ATOM     24  O   UNL     1       4.293   3.550  19.513  0.00  0.00    +0.000 OA
ATOM     25  N   UNL     1       2.888   5.114  18.612  0.00  0.00    +0.000 N 
ATOM     26  H   UNL     1       2.242   5.308  17.858  0.00  0.00    +0.000 HD
BRANCH  25  27
ATOM     27  C   UNL     1       2.656   5.749  19.891  0.00  0.00    +0.000 C 
BRANCH  27  28
ATOM     28  C   UNL     1       2.180   7.148  19.680  0.00  0.00    +0.000 A 
ATOM     29  C   UNL     1       1.521   7.968  20.577  0.00  0.00    +0.000 A 
ATOM     30  C   UNL     1       1.142   9.214  20.000  0.00  0.00    +0.000 A 
ATOM     31  C   UNL     1       1.539   9.312  18.685  0.00  0.00    +0.000 A 
ATOM     32  S   UNL     1       2.372   7.915  18.159  0.00  0.00    +0.000 S 
ENDBRANCH  27  28
ENDBRANCH  25  27
ENDBRANCH  22  23
ENDBRANCH  21  22
ENDBRANCH   7  21
TORSDOF 7
ENDMDL
MODEL 4
REMARK VINA RESULT:      -8.0      1.245      1.332
REMARK  Name = 
REMARK  8 active torsions:
REMARK  status: ('A' for Active; 'I' for Inactive)
REMARK    1  A    between atoms: C_1  and  O_2
REMARK    2  A    between atoms: O_2  and  C_3
REMARK    3  A    between atoms: C_6  and  C_7
REMARK    4  A    between atoms: C_13  and  C_14
REMARK    5  A    between atoms: C_14  and  C_15
REMARK    6  A    between atoms: C_15  and  C_16
REMARK    7  A    between atoms: N_18  and  C_19
REMARK    8  A    between atoms: C_19  and  C_20
REMARK                            x       y       z     vdW  Elec       q    Type
REMARK                         _______ _______ _______ _____ _____    ______ ____
ROOT
ATOM      1  C   UNL     1       2.095   7.920  18.738  0.00  0.00    +0.000 A 
ATOM      2  C   UNL     1       1.773   8.091  20.109  0.00  0.00    +0.000 A 
ATOM      3  C   UNL     1       0.977   9.199  20.141  0.00  0.00    +0.000 A 
ATOM      4  C   UNL     1       0.369   9.946  21.187  0.00  0.00    +0.000 A 
ATOM      5  N   UNL     1       0.418   9.767  22.481  0.00  0.00    +0.000 NA
ATOM      6  N   UNL     1      -0.324  10.776  23.052  0.00  0.00    +0.000 NA
ATOM      7  C   UNL     1      -0.802  11.548  22.089  0.00  0.00    +0.000 A 
ATOM      8  N   UNL     1      -0.388  11.058  20.869  0.00  0.00    +0.000 N 
ATOM      9  C   UNL     1      -0.578  11.467  19.540  0.00  0.00    +0.000 A 
ATOM     10  C   UNL     1       0.008  10.762  18.543  0.00  0.00    +0.000 A 
ATOM     11  N   UNL     1       0.799   9.631  18.831  0.00  0.00    +0.000 N 
ATOM     12  N   UNL     1       1.492   8.848  17.970  0.00  0.00    +0.000 NA
ENDROOT
BRANCH   1  16
ATOM     13  C   UNL     1       4.636   4.992  16.934  0.00  0.00    +0.000 A 
ATOM     14  C   UNL     1       4.881   6.352  16.744  0.00  0.00    +0.000 A 
ATOM     15  C   UNL     1       4.084   7.309  17.374  0.00  0.00    +0.000 A 
ATOM     16  C   UNL     1       3.012   6.920  18.189  0.00  0.00    +0.000 A 
ATOM     17  C   UNL     1       2.783   5.554  18.390  0.00  0.00    +0.000 A 
ATOM     18  C   UNL     1       3.586   4.594  17.761  0.00  0.00    +0.000 A 
BRANCH  13  20
ATOM     19  C   UNL     1       6.819   4.551  16.145  0.00  0.00    +0.000 C 
ATOM     20  O   UNL     1       5.455   4.157  16.227  0.00  0.00    +0.000 OA
ENDBRANCH  13  20
ENDBRANCH   1  16
BRANCH   7  21
ATOM     21  C   UNL     1      -1.665  12.741  22.290  0.00  0.00    +0.000 C 
BRANCH  21  22
ATOM     22  C   UNL     1      -2.213  12.812  23.717  0.00  0.00    +0.000 C 
BRANCH  22  23
ATOM     23  C   UNL     1      -3.723  12.757  23.697  0.00  0.00    +0.000 C 
ATOM     24  O   UNL     1      -4.371  12.001  24.417  0.00  0.00    +0.000 OA
ATOM     25  N   UNL     1      -4.312  13.616  22.798  0.00  0.00    +0.000 N 
ATOM     26  H   UNL     1      -3.747  14.040  22.074  0.00  0.00    +0.000 HD
BRANCH  25  27
ATOM     27  C   UNL     1      -5.747  13.588  22.617  0.00  0.00    +0.000 C 
BRANCH  27  28
ATOM     28  C   UNL     1      -6.095  12.676  21.487  0.00  0.00    +0.000 A 
ATOM     29  C   UNL     1      -5.366  12.426  20.339  0.00  0.00    +0.000 A 
ATOM     30  C   UNL     1      -6.049  11.560  19.437  0.00  0.00    +0.000 A 
ATOM     31  C   UNL     1      -7.271  11.165  19.932  0.00  0.00    +0.000 A 
ATOM     32  S   UNL     1      -7.582  11.825  21.479  0.00  0.00    +0.000 S 
ENDBRANCH  27  28
ENDBRANCH  25  27
ENDBRANCH  22  23
ENDBRANCH  21  22
ENDBRANCH   7  21
TORSDOF 7
ENDMDL
MODEL 5
REMARK VINA RESULT:      -7.8      2.056      2.638
REMARK  Name = 
REMARK  8 active torsions:
REMARK  status: ('A' for Active; 'I' for Inactive)
REMARK    1  A    between atoms: C_1  and  O_2
REMARK    2  A    between atoms: O_2  and  C_3
REMARK    3  A    between atoms: C_6  and  C_7
REMARK    4  A    between atoms: C_13  and  C_14
REMARK    5  A    between atoms: C_14  and  C_15
REMARK    6  A    between atoms: C_15  and  C_16
REMARK    7  A    between atoms: N_18  and  C_19
REMARK    8  A    between atoms: C_19  and  C_20
REMARK                            x       y       z     vdW  Elec       q    Type
REMARK                         _______ _______ _______ _____ _____    ______ ____
ROOT
ATOM      1  C   UNL     1       1.961   7.143  20.030  0.00  0.00    +0.000 A 
ATOM      2  C   UNL     1       1.318   7.735  21.148  0.00  0.00    +0.000 A 
ATOM      3  C   UNL     1       1.007   8.999  20.738  0.00  0.00    +0.000 A 
ATOM      4  C   UNL     1       0.420  10.126  21.376  0.00  0.00    +0.000 A 
ATOM      5  N   UNL     1       0.001  10.267  22.606  0.00  0.00    +0.000 NA
ATOM      6  N   UNL     1      -0.464  11.558  22.724  0.00  0.00    +0.000 NA
ATOM      7  C   UNL     1      -0.310  12.171  21.563  0.00  0.00    +0.000 A 
ATOM      8  N   UNL     1       0.252  11.296  20.658  0.00  0.00    +0.000 N 
ATOM      9  C   UNL     1       0.641  11.400  19.314  0.00  0.00    +0.000 A 
ATOM     10  C   UNL     1       1.209  10.331  18.708  0.00  0.00    +0.000 A 
ATOM     11  N   UNL     1       1.409   9.126  19.413  0.00  0.00    +0.000 N 
ATOM     12  N   UNL     1       2.001   7.986  18.981  0.00  0.00    +0.000 NA
ENDROOT
BRANCH   1  16
ATOM     13  C   UNL     1       3.587   3.197  19.774  0.00  0.00    +0.000 A 
ATOM     14  C   UNL     1       4.020   4.197  18.903  0.00  0.00    +0.000 A 
ATOM     15  C   UNL     1       3.529   5.498  19.018  0.00  0.00    +0.000 A 
ATOM     16  C   UNL     1       2.576   5.816  19.996  0.00  0.00    +0.000 A 
ATOM     17  C   UNL     1       2.158   4.813  20.879  0.00  0.00    +0.000 A 
ATOM     18  C   UNL     1       2.655   3.508  20.764  0.00  0.00    +0.000 A 
BRANCH  13  20
ATOM     19  C   UNL     1       3.667   1.329  18.329  0.00  0.00    +0.000 C 
ATOM     20  O   UNL     1       4.105   1.957  19.527  0.00  0.00    +0.000 OA
ENDBRANCH  13  20
ENDBRANCH   1  16
BRANCH   7  21
ATOM     21  C   UNL     1      -0.701  13.575  21.272  0.00  0.00    +0.000 C 
BRANCH  21  22
ATOM     22  C   UNL     1      -1.928  14.003  22.080  0.00  0.00    +0.000 C 
BRANCH  22  23
ATOM     23  C   UNL     1      -3.154  13.261  21.596  0.00  0.00    +0.000 C 
ATOM     24  O   UNL     1      -3.952  12.725  22.360  0.00  0.00    +0.000 OA
ATOM     25  N   UNL     1      -3.295  13.229  20.227  0.00  0.00    +0.000 N 
ATOM     26  H   UNL     1      -2.508  13.475  19.641  0.00  0.00    +0.000 HD
BRANCH  25  27
ATOM     27  C   UNL     1      -4.375  12.469  19.637  0.00  0.00    +0.000 C 
BRANCH  27  28
ATOM     28  C   UNL     1      -3.871  11.715  18.451  0.00  0.00    +0.000 A 
ATOM     29  C   UNL     1      -2.668  11.047  18.315  0.00  0.00    +0.000 A 
ATOM     30  C   UNL     1      -2.487  10.511  17.008  0.00  0.00    +0.000 A 
ATOM     31  C   UNL     1      -3.565  10.774  16.192  0.00  0.00    +0.000 A 
ATOM     32  S   UNL     1      -4.788  11.648  17.005  0.00  0.00    +0.000 S 
ENDBRANCH  27  28
ENDBRANCH  25  27
ENDBRANCH  22  23
ENDBRANCH  21  22
ENDBRANCH   7  21
TORSDOF 7
ENDMDL
MODEL 6
REMARK VINA RESULT:      -7.8      2.021      2.713
REMARK  Name = 
REMARK  8 active torsions:
REMARK  status: ('A' for Active; 'I' for Inactive)
REMARK    1  A    between atoms: C_1  and  O_2
REMARK    2  A    between atoms: O_2  and  C_3
REMARK    3  A    between atoms: C_6  and  C_7
REMARK    4  A    between atoms: C_13  and  C_14
REMARK    5  A    between atoms: C_14  and  C_15
REMARK    6  A    between atoms: C_15  and  C_16
REMARK    7  A    between atoms: N_18  and  C_19
REMARK    8  A    between atoms: C_19  and  C_20
REMARK                            x       y       z     vdW  Elec       q    Type
REMARK                         _______ _______ _______ _____ _____    ______ ____
ROOT
ATOM      1  C   UNL     1       2.358   7.626  18.994  0.00  0.00    +0.000 A 
ATOM      2  C   UNL     1       1.876   8.874  18.520  0.00  0.00    +0.000 A 
ATOM      3  C   UNL     1       1.135   9.372  19.551  0.00  0.00    +0.000 A 
ATOM      4  C   UNL     1       0.335  10.536  19.718  0.00  0.00    +0.000 A 
ATOM      5  N   UNL     1       0.070  11.498  18.873  0.00  0.00    +0.000 NA
ATOM      6  N   UNL     1      -0.771  12.376  19.518  0.00  0.00    +0.000 NA
ATOM      7  C   UNL     1      -1.001  11.923  20.739  0.00  0.00    +0.000 A 
ATOM      8  N   UNL     1      -0.313  10.742  20.922  0.00  0.00    +0.000 N 
ATOM      9  C   UNL     1      -0.197   9.837  21.988  0.00  0.00    +0.000 A 
ATOM     10  C   UNL     1       0.557   8.723  21.827  0.00  0.00    +0.000 A 
ATOM     11  N   UNL     1       1.220   8.473  20.608  0.00  0.00    +0.000 N 
ATOM     12  N   UNL     1       1.967   7.397  20.262  0.00  0.00    +0.000 NA
ENDROOT
BRANCH   1  16
ATOM     13  C   UNL     1       4.454   4.817  16.546  0.00  0.00    +0.000 A 
ATOM     14  C   UNL     1       4.820   6.162  16.547  0.00  0.00    +0.000 A 
ATOM     15  C   UNL     1       4.171   7.072  17.383  0.00  0.00    +0.000 A 
ATOM     16  C   UNL     1       3.127   6.652  18.219  0.00  0.00    +0.000 A 
ATOM     17  C   UNL     1       2.777   5.296  18.228  0.00  0.00    +0.000 A 
ATOM     18  C   UNL     1       3.432   4.384  17.390  0.00  0.00    +0.000 A 
BRANCH  13  20
ATOM     19  C   UNL     1       5.656   4.715  14.514  0.00  0.00    +0.000 C 
ATOM     20  O   UNL     1       5.131   4.038  15.650  0.00  0.00    +0.000 OA
ENDBRANCH  13  20
ENDBRANCH   1  16
BRANCH   7  21
ATOM     21  C   UNL     1      -1.850  12.590  21.760  0.00  0.00    +0.000 C 
BRANCH  21  22
ATOM     22  C   UNL     1      -2.851  13.557  21.123  0.00  0.00    +0.000 C 
BRANCH  22  23
ATOM     23  C   UNL     1      -3.956  12.784  20.438  0.00  0.00    +0.000 C 
ATOM     24  O   UNL     1      -5.023  12.523  20.986  0.00  0.00    +0.000 OA
ATOM     25  N   UNL     1      -3.661  12.390  19.153  0.00  0.00    +0.000 N 
ATOM     26  H   UNL     1      -2.703  12.421  18.832  0.00  0.00    +0.000 HD
BRANCH  25  27
ATOM     27  C   UNL     1      -4.599  11.562  18.426  0.00  0.00    +0.000 C 
BRANCH  27  28
ATOM     28  C   UNL     1      -3.881  10.811  17.354  0.00  0.00    +0.000 A 
ATOM     29  C   UNL     1      -3.002   9.754  17.497  0.00  0.00    +0.000 A 
ATOM     30  C   UNL     1      -2.440   9.340  16.255  0.00  0.00    +0.000 A 
ATOM     31  C   UNL     1      -2.921  10.084  15.202  0.00  0.00    +0.000 A 
ATOM     32  S   UNL     1      -4.051  11.262  15.710  0.00  0.00    +0.000 S 
ENDBRANCH  27  28
ENDBRANCH  25  27
ENDBRANCH  22  23
ENDBRANCH  21  22
ENDBRANCH   7  21
TORSDOF 7
ENDMDL
MODEL 7
REMARK VINA RESULT:      -7.7      1.865      2.186
REMARK  Name = 
REMARK  8 active torsions:
REMARK  status: ('A' for Active; 'I' for Inactive)
REMARK    1  A    between atoms: C_1  and  O_2
REMARK    2  A    between atoms: O_2  and  C_3
REMARK    3  A    between atoms: C_6  and  C_7
REMARK    4  A    between atoms: C_13  and  C_14
REMARK    5  A    between atoms: C_14  and  C_15
REMARK    6  A    between atoms: C_15  and  C_16
REMARK    7  A    between atoms: N_18  and  C_19
REMARK    8  A    between atoms: C_19  and  C_20
REMARK                            x       y       z     vdW  Elec       q    Type
REMARK                         _______ _______ _______ _____ _____    ______ ____
ROOT
ATOM      1  C   UNL     1       2.200   7.803  18.804  0.00  0.00    +0.000 A 
ATOM      2  C   UNL     1       1.756   7.802  20.151  0.00  0.00    +0.000 A 
ATOM      3  C   UNL     1       1.125   9.002  20.308  0.00  0.00    +0.000 A 
ATOM      4  C   UNL     1       0.517   9.658  21.413  0.00  0.00    +0.000 A 
ATOM      5  N   UNL     1       0.397   9.270  22.655  0.00  0.00    +0.000 NA
ATOM      6  N   UNL     1      -0.254  10.278  23.329  0.00  0.00    +0.000 NA
ATOM      7  C   UNL     1      -0.509  11.259  22.479  0.00  0.00    +0.000 A 
ATOM      8  N   UNL     1      -0.037  10.912  21.231  0.00  0.00    +0.000 N 
ATOM      9  C   UNL     1      -0.020  11.553  19.983  0.00  0.00    +0.000 A 
ATOM     10  C   UNL     1       0.568  10.933  18.932  0.00  0.00    +0.000 A 
ATOM     11  N   UNL     1       1.155   9.660  19.084  0.00  0.00    +0.000 N 
ATOM     12  N   UNL     1       1.822   8.925  18.162  0.00  0.00    +0.000 NA
ENDROOT
BRANCH   1  16
ATOM     13  C   UNL     1       4.471   4.822  16.746  0.00  0.00    +0.000 A 
ATOM     14  C   UNL     1       4.867   6.158  16.712  0.00  0.00    +0.000 A 
ATOM     15  C   UNL     1       4.156   7.126  17.424  0.00  0.00    +0.000 A 
ATOM     16  C   UNL     1       3.022   6.772  18.168  0.00  0.00    +0.000 A 
ATOM     17  C   UNL     1       2.640   5.426  18.214  0.00  0.00    +0.000 A 
ATOM     18  C   UNL     1       3.356   4.456  17.501  0.00  0.00    +0.000 A 
BRANCH  13  20
ATOM     19  C   UNL     1       5.581   4.482  14.688  0.00  0.00    +0.000 C 
ATOM     20  O   UNL     1       5.218   3.982  15.969  0.00  0.00    +0.000 OA
ENDBRANCH  13  20
ENDBRANCH   1  16
BRANCH   7  21
ATOM     21  C   UNL     1      -1.213  12.525  22.811  0.00  0.00    +0.000 C 
BRANCH  21  22
ATOM     22  C   UNL     1      -2.637  12.270  23.309  0.00  0.00    +0.000 C 
BRANCH  22  23
ATOM     23  C   UNL     1      -3.636  12.629  22.232  0.00  0.00    +0.000 C 
ATOM     24  O   UNL     1      -3.309  13.142  21.165  0.00  0.00    +0.000 OA
ATOM     25  N   UNL     1      -4.944  12.343  22.551  0.00  0.00    +0.000 N 
ATOM     26  H   UNL     1      -5.188  12.143  23.512  0.00  0.00    +0.000 HD
BRANCH  25  27
ATOM     27  C   UNL     1      -6.002  12.727  21.644  0.00  0.00    +0.000 C 
BRANCH  27  28
ATOM     28  C   UNL     1      -6.601  14.021  22.087  0.00  0.00    +0.000 A 
ATOM     29  C   UNL     1      -7.197  14.313  23.299  0.00  0.00    +0.000 A 
ATOM     30  C   UNL     1      -7.736  15.631  23.338  0.00  0.00    +0.000 A 
ATOM     31  C   UNL     1      -7.519  16.309  22.160  0.00  0.00    +0.000 A 
ATOM     32  S   UNL     1      -6.661  15.364  21.023  0.00  0.00    +0.000 S 
ENDBRANCH  27  28
ENDBRANCH  25  27
ENDBRANCH  22  23
ENDBRANCH  21  22
ENDBRANCH   7  21
TORSDOF 7
ENDMDL
MODEL 8
REMARK VINA RESULT:      -7.7      2.343      2.562
REMARK  Name = 
REMARK  8 active torsions:
REMARK  status: ('A' for Active; 'I' for Inactive)
REMARK    1  A    between atoms: C_1  and  O_2
REMARK    2  A    between atoms: O_2  and  C_3
REMARK    3  A    between atoms: C_6  and  C_7
REMARK    4  A    between atoms: C_13  and  C_14
REMARK    5  A    between atoms: C_14  and  C_15
REMARK    6  A    between atoms: C_15  and  C_16
REMARK    7  A    between atoms: N_18  and  C_19
REMARK    8  A    between atoms: C_19  and  C_20
REMARK                            x       y       z     vdW  Elec       q    Type
REMARK                         _______ _______ _______ _____ _____    ______ ____
ROOT
ATOM      1  C   UNL     1       2.291   7.620  18.696  0.00  0.00    +0.000 A 
ATOM      2  C   UNL     1       1.997   7.707  20.081  0.00  0.00    +0.000 A 
ATOM      3  C   UNL     1       1.183   8.796  20.194  0.00  0.00    +0.000 A 
ATOM      4  C   UNL     1       0.585   9.469  21.295  0.00  0.00    +0.000 A 
ATOM      5  N   UNL     1       0.666   9.218  22.575  0.00  0.00    +0.000 NA
ATOM      6  N   UNL     1      -0.080  10.178  23.219  0.00  0.00    +0.000 NA
ATOM      7  C   UNL     1      -0.593  10.995  22.314  0.00  0.00    +0.000 A 
ATOM      8  N   UNL     1      -0.198  10.584  21.058  0.00  0.00    +0.000 N 
ATOM      9  C   UNL     1      -0.425  11.066  19.759  0.00  0.00    +0.000 A 
ATOM     10  C   UNL     1       0.151  10.430  18.711  0.00  0.00    +0.000 A 
ATOM     11  N   UNL     1       0.968   9.299  18.916  0.00  0.00    +0.000 N 
ATOM     12  N   UNL     1       1.655   8.580  17.997  0.00  0.00    +0.000 NA
ENDROOT
BRANCH   1  16
ATOM     13  C   UNL     1       4.829   4.831  16.682  0.00  0.00    +0.000 A 
ATOM     14  C   UNL     1       4.976   6.201  16.467  0.00  0.00    +0.000 A 
ATOM     15  C   UNL     1       4.183   7.116  17.162  0.00  0.00    +0.000 A 
ATOM     16  C   UNL     1       3.213   6.671  18.070  0.00  0.00    +0.000 A 
ATOM     17  C   UNL     1       3.082   5.296  18.296  0.00  0.00    +0.000 A 
ATOM     18  C   UNL     1       3.882   4.379  17.600  0.00  0.00    +0.000 A 
BRANCH  13  20
ATOM     19  C   UNL     1       7.019   4.339  15.944  0.00  0.00    +0.000 C 
ATOM     20  O   UNL     1       5.629   4.040  15.907  0.00  0.00    +0.000 OA
ENDBRANCH  13  20
ENDBRANCH   1  16
BRANCH   7  21
ATOM     21  C   UNL     1      -1.472  12.158  22.602  0.00  0.00    +0.000 C 
BRANCH  21  22
ATOM     22  C   UNL     1      -0.663  13.413  22.935  0.00  0.00    +0.000 C 
BRANCH  22  23
ATOM     23  C   UNL     1      -1.510  14.383  23.726  0.00  0.00    +0.000 C 
ATOM     24  O   UNL     1      -1.137  14.882  24.784  0.00  0.00    +0.000 OA
ATOM     25  N   UNL     1      -2.739  14.652  23.167  0.00  0.00    +0.000 N 
ATOM     26  H   UNL     1      -3.093  14.052  22.434  0.00  0.00    +0.000 HD
BRANCH  25  27
ATOM     27  C   UNL     1      -3.679  15.490  23.878  0.00  0.00    +0.000 C 
BRANCH  27  28
ATOM     28  C   UNL     1      -5.031  14.856  23.861  0.00  0.00    +0.000 A 
ATOM     29  C   UNL     1      -6.264  15.479  23.891  0.00  0.00    +0.000 A 
ATOM     30  C   UNL     1      -7.343  14.551  23.950  0.00  0.00    +0.000 A 
ATOM     31  C   UNL     1      -6.899  13.248  23.948  0.00  0.00    +0.000 A 
ATOM     32  S   UNL     1      -5.195  13.150  23.862  0.00  0.00    +0.000 S 
ENDBRANCH  27  28
ENDBRANCH  25  27
ENDBRANCH  22  23
ENDBRANCH  21  22
ENDBRANCH   7  21
TORSDOF 7
ENDMDL
MODEL 9
REMARK VINA RESULT:      -7.7      2.350      3.128
REMARK  Name = 
REMARK  8 active torsions:
REMARK  status: ('A' for Active; 'I' for Inactive)
REMARK    1  A    between atoms: C_1  and  O_2
REMARK    2  A    between atoms: O_2  and  C_3
REMARK    3  A    between atoms: C_6  and  C_7
REMARK    4  A    between atoms: C_13  and  C_14
REMARK    5  A    between atoms: C_14  and  C_15
REMARK    6  A    between atoms: C_15  and  C_16
REMARK    7  A    between atoms: N_18  and  C_19
REMARK    8  A    between atoms: C_19  and  C_20
REMARK                            x       y       z     vdW  Elec       q    Type
REMARK                         _______ _______ _______ _____ _____    ______ ____
ROOT
ATOM      1  C   UNL     1       2.212   7.692  18.827  0.00  0.00    +0.000 A 
ATOM      2  C   UNL     1       1.855   7.724  20.200  0.00  0.00    +0.000 A 
ATOM      3  C   UNL     1       1.121   8.866  20.340  0.00  0.00    +0.000 A 
ATOM      4  C   UNL     1       0.521   9.521  21.449  0.00  0.00    +0.000 A 
ATOM      5  N   UNL     1       0.518   9.193  22.714  0.00  0.00    +0.000 NA
ATOM      6  N   UNL     1      -0.186  10.172  23.380  0.00  0.00    +0.000 NA
ATOM      7  C   UNL     1      -0.589  11.075  22.501  0.00  0.00    +0.000 A 
ATOM      8  N   UNL     1      -0.164  10.705  21.243  0.00  0.00    +0.000 N 
ATOM      9  C   UNL     1      -0.288  11.274  19.966  0.00  0.00    +0.000 A 
ATOM     10  C   UNL     1       0.291  10.655  18.910  0.00  0.00    +0.000 A 
ATOM     11  N   UNL     1       1.009   9.454  19.085  0.00  0.00    +0.000 N 
ATOM     12  N   UNL     1       1.686   8.735  18.157  0.00  0.00    +0.000 NA
ENDROOT
BRANCH   1  16
ATOM     13  C   UNL     1       4.638   4.838  16.767  0.00  0.00    +0.000 A 
ATOM     14  C   UNL     1       4.927   6.200  16.684  0.00  0.00    +0.000 A 
ATOM     15  C   UNL     1       4.168   7.129  17.397  0.00  0.00    +0.000 A 
ATOM     16  C   UNL     1       3.090   6.711  18.189  0.00  0.00    +0.000 A 
ATOM     17  C   UNL     1       2.817   5.341  18.283  0.00  0.00    +0.000 A 
ATOM     18  C   UNL     1       3.582   4.409  17.570  0.00  0.00    +0.000 A 
BRANCH  13  20
ATOM     19  C   UNL     1       6.753   4.491  15.772  0.00  0.00    +0.000 C 
ATOM     20  O   UNL     1       5.422   4.037  15.986  0.00  0.00    +0.000 OA
ENDBRANCH  13  20
ENDBRANCH   1  16
BRANCH   7  21
ATOM     21  C   UNL     1      -1.392  12.285  22.817  0.00  0.00    +0.000 C 
BRANCH  21  22
ATOM     22  C   UNL     1      -2.729  11.926  23.470  0.00  0.00    +0.000 C 
BRANCH  22  23
ATOM     23  C   UNL     1      -3.819  12.841  22.960  0.00  0.00    +0.000 C 
ATOM     24  O   UNL     1      -4.964  12.454  22.741  0.00  0.00    +0.000 OA
ATOM     25  N   UNL     1      -3.419  14.141  22.752  0.00  0.00    +0.000 N 
ATOM     26  H   UNL     1      -2.432  14.358  22.721  0.00  0.00    +0.000 HD
BRANCH  25  27
ATOM     27  C   UNL     1      -4.345  15.091  22.175  0.00  0.00    +0.000 C 
BRANCH  27  28
ATOM     28  C   UNL     1      -4.695  16.132  23.187  0.00  0.00    +0.000 A 
ATOM     29  C   UNL     1      -4.158  16.309  24.447  0.00  0.00    +0.000 A 
ATOM     30  C   UNL     1      -4.797  17.356  25.171  0.00  0.00    +0.000 A 
ATOM     31  C   UNL     1      -5.792  17.956  24.432  0.00  0.00    +0.000 A 
ATOM     32  S   UNL     1      -5.941  17.267  22.875  0.00  0.00    +0.000 S 
ENDBRANCH  27  28
ENDBRANCH  25  27
ENDBRANCH  22  23
ENDBRANCH  21  22
ENDBRANCH   7  21
TORSDOF 7
ENDMDL
