MODEL 1
REMARK VINA RESULT:      -6.8      0.000      0.000
REMARK  Name = 
REMARK  7 active torsions:
REMARK  status: ('A' for Active; 'I' for Inactive)
REMARK    1  A    between atoms: C_2  and  C_3
REMARK    2  A    between atoms: C_6  and  C_7
REMARK    3  A    between atoms: C_7  and  N_8
REMARK    4  A    between atoms: C_11  and  N_12
REMARK    5  A    between atoms: N_12  and  C_13
REMARK    6  A    between atoms: C_19  and  C_20
REMARK    7  A    between atoms: C_20  and  C_21
REMARK                            x       y       z     vdW  Elec       q    Type
REMARK                         _______ _______ _______ _____ _____    ______ ____
ROOT
ATOM      1  N   UNL     1      -1.313  11.163  17.541  0.00  0.00    +0.000 N 
ATOM      2  H   UNL     1      -1.885  11.963  17.786  0.00  0.00    +0.000 HD
ENDROOT
BRANCH   1   3
ATOM      3  C   UNL     1      -0.583  10.727  18.651  0.00  0.00    +0.000 A 
ATOM      4  N   UNL     1       0.465   9.893  18.476  0.00  0.00    +0.000 NA
ATOM      5  C   UNL     1       1.137   9.452  19.549  0.00  0.00    +0.000 A 
ATOM      6  N   UNL     1       0.898   9.736  20.832  0.00  0.00    +0.000 NA
ATOM      7  C   UNL     1      -0.141  10.571  20.981  0.00  0.00    +0.000 A 
ATOM      8  S   UNL     1      -0.650  11.065  22.534  0.00  0.00    +0.000 S 
ATOM      9  C   UNL     1      -1.922  12.017  21.899  0.00  0.00    +0.000 A 
ATOM     10  C   UNL     1      -1.935  11.972  20.518  0.00  0.00    +0.000 A 
ATOM     11  C   UNL     1      -0.917  11.113  19.970  0.00  0.00    +0.000 A 
BRANCH   9  12
ATOM     12  C   UNL     1      -2.829  12.795  22.816  0.00  0.00    +0.000 C 
BRANCH  12  13
ATOM     13  C   UNL     1      -2.300  14.162  23.233  0.00  0.00    +0.000 C 
ATOM     14  F   UNL     1      -1.168  14.106  23.966  0.00  0.00    +0.000 F 
ATOM     15  F   UNL     1      -2.047  14.933  22.150  0.00  0.00    +0.000 F 
ATOM     16  F   UNL     1      -3.225  14.817  23.978  0.00  0.00    +0.000 F 
ENDBRANCH  12  13
ENDBRANCH   9  12
ENDBRANCH   1   3
BRANCH   1  20
ATOM     17  N   UNL     1      -4.785  11.178  16.916  0.00  0.00    +0.000 NA
ATOM     18  C   UNL     1      -3.822  11.684  15.933  0.00  0.00    +0.000 C 
ATOM     19  C   UNL     1      -2.748  10.673  15.549  0.00  0.00    +0.000 C 
ATOM     20  C   UNL     1      -2.032  10.125  16.784  0.00  0.00    +0.000 C 
ATOM     21  C   UNL     1      -3.089   9.476  17.678  0.00  0.00    +0.000 C 
ATOM     22  C   UNL     1      -4.213  10.448  18.046  0.00  0.00    +0.000 C 
BRANCH  17  23
ATOM     23  C   UNL     1      -5.757  12.207  17.337  0.00  0.00    +0.000 C 
BRANCH  23  27
ATOM     24  C   UNL     1      -7.042  12.295  21.489  0.00  0.00    +0.000 A 
ATOM     25  C   UNL     1      -6.019  13.136  21.046  0.00  0.00    +0.000 A 
ATOM     26  C   UNL     1      -5.608  13.091  19.710  0.00  0.00    +0.000 A 
ATOM     27  C   UNL     1      -6.202  12.203  18.794  0.00  0.00    +0.000 A 
ATOM     28  C   UNL     1      -7.218  11.353  19.256  0.00  0.00    +0.000 A 
ATOM     29  C   UNL     1      -7.638  11.401  20.593  0.00  0.00    +0.000 A 
BRANCH  24  31
ATOM     30  N   UNL     1      -7.857  12.407  23.948  0.00  0.00    +0.000 NA
ATOM     31  C   UNL     1      -7.488  12.357  22.851  0.00  0.00    +0.000 C 
ENDBRANCH  24  31
ENDBRANCH  23  27
ENDBRANCH  17  23
ENDBRANCH   1  20
TORSDOF 7
ENDMDL
MODEL 2
REMARK VINA RESULT:      -6.7      5.242      7.143
REMARK  Name = 
REMARK  7 active torsions:
REMARK  status: ('A' for Active; 'I' for Inactive)
REMARK    1  A    between atoms: C_2  and  C_3
REMARK    2  A    between atoms: C_6  and  C_7
REMARK    3  A    between atoms: C_7  and  N_8
REMARK    4  A    between atoms: C_11  and  N_12
REMARK    5  A    between atoms: N_12  and  C_13
REMARK    6  A    between atoms: C_19  and  C_20
REMARK    7  A    between atoms: C_20  and  C_21
REMARK                            x       y       z     vdW  Elec       q    Type
REMARK                         _______ _______ _______ _____ _____    ______ ____
ROOT
ATOM      1  N   UNL     1       2.125   8.557  18.819  0.00  0.00    +0.000 N 
ATOM      2  H   UNL     1       1.482   8.177  19.505  0.00  0.00    +0.000 HD
ENDROOT
BRANCH   1   3
ATOM      3  C   UNL     1       2.879   7.533  18.239  0.00  0.00    +0.000 A 
ATOM      4  N   UNL     1       3.805   7.834  17.303  0.00  0.00    +0.000 NA
ATOM      5  C   UNL     1       4.499   6.841  16.726  0.00  0.00    +0.000 A 
ATOM      6  N   UNL     1       4.391   5.531  16.959  0.00  0.00    +0.000 NA
ATOM      7  C   UNL     1       3.472   5.257  17.896  0.00  0.00    +0.000 A 
ATOM      8  S   UNL     1       3.143   3.645  18.352  0.00  0.00    +0.000 S 
ATOM      9  C   UNL     1       1.948   4.126  19.480  0.00  0.00    +0.000 A 
ATOM     10  C   UNL     1       1.826   5.503  19.518  0.00  0.00    +0.000 A 
ATOM     11  C   UNL     1       2.692   6.174  18.581  0.00  0.00    +0.000 A 
BRANCH   9  12
ATOM     12  C   UNL     1       1.211   3.102  20.300  0.00  0.00    +0.000 C 
BRANCH  12  13
ATOM     13  C   UNL     1       1.818   2.818  21.669  0.00  0.00    +0.000 C 
ATOM     14  F   UNL     1       2.838   1.934  21.637  0.00  0.00    +0.000 F 
ATOM     15  F   UNL     1       2.282   3.956  22.237  0.00  0.00    +0.000 F 
ATOM     16  F   UNL     1       0.878   2.312  22.505  0.00  0.00    +0.000 F 
ENDBRANCH  12  13
ENDBRANCH   9  12
ENDBRANCH   1   3
BRANCH   1  20
ATOM     17  N   UNL     1       0.320  11.422  19.811  0.00  0.00    +0.000 NA
ATOM     18  C   UNL     1       1.739  11.491  19.447  0.00  0.00    +0.000 C 
ATOM     19  C   UNL     1       2.044  10.941  18.059  0.00  0.00    +0.000 C 
ATOM     20  C   UNL     1       1.507   9.520  17.893  0.00  0.00    +0.000 C 
ATOM     21  C   UNL     1      -0.002   9.568  18.133  0.00  0.00    +0.000 C 
ATOM     22  C   UNL     1      -0.353  10.162  19.500  0.00  0.00    +0.000 C 
BRANCH  17  23
ATOM     23  C   UNL     1       0.067  11.876  21.193  0.00  0.00    +0.000 C 
BRANCH  23  27
ATOM     24  C   UNL     1      -4.018  12.747  22.397  0.00  0.00    +0.000 A 
ATOM     25  C   UNL     1      -3.100  12.242  23.320  0.00  0.00    +0.000 A 
ATOM     26  C   UNL     1      -1.792  11.956  22.918  0.00  0.00    +0.000 A 
ATOM     27  C   UNL     1      -1.377  12.161  21.589  0.00  0.00    +0.000 A 
ATOM     28  C   UNL     1      -2.313  12.654  20.669  0.00  0.00    +0.000 A 
ATOM     29  C   UNL     1      -3.624  12.949  21.070  0.00  0.00    +0.000 A 
BRANCH  24  31
ATOM     30  N   UNL     1      -6.429  13.338  23.145  0.00  0.00    +0.000 NA
ATOM     31  C   UNL     1      -5.354  13.070  22.810  0.00  0.00    +0.000 C 
ENDBRANCH  24  31
ENDBRANCH  23  27
ENDBRANCH  17  23
ENDBRANCH   1  20
TORSDOF 7
ENDMDL
MODEL 3
REMARK VINA RESULT:      -6.7      5.060      6.909
REMARK  Name = 
REMARK  7 active torsions:
REMARK  status: ('A' for Active; 'I' for Inactive)
REMARK    1  A    between atoms: C_2  and  C_3
REMARK    2  A    between atoms: C_6  and  C_7
REMARK    3  A    between atoms: C_7  and  N_8
REMARK    4  A    between atoms: C_11  and  N_12
REMARK    5  A    between atoms: N_12  and  C_13
REMARK    6  A    between atoms: C_19  and  C_20
REMARK    7  A    between atoms: C_20  and  C_21
REMARK                            x       y       z     vdW  Elec       q    Type
REMARK                         _______ _______ _______ _____ _____    ______ ____
ROOT
ATOM      1  N   UNL     1       1.385   8.998  19.208  0.00  0.00    +0.000 N 
ATOM      2  H   UNL     1       0.664   8.484  19.703  0.00  0.00    +0.000 HD
ENDROOT
BRANCH   1   3
ATOM      3  C   UNL     1       2.297   8.116  18.620  0.00  0.00    +0.000 A 
ATOM      4  N   UNL     1       2.925   8.468  17.478  0.00  0.00    +0.000 NA
ATOM      5  C   UNL     1       3.772   7.601  16.903  0.00  0.00    +0.000 A 
ATOM      6  N   UNL     1       4.092   6.376  17.324  0.00  0.00    +0.000 NA
ATOM      7  C   UNL     1       3.463   6.051  18.463  0.00  0.00    +0.000 A 
ATOM      8  S   UNL     1       3.699   4.523  19.188  0.00  0.00    +0.000 S 
ATOM      9  C   UNL     1       2.621   4.878  20.470  0.00  0.00    +0.000 A 
ATOM     10  C   UNL     1       2.111   6.158  20.350  0.00  0.00    +0.000 A 
ATOM     11  C   UNL     1       2.574   6.844  19.172  0.00  0.00    +0.000 A 
BRANCH   9  12
ATOM     12  C   UNL     1       2.363   3.869  21.556  0.00  0.00    +0.000 C 
BRANCH  12  13
ATOM     13  C   UNL     1       1.308   2.820  21.221  0.00  0.00    +0.000 C 
ATOM     14  F   UNL     1       0.723   2.273  22.306  0.00  0.00    +0.000 F 
ATOM     15  F   UNL     1       0.329   3.350  20.451  0.00  0.00    +0.000 F 
ATOM     16  F   UNL     1       1.863   1.806  20.513  0.00  0.00    +0.000 F 
ENDBRANCH  12  13
ENDBRANCH   9  12
ENDBRANCH   1   3
BRANCH   1  20
ATOM     17  N   UNL     1      -0.179  11.936  20.379  0.00  0.00    +0.000 NA
ATOM     18  C   UNL     1       1.245  11.906  20.031  0.00  0.00    +0.000 C 
ATOM     19  C   UNL     1       1.520  11.426  18.611  0.00  0.00    +0.000 C 
ATOM     20  C   UNL     1       0.865  10.071  18.344  0.00  0.00    +0.000 C 
ATOM     21  C   UNL     1      -0.638  10.234  18.577  0.00  0.00    +0.000 C 
ATOM     22  C   UNL     1      -0.954  10.763  19.978  0.00  0.00    +0.000 C 
BRANCH  17  23
ATOM     23  C   UNL     1      -0.410  12.317  21.787  0.00  0.00    +0.000 C 
BRANCH  23  27
ATOM     24  C   UNL     1      -4.463  13.195  23.089  0.00  0.00    +0.000 A 
ATOM     25  C   UNL     1      -3.671  12.292  23.800  0.00  0.00    +0.000 A 
ATOM     26  C   UNL     1      -2.372  12.011  23.366  0.00  0.00    +0.000 A 
ATOM     27  C   UNL     1      -1.842  12.617  22.211  0.00  0.00    +0.000 A 
ATOM     28  C   UNL     1      -2.654  13.509  21.497  0.00  0.00    +0.000 A 
ATOM     29  C   UNL     1      -3.955  13.800  21.934  0.00  0.00    +0.000 A 
BRANCH  24  31
ATOM     30  N   UNL     1      -6.857  13.759  23.911  0.00  0.00    +0.000 NA
ATOM     31  C   UNL     1      -5.786  13.511  23.546  0.00  0.00    +0.000 C 
ENDBRANCH  24  31
ENDBRANCH  23  27
ENDBRANCH  17  23
ENDBRANCH   1  20
TORSDOF 7
ENDMDL
MODEL 4
REMARK VINA RESULT:      -6.6      8.653     11.836
REMARK  Name = 
REMARK  7 active torsions:
REMARK  status: ('A' for Active; 'I' for Inactive)
REMARK    1  A    between atoms: C_2  and  C_3
REMARK    2  A    between atoms: C_6  and  C_7
REMARK    3  A    between atoms: C_7  and  N_8
REMARK    4  A    between atoms: C_11  and  N_12
REMARK    5  A    between atoms: N_12  and  C_13
REMARK    6  A    between atoms: C_19  and  C_20
REMARK    7  A    between atoms: C_20  and  C_21
REMARK                            x       y       z     vdW  Elec       q    Type
REMARK                         _______ _______ _______ _____ _____    ______ ____
ROOT
ATOM      1  N   UNL     1       3.790   4.468  16.785  0.00  0.00    +0.000 N 
ATOM      2  H   UNL     1       3.452   5.233  17.359  0.00  0.00    +0.000 HD
ENDROOT
BRANCH   1   3
ATOM      3  C   UNL     1       5.063   4.758  16.284  0.00  0.00    +0.000 A 
ATOM      4  N   UNL     1       5.945   5.433  17.053  0.00  0.00    +0.000 NA
ATOM      5  C   UNL     1       7.150   5.738  16.550  0.00  0.00    +0.000 A 
ATOM      6  N   UNL     1       7.620   5.455  15.333  0.00  0.00    +0.000 NA
ATOM      7  C   UNL     1       6.731   4.779  14.591  0.00  0.00    +0.000 A 
ATOM      8  S   UNL     1       7.098   4.319  12.988  0.00  0.00    +0.000 S 
ATOM      9  C   UNL     1       5.568   3.584  12.767  0.00  0.00    +0.000 A 
ATOM     10  C   UNL     1       4.803   3.672  13.914  0.00  0.00    +0.000 A 
ATOM     11  C   UNL     1       5.459   4.388  14.979  0.00  0.00    +0.000 A 
BRANCH   9  12
ATOM     12  C   UNL     1       5.217   2.922  11.461  0.00  0.00    +0.000 C 
BRANCH  12  13
ATOM     13  C   UNL     1       3.824   3.243  10.932  0.00  0.00    +0.000 C 
ATOM     14  F   UNL     1       3.645   4.546  10.631  0.00  0.00    +0.000 F 
ATOM     15  F   UNL     1       3.555   2.525   9.817  0.00  0.00    +0.000 F 
ATOM     16  F   UNL     1       2.885   2.913  11.852  0.00  0.00    +0.000 F 
ENDBRANCH  12  13
ENDBRANCH   9  12
ENDBRANCH   1   3
BRANCH   1  20
ATOM     17  N   UNL     1       2.490   3.908  20.017  0.00  0.00    +0.000 NA
ATOM     18  C   UNL     1       1.648   3.820  18.821  0.00  0.00    +0.000 C 
ATOM     19  C   UNL     1       2.166   2.840  17.775  0.00  0.00    +0.000 C 
ATOM     20  C   UNL     1       3.617   3.142  17.400  0.00  0.00    +0.000 C 
ATOM     21  C   UNL     1       4.449   3.056  18.680  0.00  0.00    +0.000 C 
ATOM     22  C   UNL     1       3.929   3.991  19.774  0.00  0.00    +0.000 C 
BRANCH  17  23
ATOM     23  C   UNL     1       2.014   4.930  20.971  0.00  0.00    +0.000 C 
BRANCH  23  27
ATOM     24  C   UNL     1       1.512   8.958  19.414  0.00  0.00    +0.000 A 
ATOM     25  C   UNL     1       2.264   8.015  18.711  0.00  0.00    +0.000 A 
ATOM     26  C   UNL     1       2.426   6.726  19.227  0.00  0.00    +0.000 A 
ATOM     27  C   UNL     1       1.850   6.355  20.456  0.00  0.00    +0.000 A 
ATOM     28  C   UNL     1       1.110   7.316  21.160  0.00  0.00    +0.000 A 
ATOM     29  C   UNL     1       0.939   8.608  20.642  0.00  0.00    +0.000 A 
BRANCH  24  31
ATOM     30  N   UNL     1       1.166  11.334  18.437  0.00  0.00    +0.000 NA
ATOM     31  C   UNL     1       1.317  10.273  18.877  0.00  0.00    +0.000 C 
ENDBRANCH  24  31
ENDBRANCH  23  27
ENDBRANCH  17  23
ENDBRANCH   1  20
TORSDOF 7
ENDMDL
MODEL 5
REMARK VINA RESULT:      -6.6      4.142      8.525
REMARK  Name = 
REMARK  7 active torsions:
REMARK  status: ('A' for Active; 'I' for Inactive)
REMARK    1  A    between atoms: C_2  and  C_3
REMARK    2  A    between atoms: C_6  and  C_7
REMARK    3  A    between atoms: C_7  and  N_8
REMARK    4  A    between atoms: C_11  and  N_12
REMARK    5  A    between atoms: N_12  and  C_13
REMARK    6  A    between atoms: C_19  and  C_20
REMARK    7  A    between atoms: C_20  and  C_21
REMARK                            x       y       z     vdW  Elec       q    Type
REMARK                         _______ _______ _______ _____ _____    ______ ____
ROOT
ATOM      1  N   UNL     1      -1.295  12.849  20.071  0.00  0.00    +0.000 N 
ATOM      2  H   UNL     1      -1.010  12.546  19.146  0.00  0.00    +0.000 HD
ENDROOT
BRANCH   1   3
ATOM      3  C   UNL     1      -2.677  12.707  20.228  0.00  0.00    +0.000 A 
ATOM      4  N   UNL     1      -3.259  13.088  21.385  0.00  0.00    +0.000 NA
ATOM      5  C   UNL     1      -4.581  12.916  21.539  0.00  0.00    +0.000 A 
ATOM      6  N   UNL     1      -5.440  12.389  20.664  0.00  0.00    +0.000 NA
ATOM      7  C   UNL     1      -4.841  12.025  19.521  0.00  0.00    +0.000 A 
ATOM      8  S   UNL     1      -5.734  11.309  18.254  0.00  0.00    +0.000 S 
ATOM      9  C   UNL     1      -4.347  11.148  17.264  0.00  0.00    +0.000 A 
ATOM     10  C   UNL     1      -3.226  11.659  17.890  0.00  0.00    +0.000 A 
ATOM     11  C   UNL     1      -3.495  12.152  19.217  0.00  0.00    +0.000 A 
BRANCH   9  12
ATOM     12  C   UNL     1      -4.454  10.547  15.887  0.00  0.00    +0.000 C 
BRANCH  12  13
ATOM     13  C   UNL     1      -3.120  10.248  15.213  0.00  0.00    +0.000 C 
ATOM     14  F   UNL     1      -3.232   9.932  13.906  0.00  0.00    +0.000 F 
ATOM     15  F   UNL     1      -2.284  11.309  15.306  0.00  0.00    +0.000 F 
ATOM     16  F   UNL     1      -2.507   9.205  15.824  0.00  0.00    +0.000 F 
ENDBRANCH  12  13
ENDBRANCH   9  12
ENDBRANCH   1   3
BRANCH   1  20
ATOM     17  N   UNL     1       0.992  10.185  19.717  0.00  0.00    +0.000 NA
ATOM     18  C   UNL     1       1.420  11.585  19.639  0.00  0.00    +0.000 C 
ATOM     19  C   UNL     1       1.041  12.412  20.861  0.00  0.00    +0.000 C 
ATOM     20  C   UNL     1      -0.456  12.315  21.157  0.00  0.00    +0.000 C 
ATOM     21  C   UNL     1      -0.784  10.839  21.382  0.00  0.00    +0.000 C 
ATOM     22  C   UNL     1      -0.373   9.966  20.194  0.00  0.00    +0.000 C 
BRANCH  17  23
ATOM     23  C   UNL     1       1.291   9.431  18.483  0.00  0.00    +0.000 C 
BRANCH  23  27
ATOM     24  C   UNL     1       3.755   5.869  18.849  0.00  0.00    +0.000 A 
ATOM     25  C   UNL     1       2.869   6.224  19.867  0.00  0.00    +0.000 A 
ATOM     26  C   UNL     1       2.088   7.378  19.742  0.00  0.00    +0.000 A 
ATOM     27  C   UNL     1       2.183   8.202  18.605  0.00  0.00    +0.000 A 
ATOM     28  C   UNL     1       3.090   7.842  17.597  0.00  0.00    +0.000 A 
ATOM     29  C   UNL     1       3.868   6.682  17.716  0.00  0.00    +0.000 A 
BRANCH  24  31
ATOM     30  N   UNL     1       5.172   3.706  19.039  0.00  0.00    +0.000 NA
ATOM     31  C   UNL     1       4.537   4.671  18.958  0.00  0.00    +0.000 C 
ENDBRANCH  24  31
ENDBRANCH  23  27
ENDBRANCH  17  23
ENDBRANCH   1  20
TORSDOF 7
ENDMDL
MODEL 6
REMARK VINA RESULT:      -6.5      5.202     10.107
REMARK  Name = 
REMARK  7 active torsions:
REMARK  status: ('A' for Active; 'I' for Inactive)
REMARK    1  A    between atoms: C_2  and  C_3
REMARK    2  A    between atoms: C_6  and  C_7
REMARK    3  A    between atoms: C_7  and  N_8
REMARK    4  A    between atoms: C_11  and  N_12
REMARK    5  A    between atoms: N_12  and  C_13
REMARK    6  A    between atoms: C_19  and  C_20
REMARK    7  A    between atoms: C_20  and  C_21
REMARK                            x       y       z     vdW  Elec       q    Type
REMARK                         _______ _______ _______ _____ _____    ______ ____
ROOT
ATOM      1  N   UNL     1       2.304   7.239  19.195  0.00  0.00    +0.000 N 
ATOM      2  H   UNL     1       2.227   7.527  18.226  0.00  0.00    +0.000 HD
ENDROOT
BRANCH   1   3
ATOM      3  C   UNL     1       1.701   8.181  20.034  0.00  0.00    +0.000 A 
ATOM      4  N   UNL     1       2.032   8.217  21.343  0.00  0.00    +0.000 NA
ATOM      5  C   UNL     1       1.423   9.101  22.147  0.00  0.00    +0.000 A 
ATOM      6  N   UNL     1       0.485   9.991  21.815  0.00  0.00    +0.000 NA
ATOM      7  C   UNL     1       0.178   9.942  20.511  0.00  0.00    +0.000 A 
ATOM      8  S   UNL     1      -1.011  10.975  19.852  0.00  0.00    +0.000 S 
ATOM      9  C   UNL     1      -0.822  10.319  18.282  0.00  0.00    +0.000 A 
ATOM     10  C   UNL     1       0.155   9.341  18.266  0.00  0.00    +0.000 A 
ATOM     11  C   UNL     1       0.730   9.094  19.564  0.00  0.00    +0.000 A 
BRANCH   9  12
ATOM     12  C   UNL     1      -1.640  10.839  17.130  0.00  0.00    +0.000 C 
BRANCH  12  13
ATOM     13  C   UNL     1      -3.117  10.464  17.170  0.00  0.00    +0.000 C 
ATOM     14  F   UNL     1      -3.866  11.288  17.932  0.00  0.00    +0.000 F 
ATOM     15  F   UNL     1      -3.647  10.464  15.925  0.00  0.00    +0.000 F 
ATOM     16  F   UNL     1      -3.270   9.212  17.666  0.00  0.00    +0.000 F 
ENDBRANCH  12  13
ENDBRANCH   9  12
ENDBRANCH   1   3
BRANCH   1  20
ATOM     17  N   UNL     1       4.300   4.477  18.279  0.00  0.00    +0.000 NA
ATOM     18  C   UNL     1       4.324   5.031  19.636  0.00  0.00    +0.000 C 
ATOM     19  C   UNL     1       2.954   5.089  20.301  0.00  0.00    +0.000 C 
ATOM     20  C   UNL     1       1.943   5.831  19.428  0.00  0.00    +0.000 C 
ATOM     21  C   UNL     1       1.863   5.093  18.090  0.00  0.00    +0.000 C 
ATOM     22  C   UNL     1       3.230   4.970  17.413  0.00  0.00    +0.000 C 
BRANCH  17  23
ATOM     23  C   UNL     1       5.624   4.518  17.627  0.00  0.00    +0.000 C 
BRANCH  23  27
ATOM     24  C   UNL     1       7.890   8.199  18.085  0.00  0.00    +0.000 A 
ATOM     25  C   UNL     1       6.778   8.152  17.242  0.00  0.00    +0.000 A 
ATOM     26  C   UNL     1       6.063   6.960  17.095  0.00  0.00    +0.000 A 
ATOM     27  C   UNL     1       6.447   5.791  17.779  0.00  0.00    +0.000 A 
ATOM     28  C   UNL     1       7.575   5.848  18.610  0.00  0.00    +0.000 A 
ATOM     29  C   UNL     1       8.290   7.044  18.765  0.00  0.00    +0.000 A 
BRANCH  24  31
ATOM     30  N   UNL     1       9.190  10.421  18.397  0.00  0.00    +0.000 NA
ATOM     31  C   UNL     1       8.610   9.427  18.262  0.00  0.00    +0.000 C 
ENDBRANCH  24  31
ENDBRANCH  23  27
ENDBRANCH  17  23
ENDBRANCH   1  20
TORSDOF 7
ENDMDL
MODEL 7
REMARK VINA RESULT:      -6.5      9.311     12.440
REMARK  Name = 
REMARK  7 active torsions:
REMARK  status: ('A' for Active; 'I' for Inactive)
REMARK    1  A    between atoms: C_2  and  C_3
REMARK    2  A    between atoms: C_6  and  C_7
REMARK    3  A    between atoms: C_7  and  N_8
REMARK    4  A    between atoms: C_11  and  N_12
REMARK    5  A    between atoms: N_12  and  C_13
REMARK    6  A    between atoms: C_19  and  C_20
REMARK    7  A    between atoms: C_20  and  C_21
REMARK                            x       y       z     vdW  Elec       q    Type
REMARK                         _______ _______ _______ _____ _____    ______ ____
ROOT
ATOM      1  N   UNL     1       3.892   4.103  16.734  0.00  0.00    +0.000 N 
ATOM      2  H   UNL     1       3.354   4.850  17.159  0.00  0.00    +0.000 HD
ENDROOT
BRANCH   1   3
ATOM      3  C   UNL     1       5.126   4.583  16.285  0.00  0.00    +0.000 A 
ATOM      4  N   UNL     1       5.884   5.344  17.104  0.00  0.00    +0.000 NA
ATOM      5  C   UNL     1       7.050   5.829  16.651  0.00  0.00    +0.000 A 
ATOM      6  N   UNL     1       7.588   5.657  15.442  0.00  0.00    +0.000 NA
ATOM      7  C   UNL     1       6.822   4.893  14.650  0.00  0.00    +0.000 A 
ATOM      8  S   UNL     1       7.294   4.548  13.046  0.00  0.00    +0.000 S 
ATOM      9  C   UNL     1       5.887   3.618  12.750  0.00  0.00    +0.000 A 
ATOM     10  C   UNL     1       5.085   3.558  13.874  0.00  0.00    +0.000 A 
ATOM     11  C   UNL     1       5.606   4.318  14.982  0.00  0.00    +0.000 A 
BRANCH   9  12
ATOM     12  C   UNL     1       5.669   2.963  11.413  0.00  0.00    +0.000 C 
BRANCH  12  13
ATOM     13  C   UNL     1       6.415   1.649  11.212  0.00  0.00    +0.000 C 
ATOM     14  F   UNL     1       7.741   1.736  11.447  0.00  0.00    +0.000 F 
ATOM     15  F   UNL     1       5.920   0.684  12.023  0.00  0.00    +0.000 F 
ATOM     16  F   UNL     1       6.264   1.212   9.938  0.00  0.00    +0.000 F 
ENDBRANCH  12  13
ENDBRANCH   9  12
ENDBRANCH   1   3
BRANCH   1  20
ATOM     17  N   UNL     1       2.446   3.738  19.932  0.00  0.00    +0.000 NA
ATOM     18  C   UNL     1       1.744   3.319  18.716  0.00  0.00    +0.000 C 
ATOM     19  C   UNL     1       2.530   2.330  17.862  0.00  0.00    +0.000 C 
ATOM     20  C   UNL     1       3.923   2.865  17.531  0.00  0.00    +0.000 C 
ATOM     21  C   UNL     1       4.642   3.125  18.855  0.00  0.00    +0.000 C 
ATOM     22  C   UNL     1       3.858   4.077  19.764  0.00  0.00    +0.000 C 
BRANCH  17  23
ATOM     23  C   UNL     1       1.703   4.763  20.691  0.00  0.00    +0.000 C 
BRANCH  23  27
ATOM     24  C   UNL     1       1.797   8.825  19.145  0.00  0.00    +0.000 A 
ATOM     25  C   UNL     1       2.273   7.763  18.375  0.00  0.00    +0.000 A 
ATOM     26  C   UNL     1       2.246   6.462  18.886  0.00  0.00    +0.000 A 
ATOM     27  C   UNL     1       1.753   6.197  20.178  0.00  0.00    +0.000 A 
ATOM     28  C   UNL     1       1.293   7.275  20.948  0.00  0.00    +0.000 A 
ATOM     29  C   UNL     1       1.311   8.580  20.434  0.00  0.00    +0.000 A 
BRANCH  24  31
ATOM     30  N   UNL     1       1.784  11.233  18.184  0.00  0.00    +0.000 NA
ATOM     31  C   UNL     1       1.794  10.158  18.614  0.00  0.00    +0.000 C 
ENDBRANCH  24  31
ENDBRANCH  23  27
ENDBRANCH  17  23
ENDBRANCH   1  20
TORSDOF 7
ENDMDL
MODEL 8
REMARK VINA RESULT:      -6.5      5.976      8.106
REMARK  Name = 
REMARK  7 active torsions:
REMARK  status: ('A' for Active; 'I' for Inactive)
REMARK    1  A    between atoms: C_2  and  C_3
REMARK    2  A    between atoms: C_6  and  C_7
REMARK    3  A    between atoms: C_7  and  N_8
REMARK    4  A    between atoms: C_11  and  N_12
REMARK    5  A    between atoms: N_12  and  C_13
REMARK    6  A    between atoms: C_19  and  C_20
REMARK    7  A    between atoms: C_20  and  C_21
REMARK                            x       y       z     vdW  Elec       q    Type
REMARK                         _______ _______ _______ _____ _____    ______ ____
ROOT
ATOM      1  N   UNL     1       2.220   8.404  19.381  0.00  0.00    +0.000 N 
ATOM      2  H   UNL     1       1.811   8.822  20.209  0.00  0.00    +0.000 HD
ENDROOT
BRANCH   1   3
ATOM      3  C   UNL     1       2.332   7.019  19.536  0.00  0.00    +0.000 A 
ATOM      4  N   UNL     1       1.709   6.411  20.569  0.00  0.00    +0.000 NA
ATOM      5  C   UNL     1       1.851   5.088  20.730  0.00  0.00    +0.000 A 
ATOM      6  N   UNL     1       2.562   4.247  19.974  0.00  0.00    +0.000 NA
ATOM      7  C   UNL     1       3.165   4.872  18.952  0.00  0.00    +0.000 A 
ATOM      8  S   UNL     1       4.147   4.007  17.855  0.00  0.00    +0.000 S 
ATOM      9  C   UNL     1       4.513   5.414  16.953  0.00  0.00    +0.000 A 
ATOM     10  C   UNL     1       3.870   6.521  17.475  0.00  0.00    +0.000 A 
ATOM     11  C   UNL     1       3.100   6.224  18.656  0.00  0.00    +0.000 A 
BRANCH   9  12
ATOM     12  C   UNL     1       5.402   5.338  15.740  0.00  0.00    +0.000 C 
BRANCH  12  13
ATOM     13  C   UNL     1       6.894   5.266  16.042  0.00  0.00    +0.000 C 
ATOM     14  F   UNL     1       7.250   4.187  16.769  0.00  0.00    +0.000 F 
ATOM     15  F   UNL     1       7.617   5.244  14.898  0.00  0.00    +0.000 F 
ATOM     16  F   UNL     1       7.286   6.362  16.737  0.00  0.00    +0.000 F 
ENDBRANCH  12  13
ENDBRANCH   9  12
ENDBRANCH   1   3
BRANCH   1  20
ATOM     17  N   UNL     1       0.669  11.543  18.942  0.00  0.00    +0.000 NA
ATOM     18  C   UNL     1       2.068  11.315  18.568  0.00  0.00    +0.000 C 
ATOM     19  C   UNL     1       2.263  10.159  17.595  0.00  0.00    +0.000 C 
ATOM     20  C   UNL     1       1.623   8.874  18.120  0.00  0.00    +0.000 C 
ATOM     21  C   UNL     1       0.134   9.156  18.330  0.00  0.00    +0.000 C 
ATOM     22  C   UNL     1      -0.104  10.345  19.266  0.00  0.00    +0.000 C 
BRANCH  17  23
ATOM     23  C   UNL     1       0.519  12.607  19.954  0.00  0.00    +0.000 C 
BRANCH  23  27
ATOM     24  C   UNL     1      -2.695  12.278  22.863  0.00  0.00    +0.000 A 
ATOM     25  C   UNL     1      -1.453  11.691  23.110  0.00  0.00    +0.000 A 
ATOM     26  C   UNL     1      -0.430  11.795  22.163  0.00  0.00    +0.000 A 
ATOM     27  C   UNL     1      -0.629  12.479  20.949  0.00  0.00    +0.000 A 
ATOM     28  C   UNL     1      -1.886  13.050  20.706  0.00  0.00    +0.000 A 
ATOM     29  C   UNL     1      -2.912  12.955  21.658  0.00  0.00    +0.000 A 
BRANCH  24  31
ATOM     30  N   UNL     1      -4.580  12.144  24.638  0.00  0.00    +0.000 NA
ATOM     31  C   UNL     1      -3.739  12.200  23.844  0.00  0.00    +0.000 C 
ENDBRANCH  24  31
ENDBRANCH  23  27
ENDBRANCH  17  23
ENDBRANCH   1  20
TORSDOF 7
ENDMDL
MODEL 9
REMARK VINA RESULT:      -6.5      9.258     12.360
REMARK  Name = 
REMARK  7 active torsions:
REMARK  status: ('A' for Active; 'I' for Inactive)
REMARK    1  A    between atoms: C_2  and  C_3
REMARK    2  A    between atoms: C_6  and  C_7
REMARK    3  A    between atoms: C_7  and  N_8
REMARK    4  A    between atoms: C_11  and  N_12
REMARK    5  A    between atoms: N_12  and  C_13
REMARK    6  A    between atoms: C_19  and  C_20
REMARK    7  A    between atoms: C_20  and  C_21
REMARK                            x       y       z     vdW  Elec       q    Type
REMARK                         _______ _______ _______ _____ _____    ______ ____
ROOT
ATOM      1  N   UNL     1       3.864   4.301  16.748  0.00  0.00    +0.000 N 
ATOM      2  H   UNL     1       3.397   5.056  17.238  0.00  0.00    +0.000 HD
ENDROOT
BRANCH   1   3
ATOM      3  C   UNL     1       5.109   4.724  16.273  0.00  0.00    +0.000 A 
ATOM      4  N   UNL     1       5.900   5.486  17.058  0.00  0.00    +0.000 NA
ATOM      5  C   UNL     1       7.077   5.916  16.580  0.00  0.00    +0.000 A 
ATOM      6  N   UNL     1       7.598   5.686  15.373  0.00  0.00    +0.000 NA
ATOM      7  C   UNL     1       6.800   4.921  14.614  0.00  0.00    +0.000 A 
ATOM      8  S   UNL     1       7.245   4.505  13.019  0.00  0.00    +0.000 S 
ATOM      9  C   UNL     1       5.805   3.614  12.767  0.00  0.00    +0.000 A 
ATOM     10  C   UNL     1       5.012   3.620  13.899  0.00  0.00    +0.000 A 
ATOM     11  C   UNL     1       5.568   4.399  14.976  0.00  0.00    +0.000 A 
BRANCH   9  12
ATOM     12  C   UNL     1       5.552   2.921  11.454  0.00  0.00    +0.000 C 
BRANCH  12  13
ATOM     13  C   UNL     1       6.331   1.626  11.252  0.00  0.00    +0.000 C 
ATOM     14  F   UNL     1       6.122   1.050  10.050  0.00  0.00    +0.000 F 
ATOM     15  F   UNL     1       7.662   1.840  11.376  0.00  0.00    +0.000 F 
ATOM     16  F   UNL     1       5.986   0.717  12.196  0.00  0.00    +0.000 F 
ENDBRANCH  12  13
ENDBRANCH   9  12
ENDBRANCH   1   3
BRANCH   1  20
ATOM     17  N   UNL     1       2.571   3.853  20.000  0.00  0.00    +0.000 NA
ATOM     18  C   UNL     1       1.773   3.562  18.806  0.00  0.00    +0.000 C 
ATOM     19  C   UNL     1       2.432   2.570  17.854  0.00  0.00    +0.000 C 
ATOM     20  C   UNL     1       3.842   3.019  17.471  0.00  0.00    +0.000 C 
ATOM     21  C   UNL     1       4.650   3.144  18.764  0.00  0.00    +0.000 C 
ATOM     22  C   UNL     1       3.994   4.095  19.768  0.00  0.00    +0.000 C 
BRANCH  17  23
ATOM     23  C   UNL     1       1.952   4.883  20.858  0.00  0.00    +0.000 C 
BRANCH  23  27
ATOM     24  C   UNL     1       1.637   8.938  19.321  0.00  0.00    +0.000 A 
ATOM     25  C   UNL     1       1.140   8.619  20.586  0.00  0.00    +0.000 A 
ATOM     26  C   UNL     1       1.239   7.310  21.066  0.00  0.00    +0.000 A 
ATOM     27  C   UNL     1       1.826   6.292  20.290  0.00  0.00    +0.000 A 
ATOM     28  C   UNL     1       2.306   6.622  19.015  0.00  0.00    +0.000 A 
ATOM     29  C   UNL     1       2.216   7.936  18.534  0.00  0.00    +0.000 A 
BRANCH  24  31
ATOM     30  N   UNL     1       1.516  11.375  18.445  0.00  0.00    +0.000 NA
ATOM     31  C   UNL     1       1.565  10.286  18.835  0.00  0.00    +0.000 C 
ENDBRANCH  24  31
ENDBRANCH  23  27
ENDBRANCH  17  23
ENDBRANCH   1  20
TORSDOF 7
ENDMDL
