MODEL 1
REMARK VINA RESULT:      -8.5      0.000      0.000
REMARK  Name = 
REMARK  8 active torsions:
REMARK  status: ('A' for Active; 'I' for Inactive)
REMARK    1  A    between atoms: N_6  and  C_7
REMARK    2  A    between atoms: C_10  and  C_11
REMARK    3  A    between atoms: C_11  and  N_12
REMARK    4  A    between atoms: N_12  and  C_13
REMARK    5  A    between atoms: N_12  and  S_18
REMARK    6  A    between atoms: C_13  and  C_14
REMARK    7  A    between atoms: S_18  and  C_21
REMARK    8  A    between atoms: C_21  and  C_22
REMARK                            x       y       z     vdW  Elec       q    Type
REMARK                         _______ _______ _______ _____ _____    ______ ____
ROOT
ATOM      1  C   UNL     1       3.644   6.032  19.300  0.00  0.00    +0.000 C 
ENDROOT
BRANCH   1   5
ATOM      2  C   UNL     1       0.775   9.226  19.989  0.00  0.00    +0.000 A 
ATOM      3  C   UNL     1       0.965   8.200  20.933  0.00  0.00    +0.000 A 
ATOM      4  C   UNL     1       1.864   7.144  20.729  0.00  0.00    +0.000 A 
ATOM      5  C   UNL     1       2.565   7.048  19.529  0.00  0.00    +0.000 A 
ATOM      6  C   UNL     1       2.321   8.011  18.553  0.00  0.00    +0.000 A 
ATOM      7  F   UNL     1       2.961   7.940  17.378  0.00  0.00    +0.000 F 
ATOM      8  C   UNL     1       1.450   9.076  18.773  0.00  0.00    +0.000 A 
BRANCH   2  14
ATOM      9  O   UNL     1       0.459  14.225  18.692  0.00  0.00    +0.000 OA
ATOM     10  S   UNL     1      -0.242  13.252  19.513  0.00  0.00    +0.000 S 
ATOM     11  O   UNL     1      -1.396  13.655  20.287  0.00  0.00    +0.000 OA
ATOM     12  C   UNL     1       0.945  12.532  20.613  0.00  0.00    +0.000 C 
ATOM     13  C   UNL     1       0.335  11.303  21.272  0.00  0.00    +0.000 C 
ATOM     14  N   UNL     1      -0.050  10.308  20.257  0.00  0.00    +0.000 N 
ATOM     15  C   UNL     1      -1.125  10.723  19.337  0.00  0.00    +0.000 C 
ATOM     16  C   UNL     1      -0.696  11.891  18.477  0.00  0.00    +0.000 C 
ENDBRANCH   2  14
ENDBRANCH   1   5
BRANCH   1  17
ATOM     17  N   UNL     1       3.338   4.602  19.642  0.00  0.00    +0.000 NA
BRANCH  17  18
ATOM     18  S   UNL     1       4.672   3.571  19.135  0.00  0.00    +0.000 S 
ATOM     19  O   UNL     1       5.841   4.430  19.072  0.00  0.00    +0.000 OA
ATOM     20  O   UNL     1       4.645   2.418  20.013  0.00  0.00    +0.000 OA
BRANCH  18  21
ATOM     21  C   UNL     1       4.222   3.087  17.445  0.00  0.00    +0.000 C 
BRANCH  21  22
ATOM     22  C   UNL     1       4.989   3.965  16.485  0.00  0.00    +0.000 A 
ATOM     23  C   UNL     1       4.682   5.330  16.364  0.00  0.00    +0.000 A 
ATOM     24  C   UNL     1       5.362   6.133  15.445  0.00  0.00    +0.000 A 
ATOM     25  C   UNL     1       6.353   5.581  14.638  0.00  0.00    +0.000 A 
ATOM     26  C   UNL     1       6.671   4.229  14.754  0.00  0.00    +0.000 A 
ATOM     27  C   UNL     1       5.994   3.424  15.672  0.00  0.00    +0.000 A 
ENDBRANCH  21  22
ENDBRANCH  18  21
ENDBRANCH  17  18
BRANCH  17  28
ATOM     28  C   UNL     1       2.069   4.079  18.925  0.00  0.00    +0.000 C 
BRANCH  28  29
ATOM     29  C   UNL     1       1.007   3.278  19.691  0.00  0.00    +0.000 C 
ATOM     30  F   UNL     1       0.125   2.621  18.923  0.00  0.00    +0.000 F 
ATOM     31  F   UNL     1       1.598   2.371  20.506  0.00  0.00    +0.000 F 
ATOM     32  F   UNL     1       0.277   4.101  20.488  0.00  0.00    +0.000 F 
ENDBRANCH  28  29
ENDBRANCH  17  28
ENDBRANCH   1  17
TORSDOF 8
ENDMDL
MODEL 2
REMARK VINA RESULT:      -8.5      1.343      1.894
REMARK  Name = 
REMARK  8 active torsions:
REMARK  status: ('A' for Active; 'I' for Inactive)
REMARK    1  A    between atoms: N_6  and  C_7
REMARK    2  A    between atoms: C_10  and  C_11
REMARK    3  A    between atoms: C_11  and  N_12
REMARK    4  A    between atoms: N_12  and  C_13
REMARK    5  A    between atoms: N_12  and  S_18
REMARK    6  A    between atoms: C_13  and  C_14
REMARK    7  A    between atoms: S_18  and  C_21
REMARK    8  A    between atoms: C_21  and  C_22
REMARK                            x       y       z     vdW  Elec       q    Type
REMARK                         _______ _______ _______ _____ _____    ______ ____
ROOT
ATOM      1  C   UNL     1       2.433   5.628  19.014  0.00  0.00    +0.000 C 
ENDROOT
BRANCH   1   5
ATOM      2  C   UNL     1       1.341   9.837  19.080  0.00  0.00    +0.000 A 
ATOM      3  C   UNL     1       2.023   9.277  17.984  0.00  0.00    +0.000 A 
ATOM      4  C   UNL     1       2.409   7.930  17.943  0.00  0.00    +0.000 A 
ATOM      5  C   UNL     1       2.178   7.106  19.043  0.00  0.00    +0.000 A 
ATOM      6  C   UNL     1       1.581   7.671  20.166  0.00  0.00    +0.000 A 
ATOM      7  F   UNL     1       1.361   6.915  21.251  0.00  0.00    +0.000 F 
ATOM      8  C   UNL     1       1.169   9.003  20.190  0.00  0.00    +0.000 A 
BRANCH   2  14
ATOM      9  O   UNL     1       1.691  14.082  22.019  0.00  0.00    +0.000 OA
ATOM     10  S   UNL     1       1.074  13.648  20.777  0.00  0.00    +0.000 S 
ATOM     11  O   UNL     1       0.252  14.565  20.018  0.00  0.00    +0.000 OA
ATOM     12  C   UNL     1       0.112  12.204  21.138  0.00  0.00    +0.000 C 
ATOM     13  C   UNL     1      -0.300  11.539  19.833  0.00  0.00    +0.000 C 
ATOM     14  N   UNL     1       0.887  11.148  19.054  0.00  0.00    +0.000 N 
ATOM     15  C   UNL     1       1.727  12.260  18.574  0.00  0.00    +0.000 C 
ATOM     16  C   UNL     1       2.350  13.019  19.725  0.00  0.00    +0.000 C 
ENDBRANCH   2  14
ENDBRANCH   1   5
BRANCH   1  17
ATOM     17  N   UNL     1       3.385   5.067  20.032  0.00  0.00    +0.000 NA
BRANCH  17  18
ATOM     18  S   UNL     1       4.625   4.115  19.222  0.00  0.00    +0.000 S 
ATOM     19  O   UNL     1       5.756   5.005  19.035  0.00  0.00    +0.000 OA
ATOM     20  O   UNL     1       4.760   2.894  19.992  0.00  0.00    +0.000 OA
BRANCH  18  21
ATOM     21  C   UNL     1       3.899   3.757  17.597  0.00  0.00    +0.000 C 
BRANCH  21  22
ATOM     22  C   UNL     1       4.827   4.304  16.539  0.00  0.00    +0.000 A 
ATOM     23  C   UNL     1       4.831   5.674  16.230  0.00  0.00    +0.000 A 
ATOM     24  C   UNL     1       5.658   6.173  15.220  0.00  0.00    +0.000 A 
ATOM     25  C   UNL     1       6.487   5.309  14.509  0.00  0.00    +0.000 A 
ATOM     26  C   UNL     1       6.497   3.950  14.812  0.00  0.00    +0.000 A 
ATOM     27  C   UNL     1       5.672   3.447  15.821  0.00  0.00    +0.000 A 
ENDBRANCH  21  22
ENDBRANCH  18  21
ENDBRANCH  17  18
BRANCH  17  28
ATOM     28  C   UNL     1       2.686   4.126  21.043  0.00  0.00    +0.000 C 
BRANCH  28  29
ATOM     29  C   UNL     1       1.358   3.441  20.692  0.00  0.00    +0.000 C 
ATOM     30  F   UNL     1       0.361   4.271  20.348  0.00  0.00    +0.000 F 
ATOM     31  F   UNL     1       1.535   2.567  19.671  0.00  0.00    +0.000 F 
ATOM     32  F   UNL     1       0.903   2.719  21.748  0.00  0.00    +0.000 F 
ENDBRANCH  28  29
ENDBRANCH  17  28
ENDBRANCH   1  17
TORSDOF 8
ENDMDL
MODEL 3
REMARK VINA RESULT:      -8.3      3.027      8.616
REMARK  Name = 
REMARK  8 active torsions:
REMARK  status: ('A' for Active; 'I' for Inactive)
REMARK    1  A    between atoms: N_6  and  C_7
REMARK    2  A    between atoms: C_10  and  C_11
REMARK    3  A    between atoms: C_11  and  N_12
REMARK    4  A    between atoms: N_12  and  C_13
REMARK    5  A    between atoms: N_12  and  S_18
REMARK    6  A    between atoms: C_13  and  C_14
REMARK    7  A    between atoms: S_18  and  C_21
REMARK    8  A    between atoms: C_21  and  C_22
REMARK                            x       y       z     vdW  Elec       q    Type
REMARK                         _______ _______ _______ _____ _____    ______ ____
ROOT
ATOM      1  C   UNL     1       0.748  10.673  19.497  0.00  0.00    +0.000 C 
ENDROOT
BRANCH   1   5
ATOM      2  C   UNL     1       2.377   6.645  19.330  0.00  0.00    +0.000 A 
ATOM      3  C   UNL     1       1.899   7.189  20.537  0.00  0.00    +0.000 A 
ATOM      4  C   UNL     1       1.390   8.492  20.627  0.00  0.00    +0.000 A 
ATOM      5  C   UNL     1       1.404   9.325  19.510  0.00  0.00    +0.000 A 
ATOM      6  C   UNL     1       1.953   8.825  18.332  0.00  0.00    +0.000 A 
ATOM      7  F   UNL     1       2.003   9.603  17.242  0.00  0.00    +0.000 F 
ATOM      8  C   UNL     1       2.428   7.518  18.238  0.00  0.00    +0.000 A 
BRANCH   2  14
ATOM      9  O   UNL     1       0.239   2.014  18.460  0.00  0.00    +0.000 OA
ATOM     10  S   UNL     1       1.541   2.591  18.750  0.00  0.00    +0.000 S 
ATOM     11  O   UNL     1       2.698   1.733  18.890  0.00  0.00    +0.000 OA
ATOM     12  C   UNL     1       1.378   3.555  20.227  0.00  0.00    +0.000 C 
ATOM     13  C   UNL     1       2.619   4.419  20.399  0.00  0.00    +0.000 C 
ATOM     14  N   UNL     1       2.786   5.322  19.248  0.00  0.00    +0.000 N 
ATOM     15  C   UNL     1       3.054   4.662  17.957  0.00  0.00    +0.000 C 
ATOM     16  C   UNL     1       1.882   3.814  17.516  0.00  0.00    +0.000 C 
ENDBRANCH   2  14
ENDBRANCH   1   5
BRANCH   1  17
ATOM     17  N   UNL     1      -0.481  10.858  20.340  0.00  0.00    +0.000 NA
BRANCH  17  18
ATOM     18  S   UNL     1      -1.361  12.285  19.802  0.00  0.00    +0.000 S 
ATOM     19  O   UNL     1      -1.379  13.195  20.933  0.00  0.00    +0.000 OA
ATOM     20  O   UNL     1      -0.760  12.677  18.543  0.00  0.00    +0.000 OA
BRANCH  18  21
ATOM     21  C   UNL     1      -3.048  11.672  19.531  0.00  0.00    +0.000 C 
BRANCH  21  22
ATOM     22  C   UNL     1      -3.119  11.097  18.136  0.00  0.00    +0.000 A 
ATOM     23  C   UNL     1      -2.270  10.047  17.751  0.00  0.00    +0.000 A 
ATOM     24  C   UNL     1      -2.305   9.546  16.448  0.00  0.00    +0.000 A 
ATOM     25  C   UNL     1      -3.187  10.087  15.517  0.00  0.00    +0.000 A 
ATOM     26  C   UNL     1      -4.040  11.124  15.889  0.00  0.00    +0.000 A 
ATOM     27  C   UNL     1      -4.008  11.628  17.191  0.00  0.00    +0.000 A 
ENDBRANCH  21  22
ENDBRANCH  18  21
ENDBRANCH  17  18
BRANCH  17  28
ATOM     28  C   UNL     1      -0.148  11.074  21.836  0.00  0.00    +0.000 C 
BRANCH  28  29
ATOM     29  C   UNL     1      -0.698  10.125  22.910  0.00  0.00    +0.000 C 
ATOM     30  F   UNL     1       0.163   9.813  23.890  0.00  0.00    +0.000 F 
ATOM     31  F   UNL     1      -1.803  10.658  23.487  0.00  0.00    +0.000 F 
ATOM     32  F   UNL     1      -1.079   8.948  22.351  0.00  0.00    +0.000 F 
ENDBRANCH  28  29
ENDBRANCH  17  28
ENDBRANCH   1  17
TORSDOF 8
ENDMDL
MODEL 4
REMARK VINA RESULT:      -8.3      3.028      8.542
REMARK  Name = 
REMARK  8 active torsions:
REMARK  status: ('A' for Active; 'I' for Inactive)
REMARK    1  A    between atoms: N_6  and  C_7
REMARK    2  A    between atoms: C_10  and  C_11
REMARK    3  A    between atoms: C_11  and  N_12
REMARK    4  A    between atoms: N_12  and  C_13
REMARK    5  A    between atoms: N_12  and  S_18
REMARK    6  A    between atoms: C_13  and  C_14
REMARK    7  A    between atoms: S_18  and  C_21
REMARK    8  A    between atoms: C_21  and  C_22
REMARK                            x       y       z     vdW  Elec       q    Type
REMARK                         _______ _______ _______ _____ _____    ______ ____
ROOT
ATOM      1  C   UNL     1       0.770  10.682  19.508  0.00  0.00    +0.000 C 
ENDROOT
BRANCH   1   5
ATOM      2  C   UNL     1       2.381   6.646  19.340  0.00  0.00    +0.000 A 
ATOM      3  C   UNL     1       1.914   7.195  20.548  0.00  0.00    +0.000 A 
ATOM      4  C   UNL     1       1.412   8.501  20.639  0.00  0.00    +0.000 A 
ATOM      5  C   UNL     1       1.420   9.330  19.519  0.00  0.00    +0.000 A 
ATOM      6  C   UNL     1       1.959   8.825  18.339  0.00  0.00    +0.000 A 
ATOM      7  F   UNL     1       2.003   9.600  17.246  0.00  0.00    +0.000 F 
ATOM      8  C   UNL     1       2.427   7.516  18.245  0.00  0.00    +0.000 A 
BRANCH   2  14
ATOM      9  O   UNL     1       0.224   2.026  18.460  0.00  0.00    +0.000 OA
ATOM     10  S   UNL     1       1.527   2.597  18.754  0.00  0.00    +0.000 S 
ATOM     11  O   UNL     1       2.679   1.733  18.898  0.00  0.00    +0.000 OA
ATOM     12  C   UNL     1       1.364   3.561  20.231  0.00  0.00    +0.000 C 
ATOM     13  C   UNL     1       2.609   4.419  20.408  0.00  0.00    +0.000 C 
ATOM     14  N   UNL     1       2.784   5.321  19.258  0.00  0.00    +0.000 N 
ATOM     15  C   UNL     1       3.052   4.661  17.968  0.00  0.00    +0.000 C 
ATOM     16  C   UNL     1       1.878   3.818  17.522  0.00  0.00    +0.000 C 
ENDBRANCH   2  14
ENDBRANCH   1   5
BRANCH   1  17
ATOM     17  N   UNL     1      -0.472  10.863  20.333  0.00  0.00    +0.000 NA
BRANCH  17  18
ATOM     18  S   UNL     1      -1.344  12.293  19.786  0.00  0.00    +0.000 S 
ATOM     19  O   UNL     1      -1.408  13.185  20.930  0.00  0.00    +0.000 OA
ATOM     20  O   UNL     1      -0.700  12.709  18.555  0.00  0.00    +0.000 OA
BRANCH  18  21
ATOM     21  C   UNL     1      -3.015  11.672  19.445  0.00  0.00    +0.000 C 
BRANCH  21  22
ATOM     22  C   UNL     1      -3.030  11.110  18.044  0.00  0.00    +0.000 A 
ATOM     23  C   UNL     1      -3.939  11.593  17.089  0.00  0.00    +0.000 A 
ATOM     24  C   UNL     1      -3.982  11.042  15.806  0.00  0.00    +0.000 A 
ATOM     25  C   UNL     1      -3.119  10.005  15.464  0.00  0.00    +0.000 A 
ATOM     26  C   UNL     1      -2.207   9.523  16.401  0.00  0.00    +0.000 A 
ATOM     27  C   UNL     1      -2.161  10.071  17.684  0.00  0.00    +0.000 A 
ENDBRANCH  21  22
ENDBRANCH  18  21
ENDBRANCH  17  18
BRANCH  17  28
ATOM     28  C   UNL     1      -0.162  11.074  21.835  0.00  0.00    +0.000 C 
BRANCH  28  29
ATOM     29  C   UNL     1      -0.729  10.122  22.896  0.00  0.00    +0.000 C 
ATOM     30  F   UNL     1      -1.788  10.589  23.575  0.00  0.00    +0.000 F 
ATOM     31  F   UNL     1      -1.091   8.946  22.328  0.00  0.00    +0.000 F 
ATOM     32  F   UNL     1       0.218   9.830  23.825  0.00  0.00    +0.000 F 
ENDBRANCH  28  29
ENDBRANCH  17  28
ENDBRANCH   1  17
TORSDOF 8
ENDMDL
MODEL 5
REMARK VINA RESULT:      -8.2      2.722      8.592
REMARK  Name = 
REMARK  8 active torsions:
REMARK  status: ('A' for Active; 'I' for Inactive)
REMARK    1  A    between atoms: N_6  and  C_7
REMARK    2  A    between atoms: C_10  and  C_11
REMARK    3  A    between atoms: C_11  and  N_12
REMARK    4  A    between atoms: N_12  and  C_13
REMARK    5  A    between atoms: N_12  and  S_18
REMARK    6  A    between atoms: C_13  and  C_14
REMARK    7  A    between atoms: S_18  and  C_21
REMARK    8  A    between atoms: C_21  and  C_22
REMARK                            x       y       z     vdW  Elec       q    Type
REMARK                         _______ _______ _______ _____ _____    ______ ____
ROOT
ATOM      1  C   UNL     1       1.285  10.401  19.832  0.00  0.00    +0.000 C 
ENDROOT
BRANCH   1   5
ATOM      2  C   UNL     1       2.128   6.257  18.821  0.00  0.00    +0.000 A 
ATOM      3  C   UNL     1       1.896   6.650  20.152  0.00  0.00    +0.000 A 
ATOM      4  C   UNL     1       1.645   7.981  20.513  0.00  0.00    +0.000 A 
ATOM      5  C   UNL     1       1.683   8.984  19.545  0.00  0.00    +0.000 A 
ATOM      6  C   UNL     1       1.996   8.617  18.239  0.00  0.00    +0.000 A 
ATOM      7  F   UNL     1       2.062   9.556  17.285  0.00  0.00    +0.000 F 
ATOM      8  C   UNL     1       2.212   7.288  17.880  0.00  0.00    +0.000 A 
BRANCH   2  14
ATOM      9  O   UNL     1       4.968   2.205  20.334  0.00  0.00    +0.000 OA
ATOM     10  S   UNL     1       3.949   2.532  19.351  0.00  0.00    +0.000 S 
ATOM     11  O   UNL     1       3.495   1.525  18.417  0.00  0.00    +0.000 OA
ATOM     12  C   UNL     1       4.531   3.928  18.428  0.00  0.00    +0.000 C 
ATOM     13  C   UNL     1       3.383   4.496  17.605  0.00  0.00    +0.000 C 
ATOM     14  N   UNL     1       2.278   4.920  18.480  0.00  0.00    +0.000 N 
ATOM     15  C   UNL     1       1.608   3.840  19.227  0.00  0.00    +0.000 C 
ATOM     16  C   UNL     1       2.549   3.185  20.215  0.00  0.00    +0.000 C 
ENDBRANCH   2  14
ENDBRANCH   1   5
BRANCH   1  17
ATOM     17  N   UNL     1      -0.071  10.635  20.433  0.00  0.00    +0.000 NA
BRANCH  17  18
ATOM     18  S   UNL     1      -0.794  12.075  19.723  0.00  0.00    +0.000 S 
ATOM     19  O   UNL     1      -0.678  13.119  20.726  0.00  0.00    +0.000 OA
ATOM     20  O   UNL     1      -0.183  12.229  18.418  0.00  0.00    +0.000 OA
BRANCH  18  21
ATOM     21  C   UNL     1      -2.547  11.635  19.551  0.00  0.00    +0.000 C 
BRANCH  21  22
ATOM     22  C   UNL     1      -2.754  11.068  18.167  0.00  0.00    +0.000 A 
ATOM     23  C   UNL     1      -1.933  10.035  17.687  0.00  0.00    +0.000 A 
ATOM     24  C   UNL     1      -2.096   9.541  16.391  0.00  0.00    +0.000 A 
ATOM     25  C   UNL     1      -3.078  10.075  15.561  0.00  0.00    +0.000 A 
ATOM     26  C   UNL     1      -3.903  11.095  16.028  0.00  0.00    +0.000 A 
ATOM     27  C   UNL     1      -3.744  11.591  17.324  0.00  0.00    +0.000 A 
ENDBRANCH  21  22
ENDBRANCH  18  21
ENDBRANCH  17  18
BRANCH  17  28
ATOM     28  C   UNL     1      -0.010  10.872  21.962  0.00  0.00    +0.000 C 
BRANCH  28  29
ATOM     29  C   UNL     1      -0.584   9.838  22.941  0.00  0.00    +0.000 C 
ATOM     30  F   UNL     1      -1.664  10.242  23.628  0.00  0.00    +0.000 F 
ATOM     31  F   UNL     1      -0.917   8.701  22.283  0.00  0.00    +0.000 F 
ATOM     32  F   UNL     1       0.348   9.494  23.867  0.00  0.00    +0.000 F 
ENDBRANCH  28  29
ENDBRANCH  17  28
ENDBRANCH   1  17
TORSDOF 8
ENDMDL
MODEL 6
REMARK VINA RESULT:      -8.2      0.800      1.332
REMARK  Name = 
REMARK  8 active torsions:
REMARK  status: ('A' for Active; 'I' for Inactive)
REMARK    1  A    between atoms: N_6  and  C_7
REMARK    2  A    between atoms: C_10  and  C_11
REMARK    3  A    between atoms: C_11  and  N_12
REMARK    4  A    between atoms: N_12  and  C_13
REMARK    5  A    between atoms: N_12  and  S_18
REMARK    6  A    between atoms: C_13  and  C_14
REMARK    7  A    between atoms: S_18  and  C_21
REMARK    8  A    between atoms: C_21  and  C_22
REMARK                            x       y       z     vdW  Elec       q    Type
REMARK                         _______ _______ _______ _____ _____    ______ ____
ROOT
ATOM      1  C   UNL     1       3.476   6.156  19.244  0.00  0.00    +0.000 C 
ENDROOT
BRANCH   1   5
ATOM      2  C   UNL     1       0.665   9.380  20.028  0.00  0.00    +0.000 A 
ATOM      3  C   UNL     1       0.870   8.347  20.962  0.00  0.00    +0.000 A 
ATOM      4  C   UNL     1       1.751   7.282  20.728  0.00  0.00    +0.000 A 
ATOM      5  C   UNL     1       2.416   7.184  19.507  0.00  0.00    +0.000 A 
ATOM      6  C   UNL     1       2.156   8.154  18.544  0.00  0.00    +0.000 A 
ATOM      7  F   UNL     1       2.761   8.081  17.350  0.00  0.00    +0.000 F 
ATOM      8  C   UNL     1       1.304   9.229  18.793  0.00  0.00    +0.000 A 
BRANCH   2  14
ATOM      9  O   UNL     1       0.255  14.342  18.620  0.00  0.00    +0.000 OA
ATOM     10  S   UNL     1      -0.385  13.393  19.515  0.00  0.00    +0.000 S 
ATOM     11  O   UNL     1      -1.480  13.819  20.358  0.00  0.00    +0.000 OA
ATOM     12  C   UNL     1       0.878  12.702  20.547  0.00  0.00    +0.000 C 
ATOM     13  C   UNL     1       0.317  11.493  21.281  0.00  0.00    +0.000 C 
ATOM     14  N   UNL     1      -0.139  10.471  20.325  0.00  0.00    +0.000 N 
ATOM     15  C   UNL     1      -1.277  10.861  19.472  0.00  0.00    +0.000 C 
ATOM     16  C   UNL     1      -0.911  12.005  18.551  0.00  0.00    +0.000 C 
ENDBRANCH   2  14
ENDBRANCH   1   5
BRANCH   1  17
ATOM     17  N   UNL     1       3.200   4.745  19.676  0.00  0.00    +0.000 NA
BRANCH  17  18
ATOM     18  S   UNL     1       4.476   3.683  19.087  0.00  0.00    +0.000 S 
ATOM     19  O   UNL     1       4.855   2.849  20.212  0.00  0.00    +0.000 OA
ATOM     20  O   UNL     1       3.973   3.093  17.861  0.00  0.00    +0.000 OA
BRANCH  18  21
ATOM     21  C   UNL     1       5.845   4.818  18.724  0.00  0.00    +0.000 C 
BRANCH  21  22
ATOM     22  C   UNL     1       5.969   4.939  17.223  0.00  0.00    +0.000 A 
ATOM     23  C   UNL     1       6.954   4.220  16.527  0.00  0.00    +0.000 A 
ATOM     24  C   UNL     1       7.097   4.366  15.145  0.00  0.00    +0.000 A 
ATOM     25  C   UNL     1       6.259   5.230  14.446  0.00  0.00    +0.000 A 
ATOM     26  C   UNL     1       5.273   5.943  15.125  0.00  0.00    +0.000 A 
ATOM     27  C   UNL     1       5.127   5.800  16.506  0.00  0.00    +0.000 A 
ENDBRANCH  21  22
ENDBRANCH  18  21
ENDBRANCH  17  18
BRANCH  17  28
ATOM     28  C   UNL     1       1.866   4.200  19.109  0.00  0.00    +0.000 C 
BRANCH  28  29
ATOM     29  C   UNL     1       1.122   3.056  19.812  0.00  0.00    +0.000 C 
ATOM     30  F   UNL     1       1.840   1.938  19.997  0.00  0.00    +0.000 F 
ATOM     31  F   UNL     1       0.672   3.462  21.024  0.00  0.00    +0.000 F 
ATOM     32  F   UNL     1       0.029   2.690  19.093  0.00  0.00    +0.000 F 
ENDBRANCH  28  29
ENDBRANCH  17  28
ENDBRANCH   1  17
TORSDOF 8
ENDMDL
MODEL 7
REMARK VINA RESULT:      -8.2      3.155      9.672
REMARK  Name = 
REMARK  8 active torsions:
REMARK  status: ('A' for Active; 'I' for Inactive)
REMARK    1  A    between atoms: N_6  and  C_7
REMARK    2  A    between atoms: C_10  and  C_11
REMARK    3  A    between atoms: C_11  and  N_12
REMARK    4  A    between atoms: N_12  and  C_13
REMARK    5  A    between atoms: N_12  and  S_18
REMARK    6  A    between atoms: C_13  and  C_14
REMARK    7  A    between atoms: S_18  and  C_21
REMARK    8  A    between atoms: C_21  and  C_22
REMARK                            x       y       z     vdW  Elec       q    Type
REMARK                         _______ _______ _______ _____ _____    ______ ____
ROOT
ATOM      1  C   UNL     1       0.899  11.143  19.650  0.00  0.00    +0.000 C 
ENDROOT
BRANCH   1   5
ATOM      2  C   UNL     1       2.109   6.972  19.441  0.00  0.00    +0.000 A 
ATOM      3  C   UNL     1       2.125   7.794  18.299  0.00  0.00    +0.000 A 
ATOM      4  C   UNL     1       1.718   9.136  18.330  0.00  0.00    +0.000 A 
ATOM      5  C   UNL     1       1.216   9.685  19.508  0.00  0.00    +0.000 A 
ATOM      6  C   UNL     1       1.116   8.855  20.622  0.00  0.00    +0.000 A 
ATOM      7  F   UNL     1       0.619   9.342  21.767  0.00  0.00    +0.000 F 
ATOM      8  C   UNL     1       1.552   7.532  20.595  0.00  0.00    +0.000 A 
BRANCH   2  14
ATOM      9  O   UNL     1       0.331   2.200  18.527  0.00  0.00    +0.000 OA
ATOM     10  S   UNL     1       1.573   2.865  18.880  0.00  0.00    +0.000 S 
ATOM     11  O   UNL     1       2.773   2.087  19.100  0.00  0.00    +0.000 OA
ATOM     12  C   UNL     1       1.263   3.835  20.330  0.00  0.00    +0.000 C 
ATOM     13  C   UNL     1       2.433   4.781  20.558  0.00  0.00    +0.000 C 
ATOM     14  N   UNL     1       2.607   5.678  19.404  0.00  0.00    +0.000 N 
ATOM     15  C   UNL     1       2.991   5.021  18.141  0.00  0.00    +0.000 C 
ATOM     16  C   UNL     1       1.904   4.092  17.648  0.00  0.00    +0.000 C 
ENDBRANCH   2  14
ENDBRANCH   1   5
BRANCH   1  17
ATOM     17  N   UNL     1      -0.408  11.629  19.093  0.00  0.00    +0.000 NA
BRANCH  17  18
ATOM     18  S   UNL     1      -1.113  12.820  20.182  0.00  0.00    +0.000 S 
ATOM     19  O   UNL     1      -0.337  14.034  20.005  0.00  0.00    +0.000 OA
ATOM     20  O   UNL     1      -2.539  12.806  19.924  0.00  0.00    +0.000 OA
BRANCH  18  21
ATOM     21  C   UNL     1      -0.765  12.150  21.833  0.00  0.00    +0.000 C 
BRANCH  21  22
ATOM     22  C   UNL     1      -1.687  12.829  22.818  0.00  0.00    +0.000 A 
ATOM     23  C   UNL     1      -1.337  14.063  23.391  0.00  0.00    +0.000 A 
ATOM     24  C   UNL     1      -2.169  14.669  24.335  0.00  0.00    +0.000 A 
ATOM     25  C   UNL     1      -3.356  14.050  24.717  0.00  0.00    +0.000 A 
ATOM     26  C   UNL     1      -3.717  12.830  24.150  0.00  0.00    +0.000 A 
ATOM     27  C   UNL     1      -2.888  12.221  23.206  0.00  0.00    +0.000 A 
ENDBRANCH  21  22
ENDBRANCH  18  21
ENDBRANCH  17  18
BRANCH  17  28
ATOM     28  C   UNL     1      -1.448  10.492  18.939  0.00  0.00    +0.000 C 
BRANCH  28  29
ATOM     29  C   UNL     1      -2.053  10.160  17.568  0.00  0.00    +0.000 C 
ATOM     30  F   UNL     1      -1.273   9.421  16.765  0.00  0.00    +0.000 F 
ATOM     31  F   UNL     1      -3.228   9.501  17.719  0.00  0.00    +0.000 F 
ATOM     32  F   UNL     1      -2.330  11.300  16.884  0.00  0.00    +0.000 F 
ENDBRANCH  28  29
ENDBRANCH  17  28
ENDBRANCH   1  17
TORSDOF 8
ENDMDL
MODEL 8
REMARK VINA RESULT:      -8.2      2.319      2.926
REMARK  Name = 
REMARK  8 active torsions:
REMARK  status: ('A' for Active; 'I' for Inactive)
REMARK    1  A    between atoms: N_6  and  C_7
REMARK    2  A    between atoms: C_10  and  C_11
REMARK    3  A    between atoms: C_11  and  N_12
REMARK    4  A    between atoms: N_12  and  C_13
REMARK    5  A    between atoms: N_12  and  S_18
REMARK    6  A    between atoms: C_13  and  C_14
REMARK    7  A    between atoms: S_18  and  C_21
REMARK    8  A    between atoms: C_21  and  C_22
REMARK                            x       y       z     vdW  Elec       q    Type
REMARK                         _______ _______ _______ _____ _____    ______ ____
ROOT
ATOM      1  C   UNL     1       3.506   6.047  17.939  0.00  0.00    +0.000 C 
ENDROOT
BRANCH   1   5
ATOM      2  C   UNL     1       1.100   9.466  19.136  0.00  0.00    +0.000 A 
ATOM      3  C   UNL     1       1.757   9.436  17.892  0.00  0.00    +0.000 A 
ATOM      4  C   UNL     1       2.559   8.359  17.488  0.00  0.00    +0.000 A 
ATOM      5  C   UNL     1       2.781   7.292  18.356  0.00  0.00    +0.000 A 
ATOM      6  C   UNL     1       2.205   7.351  19.622  0.00  0.00    +0.000 A 
ATOM      7  F   UNL     1       2.414   6.353  20.492  0.00  0.00    +0.000 F 
ATOM      8  C   UNL     1       1.383   8.409  20.007  0.00  0.00    +0.000 A 
BRANCH   2  14
ATOM      9  O   UNL     1       1.184  13.751  22.035  0.00  0.00    +0.000 OA
ATOM     10  S   UNL     1       0.268  13.015  21.180  0.00  0.00    +0.000 S 
ATOM     11  O   UNL     1      -1.087  13.487  20.997  0.00  0.00    +0.000 OA
ATOM     12  C   UNL     1       0.203  11.350  21.781  0.00  0.00    +0.000 C 
ATOM     13  C   UNL     1      -0.493  10.474  20.749  0.00  0.00    +0.000 C 
ATOM     14  N   UNL     1       0.237  10.499  19.471  0.00  0.00    +0.000 N 
ATOM     15  C   UNL     1       0.272  11.804  18.785  0.00  0.00    +0.000 C 
ATOM     16  C   UNL     1       1.030  12.833  19.593  0.00  0.00    +0.000 C 
ENDBRANCH   2  14
ENDBRANCH   1   5
BRANCH   1  17
ATOM     17  N   UNL     1       4.982   5.979  18.205  0.00  0.00    +0.000 NA
BRANCH  17  18
ATOM     18  S   UNL     1       5.868   6.279  16.713  0.00  0.00    +0.000 S 
ATOM     19  O   UNL     1       4.868   6.580  15.705  0.00  0.00    +0.000 OA
ATOM     20  O   UNL     1       6.900   7.241  17.045  0.00  0.00    +0.000 OA
BRANCH  18  21
ATOM     21  C   UNL     1       6.611   4.669  16.323  0.00  0.00    +0.000 C 
BRANCH  21  22
ATOM     22  C   UNL     1       6.725   4.556  14.822  0.00  0.00    +0.000 A 
ATOM     23  C   UNL     1       5.917   3.657  14.108  0.00  0.00    +0.000 A 
ATOM     24  C   UNL     1       6.055   3.521  12.725  0.00  0.00    +0.000 A 
ATOM     25  C   UNL     1       7.000   4.281  12.041  0.00  0.00    +0.000 A 
ATOM     26  C   UNL     1       7.803   5.182  12.737  0.00  0.00    +0.000 A 
ATOM     27  C   UNL     1       7.668   5.320  14.121  0.00  0.00    +0.000 A 
ENDBRANCH  21  22
ENDBRANCH  18  21
ENDBRANCH  17  18
BRANCH  17  28
ATOM     28  C   UNL     1       5.430   4.590  18.720  0.00  0.00    +0.000 C 
BRANCH  28  29
ATOM     29  C   UNL     1       4.401   3.482  18.990  0.00  0.00    +0.000 C 
ATOM     30  F   UNL     1       3.813   2.972  17.897  0.00  0.00    +0.000 F 
ATOM     31  F   UNL     1       4.979   2.457  19.662  0.00  0.00    +0.000 F 
ATOM     32  F   UNL     1       3.398   3.949  19.778  0.00  0.00    +0.000 F 
ENDBRANCH  28  29
ENDBRANCH  17  28
ENDBRANCH   1  17
TORSDOF 8
ENDMDL
MODEL 9
REMARK VINA RESULT:      -8.1      3.600      8.882
REMARK  Name = 
REMARK  8 active torsions:
REMARK  status: ('A' for Active; 'I' for Inactive)
REMARK    1  A    between atoms: N_6  and  C_7
REMARK    2  A    between atoms: C_10  and  C_11
REMARK    3  A    between atoms: C_11  and  N_12
REMARK    4  A    between atoms: N_12  and  C_13
REMARK    5  A    between atoms: N_12  and  S_18
REMARK    6  A    between atoms: C_13  and  C_14
REMARK    7  A    between atoms: S_18  and  C_21
REMARK    8  A    between atoms: C_21  and  C_22
REMARK                            x       y       z     vdW  Elec       q    Type
REMARK                         _______ _______ _______ _____ _____    ______ ____
ROOT
ATOM      1  C   UNL     1       0.725  11.302  20.338  0.00  0.00    +0.000 C 
ENDROOT
BRANCH   1   5
ATOM      2  C   UNL     1       1.985   7.180  19.755  0.00  0.00    +0.000 A 
ATOM      3  C   UNL     1       1.947   8.090  18.682  0.00  0.00    +0.000 A 
ATOM      4  C   UNL     1       1.523   9.418  18.834  0.00  0.00    +0.000 A 
ATOM      5  C   UNL     1       1.057   9.864  20.069  0.00  0.00    +0.000 A 
ATOM      6  C   UNL     1       1.010   8.948  21.117  0.00  0.00    +0.000 A 
ATOM      7  F   UNL     1       0.549   9.334  22.314  0.00  0.00    +0.000 F 
ATOM      8  C   UNL     1       1.463   7.638  20.970  0.00  0.00    +0.000 A 
BRANCH   2  14
ATOM      9  O   UNL     1       0.238   2.465  18.537  0.00  0.00    +0.000 OA
ATOM     10  S   UNL     1       1.484   3.121  18.894  0.00  0.00    +0.000 S 
ATOM     11  O   UNL     1       2.702   2.348  19.007  0.00  0.00    +0.000 OA
ATOM     12  C   UNL     1       1.217   3.969  20.426  0.00  0.00    +0.000 C 
ATOM     13  C   UNL     1       2.382   4.914  20.684  0.00  0.00    +0.000 C 
ATOM     14  N   UNL     1       2.499   5.901  19.598  0.00  0.00    +0.000 N 
ATOM     15  C   UNL     1       2.842   5.352  18.274  0.00  0.00    +0.000 C 
ATOM     16  C   UNL     1       1.750   4.445  17.751  0.00  0.00    +0.000 C 
ENDBRANCH   2  14
ENDBRANCH   1   5
BRANCH   1  17
ATOM     17  N   UNL     1      -0.697  11.634  20.684  0.00  0.00    +0.000 NA
BRANCH  17  18
ATOM     18  S   UNL     1      -1.397  12.639  19.418  0.00  0.00    +0.000 S 
ATOM     19  O   UNL     1      -1.582  13.953  20.005  0.00  0.00    +0.000 OA
ATOM     20  O   UNL     1      -0.554  12.459  18.252  0.00  0.00    +0.000 OA
BRANCH  18  21
ATOM     21  C   UNL     1      -3.030  11.899  19.135  0.00  0.00    +0.000 C 
BRANCH  21  22
ATOM     22  C   UNL     1      -2.994  11.177  17.809  0.00  0.00    +0.000 A 
ATOM     23  C   UNL     1      -3.775  11.623  16.731  0.00  0.00    +0.000 A 
ATOM     24  C   UNL     1      -3.776  10.929  15.519  0.00  0.00    +0.000 A 
ATOM     25  C   UNL     1      -2.998   9.784  15.372  0.00  0.00    +0.000 A 
ATOM     26  C   UNL     1      -2.214   9.335  16.432  0.00  0.00    +0.000 A 
ATOM     27  C   UNL     1      -2.210  10.027  17.646  0.00  0.00    +0.000 A 
ENDBRANCH  21  22
ENDBRANCH  18  21
ENDBRANCH  17  18
BRANCH  17  28
ATOM     28  C   UNL     1      -0.817  12.432  22.006  0.00  0.00    +0.000 C 
BRANCH  28  29
ATOM     29  C   UNL     1      -1.934  12.125  23.012  0.00  0.00    +0.000 C 
ATOM     30  F   UNL     1      -1.987  12.943  24.073  0.00  0.00    +0.000 F 
ATOM     31  F   UNL     1      -3.143  12.167  22.400  0.00  0.00    +0.000 F 
ATOM     32  F   UNL     1      -1.793  10.869  23.508  0.00  0.00    +0.000 F 
ENDBRANCH  28  29
ENDBRANCH  17  28
ENDBRANCH   1  17
TORSDOF 8
ENDMDL
