MODEL 1
REMARK VINA RESULT:      -8.1      0.000      0.000
REMARK  Name = 
REMARK  5 active torsions:
REMARK  status: ('A' for Active; 'I' for Inactive)
REMARK    1  A    between atoms: C_1  and  S_2
REMARK    2  A    between atoms: S_2  and  C_5
REMARK    3  A    between atoms: C_8  and  C_9
REMARK    4  A    between atoms: C_11  and  N_12
REMARK    5  A    between atoms: N_15  and  C_16
REMARK                            x       y       z     vdW  Elec       q    Type
REMARK                         _______ _______ _______ _____ _____    ______ ____
ROOT
ATOM      1  C   UNL     1       2.157   6.502  20.121  0.00  0.00    +0.000 A 
ATOM      2  C   UNL     1       1.744   5.514  20.992  0.00  0.00    +0.000 A 
ATOM      3  C   UNL     1       2.362   4.295  20.869  0.00  0.00    +0.000 A 
ATOM      4  N   UNL     1       3.322   4.057  19.973  0.00  0.00    +0.000 NA
ATOM      5  C   UNL     1       3.655   5.054  19.143  0.00  0.00    +0.000 A 
ATOM      6  N   UNL     1       4.671   4.763  18.247  0.00  0.00    +0.000 N 
ATOM      7  N   UNL     1       3.091   6.270  19.175  0.00  0.00    +0.000 NA
ATOM      8  H   UNL     1       5.166   3.951  18.592  0.00  0.00    +0.000 HD
ENDROOT
BRANCH   1  12
ATOM      9  C   UNL     1       0.649  10.521  20.361  0.00  0.00    +0.000 A 
ATOM     10  C   UNL     1       1.126  10.032  19.145  0.00  0.00    +0.000 A 
ATOM     11  C   UNL     1       1.612   8.725  19.075  0.00  0.00    +0.000 A 
ATOM     12  C   UNL     1       1.646   7.885  20.209  0.00  0.00    +0.000 A 
ATOM     13  C   UNL     1       1.166   8.413  21.423  0.00  0.00    +0.000 A 
ATOM     14  C   UNL     1       0.679   9.723  21.505  0.00  0.00    +0.000 A 
BRANCH   9  16
ATOM     15  C   UNL     1       0.688  12.947  18.972  0.00  0.00    +0.000 C 
ATOM     16  S   UNL     1       0.072  12.198  20.457  0.00  0.00    +0.000 S 
ATOM     17  O   UNL     1       0.737  12.823  21.583  0.00  0.00    +0.000 OA
ATOM     18  O   UNL     1      -1.380  12.165  20.377  0.00  0.00    +0.000 OA
ENDBRANCH   9  16
ENDBRANCH   1  12
BRANCH   6  19
ATOM     19  C   UNL     1       5.459   5.850  17.681  0.00  0.00    +0.000 C 
ATOM     20  C   UNL     1       6.971   5.609  17.781  0.00  0.00    +0.000 C 
ATOM     21  C   UNL     1       7.483   4.515  16.846  0.00  0.00    +0.000 C 
ATOM     22  C   UNL     1       7.060   4.735  15.399  0.00  0.00    +0.000 C 
ATOM     23  C   UNL     1       5.566   5.000  15.252  0.00  0.00    +0.000 C 
ATOM     24  C   UNL     1       5.054   6.075  16.213  0.00  0.00    +0.000 C 
ENDBRANCH   6  19
BRANCH   3  25
ATOM     25  N   UNL     1       2.050   3.263  21.758  0.00  0.00    +0.000 N 
ATOM     26  H   UNL     1       1.242   3.477  22.332  0.00  0.00    +0.000 HD
ATOM     27  H   UNL     1       1.916   2.415  21.212  0.00  0.00    +0.000 HD
ENDBRANCH   3  25
TORSDOF 4
ENDMDL
MODEL 2
REMARK VINA RESULT:      -8.0      0.738      1.302
REMARK  Name = 
REMARK  5 active torsions:
REMARK  status: ('A' for Active; 'I' for Inactive)
REMARK    1  A    between atoms: C_1  and  S_2
REMARK    2  A    between atoms: S_2  and  C_5
REMARK    3  A    between atoms: C_8  and  C_9
REMARK    4  A    between atoms: C_11  and  N_12
REMARK    5  A    between atoms: N_15  and  C_16
REMARK                            x       y       z     vdW  Elec       q    Type
REMARK                         _______ _______ _______ _____ _____    ______ ____
ROOT
ATOM      1  C   UNL     1       2.168   6.536  20.023  0.00  0.00    +0.000 A 
ATOM      2  C   UNL     1       1.736   5.537  20.872  0.00  0.00    +0.000 A 
ATOM      3  C   UNL     1       2.345   4.315  20.735  0.00  0.00    +0.000 A 
ATOM      4  N   UNL     1       3.313   4.083  19.845  0.00  0.00    +0.000 NA
ATOM      5  C   UNL     1       3.665   5.092  19.037  0.00  0.00    +0.000 A 
ATOM      6  N   UNL     1       4.687   4.808  18.148  0.00  0.00    +0.000 N 
ATOM      7  N   UNL     1       3.111   6.312  19.083  0.00  0.00    +0.000 NA
ATOM      8  H   UNL     1       5.172   3.985  18.484  0.00  0.00    +0.000 HD
ENDROOT
BRANCH   1  12
ATOM      9  C   UNL     1       0.735  10.577  20.345  0.00  0.00    +0.000 A 
ATOM     10  C   UNL     1       0.789   9.769  21.481  0.00  0.00    +0.000 A 
ATOM     11  C   UNL     1       1.258   8.458  21.368  0.00  0.00    +0.000 A 
ATOM     12  C   UNL     1       1.669   7.922  20.129  0.00  0.00    +0.000 A 
ATOM     13  C   UNL     1       1.593   8.762  19.001  0.00  0.00    +0.000 A 
ATOM     14  C   UNL     1       1.122  10.076  19.102  0.00  0.00    +0.000 A 
BRANCH   9  16
ATOM     15  C   UNL     1      -1.625  12.054  20.102  0.00  0.00    +0.000 C 
ATOM     16  S   UNL     1       0.098  12.230  20.483  0.00  0.00    +0.000 S 
ATOM     17  O   UNL     1       0.710  13.021  19.434  0.00  0.00    +0.000 OA
ATOM     18  O   UNL     1       0.214  12.627  21.877  0.00  0.00    +0.000 OA
ENDBRANCH   9  16
ENDBRANCH   1  12
BRANCH   6  19
ATOM     19  C   UNL     1       5.492   5.897  17.610  0.00  0.00    +0.000 C 
ATOM     20  C   UNL     1       7.001   5.634  17.710  0.00  0.00    +0.000 C 
ATOM     21  C   UNL     1       7.503   4.556  16.752  0.00  0.00    +0.000 C 
ATOM     22  C   UNL     1       7.088   4.814  15.309  0.00  0.00    +0.000 C 
ATOM     23  C   UNL     1       5.598   5.102  15.162  0.00  0.00    +0.000 C 
ATOM     24  C   UNL     1       5.096   6.161  16.145  0.00  0.00    +0.000 C 
ENDBRANCH   6  19
BRANCH   3  25
ATOM     25  N   UNL     1       2.013   3.270  21.601  0.00  0.00    +0.000 N 
ATOM     26  H   UNL     1       1.104   3.398  22.032  0.00  0.00    +0.000 HD
ATOM     27  H   UNL     1       2.066   2.402  21.074  0.00  0.00    +0.000 HD
ENDBRANCH   3  25
TORSDOF 4
ENDMDL
MODEL 3
REMARK VINA RESULT:      -7.9      0.714      1.121
REMARK  Name = 
REMARK  5 active torsions:
REMARK  status: ('A' for Active; 'I' for Inactive)
REMARK    1  A    between atoms: C_1  and  S_2
REMARK    2  A    between atoms: S_2  and  C_5
REMARK    3  A    between atoms: C_8  and  C_9
REMARK    4  A    between atoms: C_11  and  N_12
REMARK    5  A    between atoms: N_15  and  C_16
REMARK                            x       y       z     vdW  Elec       q    Type
REMARK                         _______ _______ _______ _____ _____    ______ ____
ROOT
ATOM      1  C   UNL     1       2.095   6.537  20.103  0.00  0.00    +0.000 A 
ATOM      2  C   UNL     1       1.638   5.497  20.889  0.00  0.00    +0.000 A 
ATOM      3  C   UNL     1       2.197   4.266  20.655  0.00  0.00    +0.000 A 
ATOM      4  N   UNL     1       3.141   4.061  19.733  0.00  0.00    +0.000 NA
ATOM      5  C   UNL     1       3.517   5.110  18.990  0.00  0.00    +0.000 A 
ATOM      6  N   UNL     1       4.513   4.851  18.063  0.00  0.00    +0.000 N 
ATOM      7  N   UNL     1       3.012   6.344  19.131  0.00  0.00    +0.000 NA
ATOM      8  H   UNL     1       4.971   3.989  18.332  0.00  0.00    +0.000 HD
ENDROOT
BRANCH   1  12
ATOM      9  C   UNL     1       0.780  10.585  20.705  0.00  0.00    +0.000 A 
ATOM     10  C   UNL     1       1.107  10.147  19.422  0.00  0.00    +0.000 A 
ATOM     11  C   UNL     1       1.531   8.830  19.234  0.00  0.00    +0.000 A 
ATOM     12  C   UNL     1       1.650   7.929  20.314  0.00  0.00    +0.000 A 
ATOM     13  C   UNL     1       1.321   8.407  21.598  0.00  0.00    +0.000 A 
ATOM     14  C   UNL     1       0.898   9.726  21.798  0.00  0.00    +0.000 A 
BRANCH   9  16
ATOM     15  C   UNL     1      -0.768  12.207  22.376  0.00  0.00    +0.000 C 
ATOM     16  S   UNL     1       0.282  12.273  20.947  0.00  0.00    +0.000 S 
ATOM     17  O   UNL     1      -0.533  12.654  19.810  0.00  0.00    +0.000 OA
ATOM     18  O   UNL     1       1.471  13.033  21.296  0.00  0.00    +0.000 OA
ENDBRANCH   9  16
ENDBRANCH   1  12
BRANCH   6  19
ATOM     19  C   UNL     1       5.349   5.944  17.586  0.00  0.00    +0.000 C 
ATOM     20  C   UNL     1       6.846   5.703  17.826  0.00  0.00    +0.000 C 
ATOM     21  C   UNL     1       7.446   4.620  16.931  0.00  0.00    +0.000 C 
ATOM     22  C   UNL     1       7.161   4.855  15.453  0.00  0.00    +0.000 C 
ATOM     23  C   UNL     1       5.687   5.121  15.169  0.00  0.00    +0.000 C 
ATOM     24  C   UNL     1       5.085   6.185  16.088  0.00  0.00    +0.000 C 
ENDBRANCH   6  19
BRANCH   3  25
ATOM     25  N   UNL     1       1.841   3.176  21.454  0.00  0.00    +0.000 N 
ATOM     26  H   UNL     1       1.627   3.448  22.407  0.00  0.00    +0.000 HD
ATOM     27  H   UNL     1       1.057   2.708  21.006  0.00  0.00    +0.000 HD
ENDBRANCH   3  25
TORSDOF 4
ENDMDL
MODEL 4
REMARK VINA RESULT:      -7.9      0.682      1.212
REMARK  Name = 
REMARK  5 active torsions:
REMARK  status: ('A' for Active; 'I' for Inactive)
REMARK    1  A    between atoms: C_1  and  S_2
REMARK    2  A    between atoms: S_2  and  C_5
REMARK    3  A    between atoms: C_8  and  C_9
REMARK    4  A    between atoms: C_11  and  N_12
REMARK    5  A    between atoms: N_15  and  C_16
REMARK                            x       y       z     vdW  Elec       q    Type
REMARK                         _______ _______ _______ _____ _____    ______ ____
ROOT
ATOM      1  C   UNL     1       2.222   6.693  19.748  0.00  0.00    +0.000 A 
ATOM      2  C   UNL     1       1.791   5.781  20.691  0.00  0.00    +0.000 A 
ATOM      3  C   UNL     1       2.434   4.569  20.704  0.00  0.00    +0.000 A 
ATOM      4  N   UNL     1       3.432   4.269  19.870  0.00  0.00    +0.000 NA
ATOM      5  C   UNL     1       3.781   5.192  18.964  0.00  0.00    +0.000 A 
ATOM      6  N   UNL     1       4.834   4.841  18.137  0.00  0.00    +0.000 N 
ATOM      7  N   UNL     1       3.196   6.394  18.862  0.00  0.00    +0.000 NA
ATOM      8  H   UNL     1       5.330   4.074  18.573  0.00  0.00    +0.000 HD
ENDROOT
BRANCH   1  12
ATOM      9  C   UNL     1       0.677  10.702  19.589  0.00  0.00    +0.000 A 
ATOM     10  C   UNL     1       0.579   9.969  20.771  0.00  0.00    +0.000 A 
ATOM     11  C   UNL     1       1.084   8.668  20.815  0.00  0.00    +0.000 A 
ATOM     12  C   UNL     1       1.685   8.068  19.688  0.00  0.00    +0.000 A 
ATOM     13  C   UNL     1       1.760   8.833  18.507  0.00  0.00    +0.000 A 
ATOM     14  C   UNL     1       1.253  10.137  18.451  0.00  0.00    +0.000 A 
BRANCH   9  16
ATOM     15  C   UNL     1       1.394  13.372  19.168  0.00  0.00    +0.000 C 
ATOM     16  S   UNL     1      -0.006  12.341  19.522  0.00  0.00    +0.000 S 
ATOM     17  O   UNL     1      -0.478  12.670  20.853  0.00  0.00    +0.000 OA
ATOM     18  O   UNL     1      -0.905  12.393  18.381  0.00  0.00    +0.000 OA
ENDBRANCH   9  16
ENDBRANCH   1  12
BRANCH   6  19
ATOM     19  C   UNL     1       5.626   5.887  17.502  0.00  0.00    +0.000 C 
ATOM     20  C   UNL     1       7.131   5.589  17.513  0.00  0.00    +0.000 C 
ATOM     21  C   UNL     1       7.543   4.460  16.570  0.00  0.00    +0.000 C 
ATOM     22  C   UNL     1       7.038   4.671  15.147  0.00  0.00    +0.000 C 
ATOM     23  C   UNL     1       5.549   4.991  15.088  0.00  0.00    +0.000 C 
ATOM     24  C   UNL     1       5.138   6.101  16.057  0.00  0.00    +0.000 C 
ENDBRANCH   6  19
BRANCH   3  25
ATOM     25  N   UNL     1       2.105   3.617  21.673  0.00  0.00    +0.000 N 
ATOM     26  H   UNL     1       2.888   3.016  21.907  0.00  0.00    +0.000 HD
ATOM     27  H   UNL     1       1.749   4.114  22.486  0.00  0.00    +0.000 HD
ENDBRANCH   3  25
TORSDOF 4
ENDMDL
MODEL 5
REMARK VINA RESULT:      -7.8      1.164      1.461
REMARK  Name = 
REMARK  5 active torsions:
REMARK  status: ('A' for Active; 'I' for Inactive)
REMARK    1  A    between atoms: C_1  and  S_2
REMARK    2  A    between atoms: S_2  and  C_5
REMARK    3  A    between atoms: C_8  and  C_9
REMARK    4  A    between atoms: C_11  and  N_12
REMARK    5  A    between atoms: N_15  and  C_16
REMARK                            x       y       z     vdW  Elec       q    Type
REMARK                         _______ _______ _______ _____ _____    ______ ____
ROOT
ATOM      1  C   UNL     1       2.591   5.869  19.825  0.00  0.00    +0.000 A 
ATOM      2  C   UNL     1       2.014   4.934  20.662  0.00  0.00    +0.000 A 
ATOM      3  C   UNL     1       2.656   3.725  20.760  0.00  0.00    +0.000 A 
ATOM      4  N   UNL     1       3.784   3.448  20.101  0.00  0.00    +0.000 NA
ATOM      5  C   UNL     1       4.273   4.393  19.287  0.00  0.00    +0.000 A 
ATOM      6  N   UNL     1       5.454   4.064  18.643  0.00  0.00    +0.000 N 
ATOM      7  N   UNL     1       3.703   5.593  19.111  0.00  0.00    +0.000 NA
ATOM      8  H   UNL     1       5.876   3.291  19.142  0.00  0.00    +0.000 HD
ENDROOT
BRANCH   1  12
ATOM      9  C   UNL     1       1.027   9.856  19.451  0.00  0.00    +0.000 A 
ATOM     10  C   UNL     1       1.662   9.257  18.364  0.00  0.00    +0.000 A 
ATOM     11  C   UNL     1       2.166   7.961  18.493  0.00  0.00    +0.000 A 
ATOM     12  C   UNL     1       2.060   7.241  19.702  0.00  0.00    +0.000 A 
ATOM     13  C   UNL     1       1.420   7.879  20.783  0.00  0.00    +0.000 A 
ATOM     14  C   UNL     1       0.915   9.179  20.667  0.00  0.00    +0.000 A 
BRANCH   9  16
ATOM     15  C   UNL     1       0.072  12.000  20.970  0.00  0.00    +0.000 C 
ATOM     16  S   UNL     1       0.425  11.521  19.299  0.00  0.00    +0.000 S 
ATOM     17  O   UNL     1      -0.829  11.466  18.574  0.00  0.00    +0.000 OA
ATOM     18  O   UNL     1       1.526  12.339  18.818  0.00  0.00    +0.000 OA
ENDBRANCH   9  16
ENDBRANCH   1  12
BRANCH   6  19
ATOM     19  C   UNL     1       6.333   5.128  18.173  0.00  0.00    +0.000 C 
ATOM     20  C   UNL     1       7.516   4.606  17.346  0.00  0.00    +0.000 C 
ATOM     21  C   UNL     1       7.118   4.084  15.966  0.00  0.00    +0.000 C 
ATOM     22  C   UNL     1       6.298   5.091  15.171  0.00  0.00    +0.000 C 
ATOM     23  C   UNL     1       5.122   5.654  15.962  0.00  0.00    +0.000 C 
ATOM     24  C   UNL     1       5.521   6.148  17.354  0.00  0.00    +0.000 C 
ENDBRANCH   6  19
BRANCH   3  25
ATOM     25  N   UNL     1       2.176   2.751  21.639  0.00  0.00    +0.000 N 
ATOM     26  H   UNL     1       1.767   1.960  21.155  0.00  0.00    +0.000 HD
ATOM     27  H   UNL     1       2.946   2.473  22.242  0.00  0.00    +0.000 HD
ENDBRANCH   3  25
TORSDOF 4
ENDMDL
