MODEL 1
REMARK VINA RESULT:      -9.1      0.000      0.000
REMARK  Name = 
REMARK  3 active torsions:
REMARK  status: ('A' for Active; 'I' for Inactive)
REMARK    1  A    between atoms: C_1  and  C_2
REMARK    2  A    between atoms: C_7  and  C_8
REMARK    3  A    between atoms: C_13  and  C_15
REMARK                            x       y       z     vdW  Elec       q    Type
REMARK                         _______ _______ _______ _____ _____    ______ ____
ROOT
ATOM      1  C   UNL     1       6.112   6.160  17.760  0.00  0.00    +0.000 A 
ATOM      2  C   UNL     1       5.985   7.208  16.862  0.00  0.00    +0.000 A 
ATOM      3  N   UNL     1       6.886   8.234  16.996  0.00  0.00    +0.000 NA
ATOM      4  C   UNL     1       7.688   7.973  17.992  0.00  0.00    +0.000 A 
ATOM      5  N   UNL     1       8.668   8.769  18.513  0.00  0.00    +0.000 N 
ATOM      6  C   UNL     1       8.743  10.104  18.175  0.00  0.00    +0.000 C 
ATOM      7  O   UNL     1       7.938  10.721  17.486  0.00  0.00    +0.000 OA
ATOM      8  S   UNL     1       7.480   6.467  18.762  0.00  0.00    +0.000 S 
ATOM      9  H   UNL     1       9.278   8.359  19.206  0.00  0.00    +0.000 HD
ENDROOT
BRANCH   1  16
ATOM     10  C   UNL     1       5.670   3.761  15.865  0.00  0.00    +0.000 C 
ATOM     11  C   UNL     1       5.009   3.904  17.211  0.00  0.00    +0.000 A 
ATOM     12  C   UNL     1       4.180   2.853  17.664  0.00  0.00    +0.000 A 
ATOM     13  C   UNL     1       3.484   3.022  18.843  0.00  0.00    +0.000 A 
ATOM     14  C   UNL     1       3.544   4.196  19.548  0.00  0.00    +0.000 A 
ATOM     15  C   UNL     1       4.365   5.225  19.165  0.00  0.00    +0.000 A 
ATOM     16  C   UNL     1       5.159   5.074  18.010  0.00  0.00    +0.000 A 
ATOM     17  O   UNL     1       2.763   4.189  20.661  0.00  0.00    +0.000 OA
ATOM     18  C   UNL     1       2.479   2.788  20.709  0.00  0.00    +0.000 C 
ATOM     19  F   UNL     1       3.288   2.236  21.650  0.00  0.00    +0.000 F 
ATOM     20  F   UNL     1       1.199   2.607  21.108  0.00  0.00    +0.000 F 
ATOM     21  O   UNL     1       2.692   2.103  19.462  0.00  0.00    +0.000 OA
ENDBRANCH   1  16
BRANCH   6  22
ATOM     22  C   UNL     1       9.882  10.877  18.735  0.00  0.00    +0.000 A 
ATOM     23  C   UNL     1      10.855  11.347  17.848  0.00  0.00    +0.000 A 
ATOM     24  C   UNL     1      11.933  12.049  18.355  0.00  0.00    +0.000 A 
ATOM     25  N   UNL     1      12.102  12.310  19.669  0.00  0.00    +0.000 NA
ATOM     26  C   UNL     1      11.146  11.847  20.509  0.00  0.00    +0.000 A 
ATOM     27  C   UNL     1      10.031  11.141  20.093  0.00  0.00    +0.000 A 
ATOM     28  F   UNL     1       9.130  10.731  21.000  0.00  0.00    +0.000 F 
ENDBRANCH   6  22
TORSDOF 2
ENDMDL
MODEL 2
REMARK VINA RESULT:      -8.7      0.916      1.283
REMARK  Name = 
REMARK  3 active torsions:
REMARK  status: ('A' for Active; 'I' for Inactive)
REMARK    1  A    between atoms: C_1  and  C_2
REMARK    2  A    between atoms: C_7  and  C_8
REMARK    3  A    between atoms: C_13  and  C_15
REMARK                            x       y       z     vdW  Elec       q    Type
REMARK                         _______ _______ _______ _____ _____    ______ ____
ROOT
ATOM      1  C   UNL     1       6.122   6.053  17.885  0.00  0.00    +0.000 A 
ATOM      2  C   UNL     1       6.115   7.027  16.899  0.00  0.00    +0.000 A 
ATOM      3  N   UNL     1       7.011   8.054  17.054  0.00  0.00    +0.000 NA
ATOM      4  C   UNL     1       7.691   7.867  18.153  0.00  0.00    +0.000 A 
ATOM      5  N   UNL     1       8.619   8.694  18.719  0.00  0.00    +0.000 N 
ATOM      6  C   UNL     1       8.754   9.997  18.288  0.00  0.00    +0.000 C 
ATOM      7  O   UNL     1       8.043  10.563  17.466  0.00  0.00    +0.000 OA
ATOM      8  S   UNL     1       7.372   6.428  19.009  0.00  0.00    +0.000 S 
ATOM      9  H   UNL     1       9.139   8.335  19.507  0.00  0.00    +0.000 HD
ENDROOT
BRANCH   1  16
ATOM     10  C   UNL     1       5.628   3.691  15.956  0.00  0.00    +0.000 C 
ATOM     11  C   UNL     1       4.951   3.843  17.293  0.00  0.00    +0.000 A 
ATOM     12  C   UNL     1       4.079   2.815  17.721  0.00  0.00    +0.000 A 
ATOM     13  C   UNL     1       3.371   2.996  18.892  0.00  0.00    +0.000 A 
ATOM     14  C   UNL     1       3.460   4.160  19.610  0.00  0.00    +0.000 A 
ATOM     15  C   UNL     1       4.321   5.164  19.251  0.00  0.00    +0.000 A 
ATOM     16  C   UNL     1       5.127   4.998  18.107  0.00  0.00    +0.000 A 
ATOM     17  O   UNL     1       2.661   4.168  20.711  0.00  0.00    +0.000 OA
ATOM     18  C   UNL     1       2.329   2.777  20.739  0.00  0.00    +0.000 C 
ATOM     19  F   UNL     1       3.104   2.188  21.686  0.00  0.00    +0.000 F 
ATOM     20  F   UNL     1       1.037   2.635  21.117  0.00  0.00    +0.000 F 
ATOM     21  O   UNL     1       2.538   2.098  19.488  0.00  0.00    +0.000 OA
ENDBRANCH   1  16
BRANCH   6  22
ATOM     22  C   UNL     1       9.835  10.803  18.914  0.00  0.00    +0.000 A 
ATOM     23  C   UNL     1       9.728  11.100  20.275  0.00  0.00    +0.000 A 
ATOM     24  C   UNL     1      10.713  11.868  20.869  0.00  0.00    +0.000 A 
ATOM     25  N   UNL     1      11.784  12.351  20.202  0.00  0.00    +0.000 NA
ATOM     26  C   UNL     1      11.869  12.047  18.884  0.00  0.00    +0.000 A 
ATOM     27  C   UNL     1      10.934  11.283  18.209  0.00  0.00    +0.000 A 
ATOM     28  F   UNL     1      11.108  11.027  16.902  0.00  0.00    +0.000 F 
ENDBRANCH   6  22
TORSDOF 2
ENDMDL
MODEL 3
REMARK VINA RESULT:      -8.5      6.551      7.743
REMARK  Name = 
REMARK  3 active torsions:
REMARK  status: ('A' for Active; 'I' for Inactive)
REMARK    1  A    between atoms: C_1  and  C_2
REMARK    2  A    between atoms: C_7  and  C_8
REMARK    3  A    between atoms: C_13  and  C_15
REMARK                            x       y       z     vdW  Elec       q    Type
REMARK                         _______ _______ _______ _____ _____    ______ ____
ROOT
ATOM      1  C   UNL     1       2.355   7.229  18.665  0.00  0.00    +0.000 A 
ATOM      2  C   UNL     1       2.030   7.376  20.004  0.00  0.00    +0.000 A 
ATOM      3  N   UNL     1       1.458   8.570  20.362  0.00  0.00    +0.000 NA
ATOM      4  C   UNL     1       1.355   9.330  19.306  0.00  0.00    +0.000 A 
ATOM      5  N   UNL     1       0.922  10.624  19.240  0.00  0.00    +0.000 N 
ATOM      6  C   UNL     1       0.778  11.376  20.387  0.00  0.00    +0.000 C 
ATOM      7  O   UNL     1       1.089  11.030  21.521  0.00  0.00    +0.000 OA
ATOM      8  S   UNL     1       1.841   8.643  17.824  0.00  0.00    +0.000 S 
ATOM      9  H   UNL     1       0.790  11.021  18.320  0.00  0.00    +0.000 HD
ENDROOT
BRANCH   1  16
ATOM     10  C   UNL     1       1.666   4.218  18.692  0.00  0.00    +0.000 C 
ATOM     11  C   UNL     1       2.842   4.806  17.958  0.00  0.00    +0.000 A 
ATOM     12  C   UNL     1       3.649   3.940  17.186  0.00  0.00    +0.000 A 
ATOM     13  C   UNL     1       4.790   4.449  16.599  0.00  0.00    +0.000 A 
ATOM     14  C   UNL     1       5.175   5.750  16.792  0.00  0.00    +0.000 A 
ATOM     15  C   UNL     1       4.402   6.633  17.500  0.00  0.00    +0.000 A 
ATOM     16  C   UNL     1       3.185   6.186  18.054  0.00  0.00    +0.000 A 
ATOM     17  O   UNL     1       6.343   6.057  16.167  0.00  0.00    +0.000 OA
ATOM     18  C   UNL     1       6.448   4.898  15.336  0.00  0.00    +0.000 C 
ATOM     19  F   UNL     1       6.047   5.250  14.087  0.00  0.00    +0.000 F 
ATOM     20  F   UNL     1       7.744   4.520  15.261  0.00  0.00    +0.000 F 
ATOM     21  O   UNL     1       5.650   3.786  15.777  0.00  0.00    +0.000 OA
ENDBRANCH   1  16
BRANCH   6  22
ATOM     22  C   UNL     1       0.236  12.751  20.225  0.00  0.00    +0.000 A 
ATOM     23  C   UNL     1       1.043  13.704  19.599  0.00  0.00    +0.000 A 
ATOM     24  C   UNL     1       0.563  14.994  19.460  0.00  0.00    +0.000 A 
ATOM     25  N   UNL     1      -0.652  15.389  19.898  0.00  0.00    +0.000 NA
ATOM     26  C   UNL     1      -1.418  14.447  20.499  0.00  0.00    +0.000 A 
ATOM     27  C   UNL     1      -1.023  13.133  20.678  0.00  0.00    +0.000 A 
ATOM     28  F   UNL     1      -1.856  12.267  21.277  0.00  0.00    +0.000 F 
ENDBRANCH   6  22
TORSDOF 2
ENDMDL
MODEL 4
REMARK VINA RESULT:      -8.5      6.461      7.665
REMARK  Name = 
REMARK  3 active torsions:
REMARK  status: ('A' for Active; 'I' for Inactive)
REMARK    1  A    between atoms: C_1  and  C_2
REMARK    2  A    between atoms: C_7  and  C_8
REMARK    3  A    between atoms: C_13  and  C_15
REMARK                            x       y       z     vdW  Elec       q    Type
REMARK                         _______ _______ _______ _____ _____    ______ ____
ROOT
ATOM      1  C   UNL     1       2.340   7.277  18.658  0.00  0.00    +0.000 A 
ATOM      2  C   UNL     1       2.017   7.436  19.996  0.00  0.00    +0.000 A 
ATOM      3  N   UNL     1       1.453   8.637  20.345  0.00  0.00    +0.000 NA
ATOM      4  C   UNL     1       1.353   9.389  19.282  0.00  0.00    +0.000 A 
ATOM      5  N   UNL     1       0.928  10.684  19.206  0.00  0.00    +0.000 N 
ATOM      6  C   UNL     1       0.790  11.447  20.347  0.00  0.00    +0.000 C 
ATOM      7  O   UNL     1       1.100  11.109  21.483  0.00  0.00    +0.000 OA
ATOM      8  S   UNL     1       1.833   8.686  17.806  0.00  0.00    +0.000 S 
ATOM      9  H   UNL     1       0.796  11.074  18.283  0.00  0.00    +0.000 HD
ENDROOT
BRANCH   1  16
ATOM     10  C   UNL     1       1.645   4.267  18.733  0.00  0.00    +0.000 C 
ATOM     11  C   UNL     1       2.816   4.843  17.981  0.00  0.00    +0.000 A 
ATOM     12  C   UNL     1       3.615   3.965  17.214  0.00  0.00    +0.000 A 
ATOM     13  C   UNL     1       4.752   4.463  16.611  0.00  0.00    +0.000 A 
ATOM     14  C   UNL     1       5.141   5.766  16.782  0.00  0.00    +0.000 A 
ATOM     15  C   UNL     1       4.375   6.659  17.485  0.00  0.00    +0.000 A 
ATOM     16  C   UNL     1       3.163   6.223  18.055  0.00  0.00    +0.000 A 
ATOM     17  O   UNL     1       6.304   6.062  16.144  0.00  0.00    +0.000 OA
ATOM     18  C   UNL     1       6.400   4.891  15.328  0.00  0.00    +0.000 C 
ATOM     19  F   UNL     1       5.989   5.226  14.078  0.00  0.00    +0.000 F 
ATOM     20  F   UNL     1       7.695   4.509  15.247  0.00  0.00    +0.000 F 
ATOM     21  O   UNL     1       5.604   3.786  15.791  0.00  0.00    +0.000 OA
ENDBRANCH   1  16
BRANCH   6  22
ATOM     22  C   UNL     1       0.256  12.824  20.175  0.00  0.00    +0.000 A 
ATOM     23  C   UNL     1      -1.047  13.081  20.611  0.00  0.00    +0.000 A 
ATOM     24  C   UNL     1      -1.568  14.350  20.439  0.00  0.00    +0.000 A 
ATOM     25  N   UNL     1      -0.884  15.365  19.869  0.00  0.00    +0.000 NA
ATOM     26  C   UNL     1       0.378  15.094  19.457  0.00  0.00    +0.000 A 
ATOM     27  C   UNL     1       0.982  13.857  19.592  0.00  0.00    +0.000 A 
ATOM     28  F   UNL     1       2.243  13.685  19.161  0.00  0.00    +0.000 F 
ENDBRANCH   6  22
TORSDOF 2
ENDMDL
MODEL 5
REMARK VINA RESULT:      -8.4      6.386      7.940
REMARK  Name = 
REMARK  3 active torsions:
REMARK  status: ('A' for Active; 'I' for Inactive)
REMARK    1  A    between atoms: C_1  and  C_2
REMARK    2  A    between atoms: C_7  and  C_8
REMARK    3  A    between atoms: C_13  and  C_15
REMARK                            x       y       z     vdW  Elec       q    Type
REMARK                         _______ _______ _______ _____ _____    ______ ____
ROOT
ATOM      1  C   UNL     1       2.280   6.672  19.531  0.00  0.00    +0.000 A 
ATOM      2  C   UNL     1       1.749   6.501  20.800  0.00  0.00    +0.000 A 
ATOM      3  N   UNL     1       1.098   7.583  21.336  0.00  0.00    +0.000 NA
ATOM      4  C   UNL     1       1.138   8.572  20.484  0.00  0.00    +0.000 A 
ATOM      5  N   UNL     1       0.685   9.849  20.658  0.00  0.00    +0.000 N 
ATOM      6  C   UNL     1       0.347  10.310  21.913  0.00  0.00    +0.000 C 
ATOM      7  O   UNL     1       0.490   9.703  22.969  0.00  0.00    +0.000 OA
ATOM      8  S   UNL     1       1.863   8.249  18.977  0.00  0.00    +0.000 S 
ATOM      9  H   UNL     1       0.685  10.454  19.849  0.00  0.00    +0.000 HD
ENDROOT
BRANCH   1  16
ATOM     10  C   UNL     1       1.441   4.395  17.619  0.00  0.00    +0.000 C 
ATOM     11  C   UNL     1       2.869   4.809  17.861  0.00  0.00    +0.000 A 
ATOM     12  C   UNL     1       3.887   4.157  17.129  0.00  0.00    +0.000 A 
ATOM     13  C   UNL     1       5.203   4.451  17.422  0.00  0.00    +0.000 A 
ATOM     14  C   UNL     1       5.536   5.315  18.433  0.00  0.00    +0.000 A 
ATOM     15  C   UNL     1       4.580   5.997  19.141  0.00  0.00    +0.000 A 
ATOM     16  C   UNL     1       3.221   5.794  18.828  0.00  0.00    +0.000 A 
ATOM     17  O   UNL     1       6.879   5.449  18.598  0.00  0.00    +0.000 OA
ATOM     18  C   UNL     1       7.303   4.819  17.386  0.00  0.00    +0.000 C 
ATOM     19  F   UNL     1       7.626   5.800  16.504  0.00  0.00    +0.000 F 
ATOM     20  F   UNL     1       8.422   4.097  17.627  0.00  0.00    +0.000 F 
ATOM     21  O   UNL     1       6.308   3.971  16.786  0.00  0.00    +0.000 OA
ENDBRANCH   1  16
BRANCH   6  22
ATOM     22  C   UNL     1      -0.200  11.690  21.998  0.00  0.00    +0.000 A 
ATOM     23  C   UNL     1       0.448  12.697  21.279  0.00  0.00    +0.000 A 
ATOM     24  C   UNL     1      -0.035  13.991  21.363  0.00  0.00    +0.000 A 
ATOM     25  N   UNL     1      -1.107  14.339  22.107  0.00  0.00    +0.000 NA
ATOM     26  C   UNL     1      -1.721  13.345  22.793  0.00  0.00    +0.000 A 
ATOM     27  C   UNL     1      -1.312  12.024  22.765  0.00  0.00    +0.000 A 
ATOM     28  F   UNL     1      -1.991  11.105  23.471  0.00  0.00    +0.000 F 
ENDBRANCH   6  22
TORSDOF 2
ENDMDL
MODEL 6
REMARK VINA RESULT:      -8.3      6.355      7.759
REMARK  Name = 
REMARK  3 active torsions:
REMARK  status: ('A' for Active; 'I' for Inactive)
REMARK    1  A    between atoms: C_1  and  C_2
REMARK    2  A    between atoms: C_7  and  C_8
REMARK    3  A    between atoms: C_13  and  C_15
REMARK                            x       y       z     vdW  Elec       q    Type
REMARK                         _______ _______ _______ _____ _____    ______ ____
ROOT
ATOM      1  C   UNL     1       2.287   6.642  19.080  0.00  0.00    +0.000 A 
ATOM      2  C   UNL     1       1.921   6.539  20.413  0.00  0.00    +0.000 A 
ATOM      3  N   UNL     1       1.366   7.659  20.978  0.00  0.00    +0.000 NA
ATOM      4  C   UNL     1       1.315   8.610  20.084  0.00  0.00    +0.000 A 
ATOM      5  N   UNL     1       0.914   9.904  20.256  0.00  0.00    +0.000 N 
ATOM      6  C   UNL     1       0.750  10.426  21.522  0.00  0.00    +0.000 C 
ATOM      7  O   UNL     1       1.016   9.862  22.577  0.00  0.00    +0.000 OA
ATOM      8  S   UNL     1       1.834   8.205  18.512  0.00  0.00    +0.000 S 
ATOM      9  H   UNL     1       0.821  10.473  19.427  0.00  0.00    +0.000 HD
ENDROOT
BRANCH   1  16
ATOM     10  C   UNL     1       1.484   3.731  18.428  0.00  0.00    +0.000 C 
ATOM     11  C   UNL     1       2.724   4.402  17.897  0.00  0.00    +0.000 A 
ATOM     12  C   UNL     1       3.543   3.680  16.999  0.00  0.00    +0.000 A 
ATOM     13  C   UNL     1       4.735   4.244  16.593  0.00  0.00    +0.000 A 
ATOM     14  C   UNL     1       5.157   5.454  17.080  0.00  0.00    +0.000 A 
ATOM     15  C   UNL     1       4.376   6.204  17.920  0.00  0.00    +0.000 A 
ATOM     16  C   UNL     1       3.112   5.711  18.303  0.00  0.00    +0.000 A 
ATOM     17  O   UNL     1       6.371   5.828  16.595  0.00  0.00    +0.000 OA
ATOM     18  C   UNL     1       6.482   4.867  15.542  0.00  0.00    +0.000 C 
ATOM     19  F   UNL     1       6.170   5.494  14.378  0.00  0.00    +0.000 F 
ATOM     20  F   UNL     1       7.765   4.449  15.453  0.00  0.00    +0.000 F 
ATOM     21  O   UNL     1       5.617   3.727  15.694  0.00  0.00    +0.000 OA
ENDBRANCH   1  16
BRANCH   6  22
ATOM     22  C   UNL     1       0.245  11.822  21.613  0.00  0.00    +0.000 A 
ATOM     23  C   UNL     1       0.873  12.798  20.835  0.00  0.00    +0.000 A 
ATOM     24  C   UNL     1       0.431  14.106  20.923  0.00  0.00    +0.000 A 
ATOM     25  N   UNL     1      -0.583  14.497  21.725  0.00  0.00    +0.000 NA
ATOM     26  C   UNL     1      -1.179  13.533  22.467  0.00  0.00    +0.000 A 
ATOM     27  C   UNL     1      -0.807  12.200  22.440  0.00  0.00    +0.000 A 
ATOM     28  F   UNL     1      -1.464  11.314  23.206  0.00  0.00    +0.000 F 
ENDBRANCH   6  22
TORSDOF 2
ENDMDL
MODEL 7
REMARK VINA RESULT:      -8.3      6.929      8.818
REMARK  Name = 
REMARK  3 active torsions:
REMARK  status: ('A' for Active; 'I' for Inactive)
REMARK    1  A    between atoms: C_1  and  C_2
REMARK    2  A    between atoms: C_7  and  C_8
REMARK    3  A    between atoms: C_13  and  C_15
REMARK                            x       y       z     vdW  Elec       q    Type
REMARK                         _______ _______ _______ _____ _____    ______ ____
ROOT
ATOM      1  C   UNL     1       0.723   9.446  19.144  0.00  0.00    +0.000 A 
ATOM      2  C   UNL     1       1.087   8.509  20.098  0.00  0.00    +0.000 A 
ATOM      3  N   UNL     1       2.162   7.715  19.789  0.00  0.00    +0.000 NA
ATOM      4  C   UNL     1       2.610   8.041  18.606  0.00  0.00    +0.000 A 
ATOM      5  N   UNL     1       3.608   7.443  17.892  0.00  0.00    +0.000 N 
ATOM      6  C   UNL     1       4.102   6.212  18.269  0.00  0.00    +0.000 C 
ATOM      7  O   UNL     1       3.670   5.507  19.174  0.00  0.00    +0.000 OA
ATOM      8  S   UNL     1       1.845   9.356  17.840  0.00  0.00    +0.000 S 
ATOM      9  H   UNL     1       3.909   7.902  17.044  0.00  0.00    +0.000 HD
ENDROOT
BRANCH   1  16
ATOM     10  C   UNL     1       0.296  12.095  20.675  0.00  0.00    +0.000 C 
ATOM     11  C   UNL     1      -0.696  11.515  19.702  0.00  0.00    +0.000 A 
ATOM     12  C   UNL     1      -1.870  12.253  19.425  0.00  0.00    +0.000 A 
ATOM     13  C   UNL     1      -2.835  11.681  18.620  0.00  0.00    +0.000 A 
ATOM     14  C   UNL     1      -2.698  10.407  18.134  0.00  0.00    +0.000 A 
ATOM     15  C   UNL     1      -1.560   9.674  18.346  0.00  0.00    +0.000 A 
ATOM     16  C   UNL     1      -0.509  10.241  19.094  0.00  0.00    +0.000 A 
ATOM     17  O   UNL     1      -3.765  10.003  17.394  0.00  0.00    +0.000 OA
ATOM     18  C   UNL     1      -4.405  11.273  17.237  0.00  0.00    +0.000 C 
ATOM     19  F   UNL     1      -4.110  11.731  15.993  0.00  0.00    +0.000 F 
ATOM     20  F   UNL     1      -5.746  11.108  17.308  0.00  0.00    +0.000 F 
ATOM     21  O   UNL     1      -3.993  12.260  18.199  0.00  0.00    +0.000 OA
ENDBRANCH   1  16
BRANCH   6  22
ATOM     22  C   UNL     1       5.234   5.669  17.473  0.00  0.00    +0.000 A 
ATOM     23  C   UNL     1       5.094   5.618  16.083  0.00  0.00    +0.000 A 
ATOM     24  C   UNL     1       6.129   5.096  15.329  0.00  0.00    +0.000 A 
ATOM     25  N   UNL     1       7.278   4.629  15.863  0.00  0.00    +0.000 NA
ATOM     26  C   UNL     1       7.393   4.692  17.211  0.00  0.00    +0.000 A 
ATOM     27  C   UNL     1       6.413   5.201  18.044  0.00  0.00    +0.000 A 
ATOM     28  F   UNL     1       6.622   5.230  19.370  0.00  0.00    +0.000 F 
ENDBRANCH   6  22
TORSDOF 2
ENDMDL
MODEL 8
REMARK VINA RESULT:      -8.2      6.544     10.405
REMARK  Name = 
REMARK  3 active torsions:
REMARK  status: ('A' for Active; 'I' for Inactive)
REMARK    1  A    between atoms: C_1  and  C_2
REMARK    2  A    between atoms: C_7  and  C_8
REMARK    3  A    between atoms: C_13  and  C_15
REMARK                            x       y       z     vdW  Elec       q    Type
REMARK                         _______ _______ _______ _____ _____    ______ ____
ROOT
ATOM      1  C   UNL     1       1.319   9.901  19.338  0.00  0.00    +0.000 A 
ATOM      2  C   UNL     1       1.215   9.261  20.563  0.00  0.00    +0.000 A 
ATOM      3  N   UNL     1       1.594   7.943  20.593  0.00  0.00    +0.000 NA
ATOM      4  C   UNL     1       1.977   7.580  19.398  0.00  0.00    +0.000 A 
ATOM      5  N   UNL     1       2.348   6.335  18.977  0.00  0.00    +0.000 N 
ATOM      6  C   UNL     1       2.101   5.226  19.759  0.00  0.00    +0.000 C 
ATOM      7  O   UNL     1       1.477   5.210  20.814  0.00  0.00    +0.000 OA
ATOM      8  S   UNL     1       1.996   8.795  18.204  0.00  0.00    +0.000 S 
ATOM      9  H   UNL     1       2.734   6.257  18.047  0.00  0.00    +0.000 HD
ENDROOT
BRANCH   1  16
ATOM     10  C   UNL     1      -1.596  10.352  18.418  0.00  0.00    +0.000 C 
ATOM     11  C   UNL     1      -0.599  11.461  18.634  0.00  0.00    +0.000 A 
ATOM     12  C   UNL     1      -1.036  12.794  18.462  0.00  0.00    +0.000 A 
ATOM     13  C   UNL     1      -0.106  13.810  18.551  0.00  0.00    +0.000 A 
ATOM     14  C   UNL     1       1.225  13.547  18.748  0.00  0.00    +0.000 A 
ATOM     15  C   UNL     1       1.684  12.273  18.958  0.00  0.00    +0.000 A 
ATOM     16  C   UNL     1       0.764  11.205  18.959  0.00  0.00    +0.000 A 
ATOM     17  O   UNL     1       1.992  14.670  18.768  0.00  0.00    +0.000 OA
ATOM     18  C   UNL     1       0.944  15.638  18.871  0.00  0.00    +0.000 C 
ATOM     19  F   UNL     1       0.876  16.034  20.169  0.00  0.00    +0.000 F 
ATOM     20  F   UNL     1       1.263  16.720  18.126  0.00  0.00    +0.000 F 
ATOM     21  O   UNL     1      -0.349  15.148  18.474  0.00  0.00    +0.000 OA
ENDBRANCH   1  16
BRANCH   6  22
ATOM     22  C   UNL     1       2.601   3.921  19.252  0.00  0.00    +0.000 A 
ATOM     23  C   UNL     1       3.617   3.284  19.970  0.00  0.00    +0.000 A 
ATOM     24  C   UNL     1       4.109   2.080  19.501  0.00  0.00    +0.000 A 
ATOM     25  N   UNL     1       3.660   1.478  18.378  0.00  0.00    +0.000 NA
ATOM     26  C   UNL     1       2.674   2.112  17.700  0.00  0.00    +0.000 A 
ATOM     27  C   UNL     1       2.118   3.315  18.096  0.00  0.00    +0.000 A 
ATOM     28  F   UNL     1       1.135   3.864  17.363  0.00  0.00    +0.000 F 
ENDBRANCH   6  22
TORSDOF 2
ENDMDL
MODEL 9
REMARK VINA RESULT:      -8.2      6.992      9.043
REMARK  Name = 
REMARK  3 active torsions:
REMARK  status: ('A' for Active; 'I' for Inactive)
REMARK    1  A    between atoms: C_1  and  C_2
REMARK    2  A    between atoms: C_7  and  C_8
REMARK    3  A    between atoms: C_13  and  C_15
REMARK                            x       y       z     vdW  Elec       q    Type
REMARK                         _______ _______ _______ _____ _____    ______ ____
ROOT
ATOM      1  C   UNL     1       0.621   9.480  19.164  0.00  0.00    +0.000 A 
ATOM      2  C   UNL     1       1.054   8.599  20.142  0.00  0.00    +0.000 A 
ATOM      3  N   UNL     1       2.113   7.795  19.808  0.00  0.00    +0.000 NA
ATOM      4  C   UNL     1       2.480   8.057  18.582  0.00  0.00    +0.000 A 
ATOM      5  N   UNL     1       3.435   7.425  17.837  0.00  0.00    +0.000 N 
ATOM      6  C   UNL     1       3.962   6.219  18.248  0.00  0.00    +0.000 C 
ATOM      7  O   UNL     1       3.597   5.563  19.217  0.00  0.00    +0.000 OA
ATOM      8  S   UNL     1       1.656   9.324  17.795  0.00  0.00    +0.000 S 
ATOM      9  H   UNL     1       3.676   7.838  16.947  0.00  0.00    +0.000 HD
ENDROOT
BRANCH   1  16
ATOM     10  C   UNL     1       0.159  12.035  20.840  0.00  0.00    +0.000 C 
ATOM     11  C   UNL     1      -0.822  11.501  19.828  0.00  0.00    +0.000 A 
ATOM     12  C   UNL     1      -2.001  12.242  19.586  0.00  0.00    +0.000 A 
ATOM     13  C   UNL     1      -2.955  11.708  18.745  0.00  0.00    +0.000 A 
ATOM     14  C   UNL     1      -2.804  10.465  18.187  0.00  0.00    +0.000 A 
ATOM     15  C   UNL     1      -1.660   9.731  18.365  0.00  0.00    +0.000 A 
ATOM     16  C   UNL     1      -0.619  10.265  19.151  0.00  0.00    +0.000 A 
ATOM     17  O   UNL     1      -3.863  10.094  17.420  0.00  0.00    +0.000 OA
ATOM     18  C   UNL     1      -4.514  11.364  17.330  0.00  0.00    +0.000 C 
ATOM     19  F   UNL     1      -4.215  11.894  16.116  0.00  0.00    +0.000 F 
ATOM     20  F   UNL     1      -5.853  11.183  17.383  0.00  0.00    +0.000 F 
ATOM     21  O   UNL     1      -4.117  12.299  18.349  0.00  0.00    +0.000 OA
ENDBRANCH   1  16
BRANCH   6  22
ATOM     22  C   UNL     1       5.045   5.638  17.411  0.00  0.00    +0.000 A 
ATOM     23  C   UNL     1       6.286   6.280  17.407  0.00  0.00    +0.000 A 
ATOM     24  C   UNL     1       7.299   5.767  16.618  0.00  0.00    +0.000 A 
ATOM     25  N   UNL     1       7.156   4.670  15.842  0.00  0.00    +0.000 NA
ATOM     26  C   UNL     1       5.945   4.062  15.865  0.00  0.00    +0.000 A 
ATOM     27  C   UNL     1       4.877   4.501  16.627  0.00  0.00    +0.000 A 
ATOM     28  F   UNL     1       3.717   3.827  16.591  0.00  0.00    +0.000 F 
ENDBRANCH   6  22
TORSDOF 2
ENDMDL
