MODEL 1
REMARK VINA RESULT:      -5.7      0.000      0.000
REMARK  Name = 
REMARK  4 active torsions:
REMARK  status: ('A' for Active; 'I' for Inactive)
REMARK    1  A    between atoms: C_1  and  N_2
REMARK    2  A    between atoms: C_7  and  C_8
REMARK    3  A    between atoms: N_15  and  S_16
REMARK    4  A    between atoms: S_16  and  C_17
REMARK                            x       y       z     vdW  Elec       q    Type
REMARK                         _______ _______ _______ _____ _____    ______ ____
ROOT
ATOM      1  C   UNL     1       2.193  13.324  18.243  0.00  0.00    +0.000 C 
ATOM      2  N   UNL     1       1.388  13.693  19.381  0.00  0.00    +0.000 N 
ATOM      3  C   UNL     1       0.939  14.966  19.630  0.00  0.00    +0.000 A 
ATOM      4  N   UNL     1       0.196  15.023  20.713  0.00  0.00    +0.000 NA
ATOM      5  C   UNL     1       0.170  13.746  21.181  0.00  0.00    +0.000 A 
ATOM      6  C   UNL     1       0.850  12.878  20.345  0.00  0.00    +0.000 A 
ATOM      7  C   UNL     1       0.944  11.388  20.520  0.00  0.00    +0.000 C 
ATOM      8  N   UNL     1       0.374  11.065  21.873  0.00  0.00    +0.000 NA
ATOM      9  C   UNL     1      -0.834  11.815  22.306  0.00  0.00    +0.000 C 
ATOM     10  C   UNL     1      -0.539  13.314  22.404  0.00  0.00    +0.000 C 
ENDROOT
BRANCH   7  11
ATOM     11  C   UNL     1       0.385  10.536  19.346  0.00  0.00    +0.000 C 
ATOM     12  O   UNL     1       1.054   9.579  18.928  0.00  0.00    +0.000 OA
ATOM     13  N   UNL     1      -0.838  10.780  18.745  0.00  0.00    +0.000 N 
ATOM     14  C   UNL     1      -1.242  10.027  17.566  0.00  0.00    +0.000 C 
ATOM     15  C   UNL     1      -2.308  10.905  16.935  0.00  0.00    +0.000 C 
ATOM     16  C   UNL     1      -3.032  11.485  18.142  0.00  0.00    +0.000 C 
ATOM     17  C   UNL     1      -1.962  11.564  19.229  0.00  0.00    +0.000 C 
ENDBRANCH   7  11
BRANCH   8  18
ATOM     18  S   UNL     1       0.609   9.538  22.527  0.00  0.00    +0.000 S 
ATOM     19  C   UNL     1      -0.712   8.590  21.794  0.00  0.00    +0.000 C 
ATOM     20  O   UNL     1       1.884   9.035  22.079  0.00  0.00    +0.000 OA
ATOM     21  O   UNL     1       0.312   9.632  23.944  0.00  0.00    +0.000 OA
ENDBRANCH   8  18
TORSDOF 2
ENDMDL
MODEL 2
REMARK VINA RESULT:      -5.7      6.894      9.079
REMARK  Name = 
REMARK  4 active torsions:
REMARK  status: ('A' for Active; 'I' for Inactive)
REMARK    1  A    between atoms: C_1  and  N_2
REMARK    2  A    between atoms: C_7  and  C_8
REMARK    3  A    between atoms: N_15  and  S_16
REMARK    4  A    between atoms: S_16  and  C_17
REMARK                            x       y       z     vdW  Elec       q    Type
REMARK                         _______ _______ _______ _____ _____    ______ ____
ROOT
ATOM      1  C   UNL     1       3.419   1.788  17.841  0.00  0.00    +0.000 C 
ATOM      2  N   UNL     1       2.641   2.419  18.878  0.00  0.00    +0.000 N 
ATOM      3  C   UNL     1       1.978   1.739  19.870  0.00  0.00    +0.000 A 
ATOM      4  N   UNL     1       1.376   2.553  20.708  0.00  0.00    +0.000 NA
ATOM      5  C   UNL     1       1.656   3.799  20.238  0.00  0.00    +0.000 A 
ATOM      6  C   UNL     1       2.492   3.758  19.136  0.00  0.00    +0.000 A 
ATOM      7  C   UNL     1       3.062   4.954  18.426  0.00  0.00    +0.000 C 
ATOM      8  N   UNL     1       2.374   6.168  18.982  0.00  0.00    +0.000 NA
ATOM      9  C   UNL     1       2.108   6.198  20.445  0.00  0.00    +0.000 C 
ATOM     10  C   UNL     1       1.175   5.055  20.852  0.00  0.00    +0.000 C 
ENDROOT
BRANCH   7  11
ATOM     11  C   UNL     1       4.614   5.034  18.383  0.00  0.00    +0.000 C 
ATOM     12  O   UNL     1       5.233   5.235  19.438  0.00  0.00    +0.000 OA
ATOM     13  N   UNL     1       5.351   4.873  17.223  0.00  0.00    +0.000 N 
ATOM     14  C   UNL     1       6.791   5.088  17.230  0.00  0.00    +0.000 C 
ATOM     15  C   UNL     1       7.118   5.338  15.768  0.00  0.00    +0.000 C 
ATOM     16  C   UNL     1       6.175   4.391  15.041  0.00  0.00    +0.000 C 
ATOM     17  C   UNL     1       4.955   4.289  15.952  0.00  0.00    +0.000 C 
ENDBRANCH   7  11
BRANCH   8  18
ATOM     18  S   UNL     1       2.534   7.643  18.198  0.00  0.00    +0.000 S 
ATOM     19  C   UNL     1       1.939   8.801  19.416  0.00  0.00    +0.000 C 
ATOM     20  O   UNL     1       3.933   7.878  17.938  0.00  0.00    +0.000 OA
ATOM     21  O   UNL     1       1.572   7.655  17.112  0.00  0.00    +0.000 OA
ENDBRANCH   8  18
TORSDOF 2
ENDMDL
MODEL 3
REMARK VINA RESULT:      -5.7      6.389      7.988
REMARK  Name = 
REMARK  4 active torsions:
REMARK  status: ('A' for Active; 'I' for Inactive)
REMARK    1  A    between atoms: C_1  and  N_2
REMARK    2  A    between atoms: C_7  and  C_8
REMARK    3  A    between atoms: N_15  and  S_16
REMARK    4  A    between atoms: S_16  and  C_17
REMARK                            x       y       z     vdW  Elec       q    Type
REMARK                         _______ _______ _______ _____ _____    ______ ____
ROOT
ATOM      1  C   UNL     1       5.464   7.522  17.498  0.00  0.00    +0.000 C 
ATOM      2  N   UNL     1       5.723   6.189  17.982  0.00  0.00    +0.000 N 
ATOM      3  C   UNL     1       6.978   5.662  18.162  0.00  0.00    +0.000 A 
ATOM      4  N   UNL     1       6.935   4.441  18.648  0.00  0.00    +0.000 NA
ATOM      5  C   UNL     1       5.608   4.170  18.780  0.00  0.00    +0.000 A 
ATOM      6  C   UNL     1       4.824   5.257  18.434  0.00  0.00    +0.000 A 
ATOM      7  C   UNL     1       3.326   5.325  18.546  0.00  0.00    +0.000 C 
ATOM      8  N   UNL     1       2.843   3.940  18.869  0.00  0.00    +0.000 NA
ATOM      9  C   UNL     1       3.649   3.137  19.827  0.00  0.00    +0.000 C 
ATOM     10  C   UNL     1       5.058   2.893  19.283  0.00  0.00    +0.000 C 
ENDROOT
BRANCH   7  11
ATOM     11  C   UNL     1       2.771   6.451  19.462  0.00  0.00    +0.000 C 
ATOM     12  O   UNL     1       2.790   6.287  20.691  0.00  0.00    +0.000 OA
ATOM     13  N   UNL     1       2.269   7.646  18.978  0.00  0.00    +0.000 N 
ATOM     14  C   UNL     1       1.646   8.603  19.882  0.00  0.00    +0.000 C 
ATOM     15  C   UNL     1       0.796   9.459  18.959  0.00  0.00    +0.000 C 
ATOM     16  C   UNL     1       1.652   9.563  17.706  0.00  0.00    +0.000 C 
ATOM     17  C   UNL     1       2.442   8.257  17.671  0.00  0.00    +0.000 C 
ENDBRANCH   7  11
BRANCH   8  18
ATOM     18  S   UNL     1       1.207   3.585  18.751  0.00  0.00    +0.000 S 
ATOM     19  C   UNL     1       1.199   1.804  18.651  0.00  0.00    +0.000 C 
ATOM     20  O   UNL     1       0.553   4.013  19.963  0.00  0.00    +0.000 OA
ATOM     21  O   UNL     1       0.758   4.073  17.461  0.00  0.00    +0.000 OA
ENDBRANCH   8  18
TORSDOF 2
ENDMDL
MODEL 4
REMARK VINA RESULT:      -5.7      2.554      4.505
REMARK  Name = 
REMARK  4 active torsions:
REMARK  status: ('A' for Active; 'I' for Inactive)
REMARK    1  A    between atoms: C_1  and  N_2
REMARK    2  A    between atoms: C_7  and  C_8
REMARK    3  A    between atoms: N_15  and  S_16
REMARK    4  A    between atoms: S_16  and  C_17
REMARK                            x       y       z     vdW  Elec       q    Type
REMARK                         _______ _______ _______ _____ _____    ______ ____
ROOT
ATOM      1  C   UNL     1       1.529  10.386  18.253  0.00  0.00    +0.000 C 
ATOM      2  N   UNL     1       1.149   9.679  19.451  0.00  0.00    +0.000 N 
ATOM      3  C   UNL     1       1.579   8.416  19.773  0.00  0.00    +0.000 A 
ATOM      4  N   UNL     1       1.113   8.018  20.936  0.00  0.00    +0.000 NA
ATOM      5  C   UNL     1       0.352   9.058  21.376  0.00  0.00    +0.000 A 
ATOM      6  C   UNL     1       0.400  10.134  20.507  0.00  0.00    +0.000 A 
ATOM      7  C   UNL     1      -0.255  11.468  20.731  0.00  0.00    +0.000 C 
ATOM      8  N   UNL     1      -1.144  11.328  21.934  0.00  0.00    +0.000 NA
ATOM      9  C   UNL     1      -0.635  10.521  23.075  0.00  0.00    +0.000 C 
ATOM     10  C   UNL     1      -0.396   9.069  22.651  0.00  0.00    +0.000 C 
ENDROOT
BRANCH   7  11
ATOM     11  C   UNL     1       0.704  12.692  20.755  0.00  0.00    +0.000 C 
ATOM     12  O   UNL     1       1.741  12.627  21.433  0.00  0.00    +0.000 OA
ATOM     13  N   UNL     1       0.471  13.853  20.041  0.00  0.00    +0.000 N 
ATOM     14  C   UNL     1       1.341  15.008  20.210  0.00  0.00    +0.000 C 
ATOM     15  C   UNL     1       0.492  16.166  19.715  0.00  0.00    +0.000 C 
ATOM     16  C   UNL     1      -0.271  15.555  18.548  0.00  0.00    +0.000 C 
ATOM     17  C   UNL     1      -0.426  14.083  18.920  0.00  0.00    +0.000 C 
ENDBRANCH   7  11
BRANCH   8  18
ATOM     18  S   UNL     1      -2.266  12.528  22.279  0.00  0.00    +0.000 S 
ATOM     19  C   UNL     1      -1.305  13.705  23.213  0.00  0.00    +0.000 C 
ATOM     20  O   UNL     1      -2.703  13.121  21.040  0.00  0.00    +0.000 OA
ATOM     21  O   UNL     1      -3.229  11.956  23.202  0.00  0.00    +0.000 OA
ENDBRANCH   8  18
TORSDOF 2
ENDMDL
MODEL 5
REMARK VINA RESULT:      -5.6      2.258      4.803
REMARK  Name = 
REMARK  4 active torsions:
REMARK  status: ('A' for Active; 'I' for Inactive)
REMARK    1  A    between atoms: C_1  and  N_2
REMARK    2  A    between atoms: C_7  and  C_8
REMARK    3  A    between atoms: N_15  and  S_16
REMARK    4  A    between atoms: S_16  and  C_17
REMARK                            x       y       z     vdW  Elec       q    Type
REMARK                         _______ _______ _______ _____ _____    ______ ____
ROOT
ATOM      1  C   UNL     1      -4.621  11.968  18.642  0.00  0.00    +0.000 C 
ATOM      2  N   UNL     1      -3.536  11.257  18.012  0.00  0.00    +0.000 N 
ATOM      3  C   UNL     1      -3.541  10.838  16.705  0.00  0.00    +0.000 A 
ATOM      4  N   UNL     1      -2.416  10.247  16.372  0.00  0.00    +0.000 NA
ATOM      5  C   UNL     1      -1.661  10.281  17.504  0.00  0.00    +0.000 A 
ATOM      6  C   UNL     1      -2.300  10.957  18.528  0.00  0.00    +0.000 A 
ATOM      7  C   UNL     1      -1.714  11.250  19.881  0.00  0.00    +0.000 C 
ATOM      8  N   UNL     1      -0.429  10.480  19.983  0.00  0.00    +0.000 NA
ATOM      9  C   UNL     1       0.431  10.414  18.771  0.00  0.00    +0.000 C 
ATOM     10  C   UNL     1      -0.300   9.716  17.622  0.00  0.00    +0.000 C 
ENDROOT
BRANCH   7  11
ATOM     11  C   UNL     1      -1.617  12.755  20.259  0.00  0.00    +0.000 C 
ATOM     12  O   UNL     1      -1.044  13.532  19.481  0.00  0.00    +0.000 OA
ATOM     13  N   UNL     1      -2.155  13.283  21.419  0.00  0.00    +0.000 N 
ATOM     14  C   UNL     1      -1.915  14.675  21.774  0.00  0.00    +0.000 C 
ATOM     15  C   UNL     1      -2.184  14.710  23.268  0.00  0.00    +0.000 C 
ATOM     16  C   UNL     1      -3.349  13.744  23.428  0.00  0.00    +0.000 C 
ATOM     17  C   UNL     1      -3.156  12.722  22.311  0.00  0.00    +0.000 C 
ENDBRANCH   7  11
BRANCH   8  18
ATOM     18  S   UNL     1       0.327  10.323  21.473  0.00  0.00    +0.000 S 
ATOM     19  C   UNL     1       1.140   8.742  21.335  0.00  0.00    +0.000 C 
ATOM     20  O   UNL     1       1.307  11.372  21.607  0.00  0.00    +0.000 OA
ATOM     21  O   UNL     1      -0.720  10.163  22.466  0.00  0.00    +0.000 OA
ENDBRANCH   8  18
TORSDOF 2
ENDMDL
MODEL 6
REMARK VINA RESULT:      -5.6      8.789     11.067
REMARK  Name = 
REMARK  4 active torsions:
REMARK  status: ('A' for Active; 'I' for Inactive)
REMARK    1  A    between atoms: C_1  and  N_2
REMARK    2  A    between atoms: C_7  and  C_8
REMARK    3  A    between atoms: N_15  and  S_16
REMARK    4  A    between atoms: S_16  and  C_17
REMARK                            x       y       z     vdW  Elec       q    Type
REMARK                         _______ _______ _______ _____ _____    ______ ____
ROOT
ATOM      1  C   UNL     1       6.150  14.401  17.850  0.00  0.00    +0.000 C 
ATOM      2  N   UNL     1       6.436  15.711  18.381  0.00  0.00    +0.000 N 
ATOM      3  C   UNL     1       5.479  16.626  18.740  0.00  0.00    +0.000 A 
ATOM      4  N   UNL     1       6.007  17.727  19.228  0.00  0.00    +0.000 NA
ATOM      5  C   UNL     1       7.350  17.516  19.176  0.00  0.00    +0.000 A 
ATOM      6  C   UNL     1       7.655  16.248  18.712  0.00  0.00    +0.000 A 
ATOM      7  C   UNL     1       9.036  15.663  18.610  0.00  0.00    +0.000 C 
ATOM      8  N   UNL     1      10.009  16.775  18.877  0.00  0.00    +0.000 NA
ATOM      9  C   UNL     1       9.664  17.748  19.948  0.00  0.00    +0.000 C 
ATOM     10  C   UNL     1       8.371  18.494  19.610  0.00  0.00    +0.000 C 
ENDROOT
BRANCH   7  11
ATOM     11  C   UNL     1       9.275  14.362  19.428  0.00  0.00    +0.000 C 
ATOM     12  O   UNL     1       8.758  14.256  20.550  0.00  0.00    +0.000 OA
ATOM     13  N   UNL     1      10.027  13.299  18.961  0.00  0.00    +0.000 N 
ATOM     14  C   UNL     1      10.319  12.167  19.828  0.00  0.00    +0.000 C 
ATOM     15  C   UNL     1      11.534  11.528  19.178  0.00  0.00    +0.000 C 
ATOM     16  C   UNL     1      11.256  11.701  17.692  0.00  0.00    +0.000 C 
ATOM     17  C   UNL     1      10.438  12.987  17.602  0.00  0.00    +0.000 C 
ENDBRANCH   7  11
BRANCH   8  18
ATOM     18  S   UNL     1      11.636  16.552  18.535  0.00  0.00    +0.000 S 
ATOM     19  C   UNL     1      12.273  18.218  18.553  0.00  0.00    +0.000 C 
ATOM     20  O   UNL     1      12.232  15.785  19.601  0.00  0.00    +0.000 OA
ATOM     21  O   UNL     1      11.722  16.092  17.161  0.00  0.00    +0.000 OA
ENDBRANCH   8  18
TORSDOF 2
ENDMDL
MODEL 7
REMARK VINA RESULT:      -5.6      0.859      1.019
REMARK  Name = 
REMARK  4 active torsions:
REMARK  status: ('A' for Active; 'I' for Inactive)
REMARK    1  A    between atoms: C_1  and  N_2
REMARK    2  A    between atoms: C_7  and  C_8
REMARK    3  A    between atoms: N_15  and  S_16
REMARK    4  A    between atoms: S_16  and  C_17
REMARK                            x       y       z     vdW  Elec       q    Type
REMARK                         _______ _______ _______ _____ _____    ______ ____
ROOT
ATOM      1  C   UNL     1       2.572  12.835  18.187  0.00  0.00    +0.000 C 
ATOM      2  N   UNL     1       1.782  13.375  19.265  0.00  0.00    +0.000 N 
ATOM      3  C   UNL     1       1.521  14.712  19.439  0.00  0.00    +0.000 A 
ATOM      4  N   UNL     1       0.747  14.932  20.477  0.00  0.00    +0.000 NA
ATOM      5  C   UNL     1       0.505  13.697  20.995  0.00  0.00    +0.000 A 
ATOM      6  C   UNL     1       1.081  12.698  20.231  0.00  0.00    +0.000 A 
ATOM      7  C   UNL     1       0.938  11.221  20.472  0.00  0.00    +0.000 C 
ATOM      8  N   UNL     1       0.264  11.053  21.804  0.00  0.00    +0.000 NA
ATOM      9  C   UNL     1      -0.834  11.997  22.143  0.00  0.00    +0.000 C 
ATOM     10  C   UNL     1      -0.318  13.437  22.196  0.00  0.00    +0.000 C 
ENDROOT
BRANCH   7  11
ATOM     11  C   UNL     1       0.309  10.408  19.305  0.00  0.00    +0.000 C 
ATOM     12  O   UNL     1       0.905   9.405  18.885  0.00  0.00    +0.000 OA
ATOM     13  N   UNL     1      -0.898  10.736  18.715  0.00  0.00    +0.000 N 
ATOM     14  C   UNL     1      -1.365  10.010  17.542  0.00  0.00    +0.000 C 
ATOM     15  C   UNL     1      -2.373  10.960  16.918  0.00  0.00    +0.000 C 
ATOM     16  C   UNL     1      -3.043  11.591  18.129  0.00  0.00    +0.000 C 
ATOM     17  C   UNL     1      -1.961  11.597  19.206  0.00  0.00    +0.000 C 
ENDBRANCH   7  11
BRANCH   8  18
ATOM     18  S   UNL     1       0.232   9.541  22.532  0.00  0.00    +0.000 S 
ATOM     19  C   UNL     1       1.798   8.840  22.046  0.00  0.00    +0.000 C 
ATOM     20  O   UNL     1       0.194   9.718  23.962  0.00  0.00    +0.000 OA
ATOM     21  O   UNL     1      -0.794   8.767  21.858  0.00  0.00    +0.000 OA
ENDBRANCH   8  18
TORSDOF 2
ENDMDL
MODEL 8
REMARK VINA RESULT:      -5.5      5.283      6.256
REMARK  Name = 
REMARK  4 active torsions:
REMARK  status: ('A' for Active; 'I' for Inactive)
REMARK    1  A    between atoms: C_1  and  N_2
REMARK    2  A    between atoms: C_7  and  C_8
REMARK    3  A    between atoms: N_15  and  S_16
REMARK    4  A    between atoms: S_16  and  C_17
REMARK                            x       y       z     vdW  Elec       q    Type
REMARK                         _______ _______ _______ _____ _____    ______ ____
ROOT
ATOM      1  C   UNL     1      -2.337  12.300  19.551  0.00  0.00    +0.000 C 
ATOM      2  N   UNL     1      -2.351  12.374  20.991  0.00  0.00    +0.000 N 
ATOM      3  C   UNL     1      -1.225  12.396  21.776  0.00  0.00    +0.000 A 
ATOM      4  N   UNL     1      -1.516  12.503  23.053  0.00  0.00    +0.000 NA
ATOM      5  C   UNL     1      -2.875  12.545  23.094  0.00  0.00    +0.000 A 
ATOM      6  C   UNL     1      -3.429  12.529  21.826  0.00  0.00    +0.000 A 
ATOM      7  C   UNL     1      -4.894  12.650  21.510  0.00  0.00    +0.000 C 
ATOM      8  N   UNL     1      -5.637  12.551  22.812  0.00  0.00    +0.000 NA
ATOM      9  C   UNL     1      -5.047  13.236  23.993  0.00  0.00    +0.000 C 
ATOM     10  C   UNL     1      -3.675  12.649  24.333  0.00  0.00    +0.000 C 
ENDROOT
BRANCH   7  11
ATOM     11  C   UNL     1      -5.290  13.854  20.610  0.00  0.00    +0.000 C 
ATOM     12  O   UNL     1      -4.916  14.991  20.932  0.00  0.00    +0.000 OA
ATOM     13  N   UNL     1      -6.031  13.723  19.449  0.00  0.00    +0.000 N 
ATOM     14  C   UNL     1      -6.477  14.904  18.723  0.00  0.00    +0.000 C 
ATOM     15  C   UNL     1      -7.634  14.387  17.887  0.00  0.00    +0.000 C 
ATOM     16  C   UNL     1      -7.174  12.992  17.491  0.00  0.00    +0.000 C 
ATOM     17  C   UNL     1      -6.290  12.536  18.650  0.00  0.00    +0.000 C 
ENDBRANCH   7  11
BRANCH   8  18
ATOM     18  S   UNL     1      -7.300  12.328  22.802  0.00  0.00    +0.000 S 
ATOM     19  C   UNL     1      -7.916  13.988  22.585  0.00  0.00    +0.000 C 
ATOM     20  O   UNL     1      -7.650  11.520  21.660  0.00  0.00    +0.000 OA
ATOM     21  O   UNL     1      -7.682  11.918  24.140  0.00  0.00    +0.000 OA
ENDBRANCH   8  18
TORSDOF 2
ENDMDL
MODEL 9
REMARK VINA RESULT:      -5.5      2.526      4.487
REMARK  Name = 
REMARK  4 active torsions:
REMARK  status: ('A' for Active; 'I' for Inactive)
REMARK    1  A    between atoms: C_1  and  N_2
REMARK    2  A    between atoms: C_7  and  C_8
REMARK    3  A    between atoms: N_15  and  S_16
REMARK    4  A    between atoms: S_16  and  C_17
REMARK                            x       y       z     vdW  Elec       q    Type
REMARK                         _______ _______ _______ _____ _____    ______ ____
ROOT
ATOM      1  C   UNL     1       1.523  10.391  18.247  0.00  0.00    +0.000 C 
ATOM      2  N   UNL     1       1.132   9.688  19.444  0.00  0.00    +0.000 N 
ATOM      3  C   UNL     1       1.560   8.427  19.774  0.00  0.00    +0.000 A 
ATOM      4  N   UNL     1       1.085   8.032  20.934  0.00  0.00    +0.000 NA
ATOM      5  C   UNL     1       0.319   9.073  21.363  0.00  0.00    +0.000 A 
ATOM      6  C   UNL     1       0.374  10.146  20.492  0.00  0.00    +0.000 A 
ATOM      7  C   UNL     1      -0.284  11.481  20.706  0.00  0.00    +0.000 C 
ATOM      8  N   UNL     1      -1.184  11.344  21.901  0.00  0.00    +0.000 NA
ATOM      9  C   UNL     1      -0.684  10.540  23.049  0.00  0.00    +0.000 C 
ATOM     10  C   UNL     1      -0.440   9.088  22.632  0.00  0.00    +0.000 C 
ENDROOT
BRANCH   7  11
ATOM     11  C   UNL     1       0.674  12.705  20.734  0.00  0.00    +0.000 C 
ATOM     12  O   UNL     1       1.690  12.654  21.443  0.00  0.00    +0.000 OA
ATOM     13  N   UNL     1       0.462  13.852  19.990  0.00  0.00    +0.000 N 
ATOM     14  C   UNL     1       1.327  15.011  20.162  0.00  0.00    +0.000 C 
ATOM     15  C   UNL     1       0.493  16.158  19.619  0.00  0.00    +0.000 C 
ATOM     16  C   UNL     1      -0.235  15.524  18.443  0.00  0.00    +0.000 C 
ATOM     17  C   UNL     1      -0.401  14.059  18.839  0.00  0.00    +0.000 C 
ENDBRANCH   7  11
BRANCH   8  18
ATOM     18  S   UNL     1      -2.309  12.544  22.232  0.00  0.00    +0.000 S 
ATOM     19  C   UNL     1      -3.069  12.817  20.642  0.00  0.00    +0.000 C 
ATOM     20  O   UNL     1      -3.282  12.021  23.160  0.00  0.00    +0.000 OA
ATOM     21  O   UNL     1      -1.565  13.749  22.547  0.00  0.00    +0.000 OA
ENDBRANCH   8  18
TORSDOF 2
ENDMDL
