MODEL 1
REMARK VINA RESULT:      -7.7      0.000      0.000
REMARK  Name = 
REMARK  6 active torsions:
REMARK  status: ('A' for Active; 'I' for Inactive)
REMARK    1  A    between atoms: N_6  and  C_7
REMARK    2  A    between atoms: C_7  and  C_8
REMARK    3  A    between atoms: C_8  and  N_9
REMARK    4  A    between atoms: C_13  and  C_14
REMARK    5  A    between atoms: C_22  and  C_23
REMARK    6  A    between atoms: C_23  and  O_25
REMARK                            x       y       z     vdW  Elec       q    Type
REMARK                         _______ _______ _______ _____ _____    ______ ____
ROOT
ATOM      1  N   UNL     1       7.239   8.183  17.121  0.00  0.00    +0.000 NA
ATOM      2  C   UNL     1       5.809   7.984  17.226  0.00  0.00    +0.000 C 
ATOM      3  C   UNL     1       5.540   6.564  17.797  0.00  0.00    +0.000 C 
ATOM      4  C   UNL     1       4.280   6.142  17.002  0.00  0.00    +0.000 C 
ATOM      5  C   UNL     1       3.841   4.724  17.263  0.00  0.00    +0.000 C 
ATOM      6  C   UNL     1       4.999   3.812  16.861  0.00  0.00    +0.000 C 
ATOM      7  C   UNL     1       6.417   4.465  16.673  0.00  0.00    +0.000 C 
ATOM      8  C   UNL     1       6.818   5.705  17.572  0.00  0.00    +0.000 C 
ATOM      9  C   UNL     1       7.833   6.928  17.553  0.00  0.00    +0.000 C 
ENDROOT
BRANCH   5  10
ATOM     10  C   UNL     1       3.268   4.598  18.665  0.00  0.00    +0.000 A 
ATOM     11  C   UNL     1       3.531   3.428  19.409  0.00  0.00    +0.000 A 
ATOM     12  C   UNL     1       2.916   3.212  20.645  0.00  0.00    +0.000 A 
ATOM     13  C   UNL     1       2.022   4.150  21.151  0.00  0.00    +0.000 A 
ATOM     14  C   UNL     1       1.772   5.322  20.439  0.00  0.00    +0.000 A 
ATOM     15  C   UNL     1       2.402   5.550  19.213  0.00  0.00    +0.000 A 
ENDBRANCH   5  10
BRANCH   8  16
ATOM     16  C   UNL     1       7.798   4.925  18.467  0.00  0.00    +0.000 C 
ATOM     17  O   UNL     1       8.081   5.144  19.641  0.00  0.00    +0.000 OA
BRANCH  16  18
ATOM     18  O   UNL     1       8.424   3.920  17.735  0.00  0.00    +0.000 OA
ATOM     19  H   UNL     1       8.287   2.969  18.053  0.00  0.00    +0.000 HD
ENDBRANCH  16  18
ENDBRANCH   8  16
BRANCH   1  20
ATOM     20  C   UNL     1       7.662   9.380  17.901  0.00  0.00    +0.000 C 
BRANCH  20  21
ATOM     21  C   UNL     1       8.916   9.226  18.791  0.00  0.00    +0.000 C 
BRANCH  21  27
ATOM     22  O   UNL     1      10.645  11.259  17.567  0.00  0.00    +0.000 OA
ATOM     23  C   UNL     1      10.256  11.351  18.718  0.00  0.00    +0.000 C 
ATOM     24  C   UNL     1      10.704  12.398  19.715  0.00  0.00    +0.000 C 
ATOM     25  C   UNL     1       9.676  12.270  20.830  0.00  0.00    +0.000 C 
ATOM     26  C   UNL     1       9.243  10.814  20.762  0.00  0.00    +0.000 C 
ATOM     27  N   UNL     1       9.366  10.495  19.363  0.00  0.00    +0.000 N 
ENDBRANCH  21  27
ENDBRANCH  20  21
ENDBRANCH   1  20
TORSDOF 6
ENDMDL
MODEL 2
REMARK VINA RESULT:      -7.5      0.615      1.127
REMARK  Name = 
REMARK  6 active torsions:
REMARK  status: ('A' for Active; 'I' for Inactive)
REMARK    1  A    between atoms: N_6  and  C_7
REMARK    2  A    between atoms: C_7  and  C_8
REMARK    3  A    between atoms: C_8  and  N_9
REMARK    4  A    between atoms: C_13  and  C_14
REMARK    5  A    between atoms: C_22  and  C_23
REMARK    6  A    between atoms: C_23  and  O_25
REMARK                            x       y       z     vdW  Elec       q    Type
REMARK                         _______ _______ _______ _____ _____    ______ ____
ROOT
ATOM      1  N   UNL     1       7.560   8.315  17.385  0.00  0.00    +0.000 NA
ATOM      2  C   UNL     1       6.121   8.170  17.344  0.00  0.00    +0.000 C 
ATOM      3  C   UNL     1       5.748   6.730  17.793  0.00  0.00    +0.000 C 
ATOM      4  C   UNL     1       4.555   6.411  16.859  0.00  0.00    +0.000 C 
ATOM      5  C   UNL     1       4.043   4.999  16.984  0.00  0.00    +0.000 C 
ATOM      6  C   UNL     1       5.200   4.066  16.632  0.00  0.00    +0.000 C 
ATOM      7  C   UNL     1       6.651   4.669  16.620  0.00  0.00    +0.000 C 
ATOM      8  C   UNL     1       7.010   5.833  17.632  0.00  0.00    +0.000 C 
ATOM      9  C   UNL     1       8.065   7.012  17.787  0.00  0.00    +0.000 C 
ENDROOT
BRANCH   5  10
ATOM     10  C   UNL     1       3.334   4.810  18.316  0.00  0.00    +0.000 A 
ATOM     11  C   UNL     1       2.536   5.859  18.821  0.00  0.00    +0.000 A 
ATOM     12  C   UNL     1       1.976   5.783  20.098  0.00  0.00    +0.000 A 
ATOM     13  C   UNL     1       2.212   4.666  20.895  0.00  0.00    +0.000 A 
ATOM     14  C   UNL     1       2.976   3.612  20.400  0.00  0.00    +0.000 A 
ATOM     15  C   UNL     1       3.520   3.677  19.114  0.00  0.00    +0.000 A 
ENDBRANCH   5  10
BRANCH   8  16
ATOM     16  C   UNL     1       7.872   4.959  18.561  0.00  0.00    +0.000 C 
ATOM     17  O   UNL     1       8.105   5.133  19.753  0.00  0.00    +0.000 OA
BRANCH  16  18
ATOM     18  O   UNL     1       8.454   3.920  17.840  0.00  0.00    +0.000 OA
ATOM     19  H   UNL     1       9.373   3.617  18.138  0.00  0.00    +0.000 HD
ENDBRANCH  16  18
ENDBRANCH   8  16
BRANCH   1  20
ATOM     20  C   UNL     1       7.949   9.443  18.278  0.00  0.00    +0.000 C 
BRANCH  20  21
ATOM     21  C   UNL     1       9.084  10.367  17.782  0.00  0.00    +0.000 C 
BRANCH  21  27
ATOM     22  O   UNL     1      11.681  11.734  17.721  0.00  0.00    +0.000 OA
ATOM     23  C   UNL     1      11.040  11.613  18.751  0.00  0.00    +0.000 C 
ATOM     24  C   UNL     1      11.522  11.990  20.134  0.00  0.00    +0.000 C 
ATOM     25  C   UNL     1      10.242  11.968  20.959  0.00  0.00    +0.000 C 
ATOM     26  C   UNL     1       9.370  10.943  20.252  0.00  0.00    +0.000 C 
ATOM     27  N   UNL     1       9.765  11.066  18.872  0.00  0.00    +0.000 N 
ENDBRANCH  21  27
ENDBRANCH  20  21
ENDBRANCH   1  20
TORSDOF 6
ENDMDL
MODEL 3
REMARK VINA RESULT:      -7.5      4.541      6.899
REMARK  Name = 
REMARK  6 active torsions:
REMARK  status: ('A' for Active; 'I' for Inactive)
REMARK    1  A    between atoms: N_6  and  C_7
REMARK    2  A    between atoms: C_7  and  C_8
REMARK    3  A    between atoms: C_8  and  N_9
REMARK    4  A    between atoms: C_13  and  C_14
REMARK    5  A    between atoms: C_22  and  C_23
REMARK    6  A    between atoms: C_23  and  O_25
REMARK                            x       y       z     vdW  Elec       q    Type
REMARK                         _______ _______ _______ _____ _____    ______ ____
ROOT
ATOM      1  N   UNL     1       3.149   7.330  18.146  0.00  0.00    +0.000 NA
ATOM      2  C   UNL     1       4.236   7.574  17.222  0.00  0.00    +0.000 C 
ATOM      3  C   UNL     1       4.773   6.210  16.708  0.00  0.00    +0.000 C 
ATOM      4  C   UNL     1       6.295   6.487  16.620  0.00  0.00    +0.000 C 
ATOM      5  C   UNL     1       7.114   5.277  16.252  0.00  0.00    +0.000 C 
ATOM      6  C   UNL     1       6.872   4.222  17.330  0.00  0.00    +0.000 C 
ATOM      7  C   UNL     1       5.635   4.414  18.280  0.00  0.00    +0.000 C 
ATOM      8  C   UNL     1       4.329   5.107  17.712  0.00  0.00    +0.000 C 
ATOM      9  C   UNL     1       3.048   5.883  18.246  0.00  0.00    +0.000 C 
ENDROOT
BRANCH   5  10
ATOM     10  C   UNL     1       6.877   4.901  14.798  0.00  0.00    +0.000 A 
ATOM     11  C   UNL     1       5.868   3.964  14.490  0.00  0.00    +0.000 A 
ATOM     12  C   UNL     1       5.704   3.489  13.187  0.00  0.00    +0.000 A 
ATOM     13  C   UNL     1       6.551   3.932  12.175  0.00  0.00    +0.000 A 
ATOM     14  C   UNL     1       7.535   4.876  12.459  0.00  0.00    +0.000 A 
ATOM     15  C   UNL     1       7.687   5.368  13.758  0.00  0.00    +0.000 A 
ENDBRANCH   5  10
BRANCH   8  16
ATOM     16  C   UNL     1       3.497   3.814  17.639  0.00  0.00    +0.000 C 
ATOM     17  O   UNL     1       3.908   2.661  17.550  0.00  0.00    +0.000 OA
BRANCH  16  18
ATOM     18  O   UNL     1       2.139   4.116  17.611  0.00  0.00    +0.000 OA
ATOM     19  H   UNL     1       1.809   4.666  16.827  0.00  0.00    +0.000 HD
ENDBRANCH  16  18
ENDBRANCH   8  16
BRANCH   1  20
ATOM     20  C   UNL     1       1.907   8.016  17.689  0.00  0.00    +0.000 C 
BRANCH  20  21
ATOM     21  C   UNL     1       1.661   9.444  18.225  0.00  0.00    +0.000 C 
BRANCH  21  27
ATOM     22  O   UNL     1      -0.341  11.408  19.094  0.00  0.00    +0.000 OA
ATOM     23  C   UNL     1       0.017  10.491  19.813  0.00  0.00    +0.000 C 
ATOM     24  C   UNL     1      -0.372  10.308  21.263  0.00  0.00    +0.000 C 
ATOM     25  C   UNL     1       0.043   8.871  21.550  0.00  0.00    +0.000 C 
ATOM     26  C   UNL     1       1.208   8.633  20.602  0.00  0.00    +0.000 C 
ATOM     27  N   UNL     1       0.888   9.460  19.467  0.00  0.00    +0.000 N 
ENDBRANCH  21  27
ENDBRANCH  20  21
ENDBRANCH   1  20
TORSDOF 6
ENDMDL
MODEL 4
REMARK VINA RESULT:      -7.5      0.884      1.508
REMARK  Name = 
REMARK  6 active torsions:
REMARK  status: ('A' for Active; 'I' for Inactive)
REMARK    1  A    between atoms: N_6  and  C_7
REMARK    2  A    between atoms: C_7  and  C_8
REMARK    3  A    between atoms: C_8  and  N_9
REMARK    4  A    between atoms: C_13  and  C_14
REMARK    5  A    between atoms: C_22  and  C_23
REMARK    6  A    between atoms: C_23  and  O_25
REMARK                            x       y       z     vdW  Elec       q    Type
REMARK                         _______ _______ _______ _____ _____    ______ ____
ROOT
ATOM      1  N   UNL     1       7.304   8.158  17.089  0.00  0.00    +0.000 NA
ATOM      2  C   UNL     1       5.870   7.965  17.101  0.00  0.00    +0.000 C 
ATOM      3  C   UNL     1       5.558   6.555  17.674  0.00  0.00    +0.000 C 
ATOM      4  C   UNL     1       4.352   6.124  16.802  0.00  0.00    +0.000 C 
ATOM      5  C   UNL     1       3.892   4.711  17.054  0.00  0.00    +0.000 C 
ATOM      6  C   UNL     1       5.071   3.790  16.745  0.00  0.00    +0.000 C 
ATOM      7  C   UNL     1       6.500   4.436  16.644  0.00  0.00    +0.000 C 
ATOM      8  C   UNL     1       6.845   5.689  17.549  0.00  0.00    +0.000 C 
ATOM      9  C   UNL     1       7.863   6.909  17.580  0.00  0.00    +0.000 C 
ENDROOT
BRANCH   5  10
ATOM     10  C   UNL     1       3.224   4.608  18.415  0.00  0.00    +0.000 A 
ATOM     11  C   UNL     1       2.500   5.714  18.908  0.00  0.00    +0.000 A 
ATOM     12  C   UNL     1       1.984   5.714  20.206  0.00  0.00    +0.000 A 
ATOM     13  C   UNL     1       2.193   4.616  21.036  0.00  0.00    +0.000 A 
ATOM     14  C   UNL     1       2.884   3.506  20.555  0.00  0.00    +0.000 A 
ATOM     15  C   UNL     1       3.382   3.496  19.250  0.00  0.00    +0.000 A 
ENDBRANCH   5  10
BRANCH   8  16
ATOM     16  C   UNL     1       7.759   4.920  18.520  0.00  0.00    +0.000 C 
ATOM     17  O   UNL     1       7.927   5.128  19.717  0.00  0.00    +0.000 OA
BRANCH  16  18
ATOM     18  O   UNL     1       8.477   3.944  17.835  0.00  0.00    +0.000 OA
ATOM     19  H   UNL     1       7.964   3.121  17.541  0.00  0.00    +0.000 HD
ENDBRANCH  16  18
ENDBRANCH   8  16
BRANCH   1  20
ATOM     20  C   UNL     1       7.678   9.366  17.878  0.00  0.00    +0.000 C 
BRANCH  20  21
ATOM     21  C   UNL     1       8.869   9.223  18.852  0.00  0.00    +0.000 C 
BRANCH  21  27
ATOM     22  O   UNL     1       9.115  10.868  21.271  0.00  0.00    +0.000 OA
ATOM     23  C   UNL     1       9.594  11.213  20.205  0.00  0.00    +0.000 C 
ATOM     24  C   UNL     1      10.231  12.556  19.922  0.00  0.00    +0.000 C 
ATOM     25  C   UNL     1      10.952  12.321  18.602  0.00  0.00    +0.000 C 
ATOM     26  C   UNL     1      10.126  11.241  17.922  0.00  0.00    +0.000 C 
ATOM     27  N   UNL     1       9.613  10.470  19.027  0.00  0.00    +0.000 N 
ENDBRANCH  21  27
ENDBRANCH  20  21
ENDBRANCH   1  20
TORSDOF 6
ENDMDL
MODEL 5
REMARK VINA RESULT:      -7.4      4.352      6.745
REMARK  Name = 
REMARK  6 active torsions:
REMARK  status: ('A' for Active; 'I' for Inactive)
REMARK    1  A    between atoms: N_6  and  C_7
REMARK    2  A    between atoms: C_7  and  C_8
REMARK    3  A    between atoms: C_8  and  N_9
REMARK    4  A    between atoms: C_13  and  C_14
REMARK    5  A    between atoms: C_22  and  C_23
REMARK    6  A    between atoms: C_23  and  O_25
REMARK                            x       y       z     vdW  Elec       q    Type
REMARK                         _______ _______ _______ _____ _____    ______ ____
ROOT
ATOM      1  N   UNL     1       3.457   7.079  18.335  0.00  0.00    +0.000 NA
ATOM      2  C   UNL     1       4.327   7.336  17.207  0.00  0.00    +0.000 C 
ATOM      3  C   UNL     1       5.019   6.007  16.794  0.00  0.00    +0.000 C 
ATOM      4  C   UNL     1       6.433   6.500  16.399  0.00  0.00    +0.000 C 
ATOM      5  C   UNL     1       7.393   5.390  16.057  0.00  0.00    +0.000 C 
ATOM      6  C   UNL     1       7.514   4.501  17.293  0.00  0.00    +0.000 C 
ATOM      7  C   UNL     1       6.422   4.649  18.414  0.00  0.00    +0.000 C 
ATOM      8  C   UNL     1       4.941   5.027  18.001  0.00  0.00    +0.000 C 
ATOM      9  C   UNL     1       3.637   5.669  18.645  0.00  0.00    +0.000 C 
ENDROOT
BRANCH   5  10
ATOM     10  C   UNL     1       7.008   4.749  14.733  0.00  0.00    +0.000 A 
ATOM     11  C   UNL     1       7.703   5.126  13.564  0.00  0.00    +0.000 A 
ATOM     12  C   UNL     1       7.296   4.665  12.309  0.00  0.00    +0.000 A 
ATOM     13  C   UNL     1       6.187   3.832  12.201  0.00  0.00    +0.000 A 
ATOM     14  C   UNL     1       5.507   3.431  13.349  0.00  0.00    +0.000 A 
ATOM     15  C   UNL     1       5.924   3.874  14.607  0.00  0.00    +0.000 A 
ENDBRANCH   5  10
BRANCH   8  16
ATOM     16  C   UNL     1       4.356   3.625  18.251  0.00  0.00    +0.000 C 
ATOM     17  O   UNL     1       3.374   3.116  17.723  0.00  0.00    +0.000 OA
BRANCH  16  18
ATOM     18  O   UNL     1       5.067   2.981  19.260  0.00  0.00    +0.000 OA
ATOM     19  H   UNL     1       4.801   3.194  20.214  0.00  0.00    +0.000 HD
ENDBRANCH  16  18
ENDBRANCH   8  16
BRANCH   1  20
ATOM     20  C   UNL     1       2.056   7.478  18.018  0.00  0.00    +0.000 C 
BRANCH  20  21
ATOM     21  C   UNL     1       1.686   8.961  18.245  0.00  0.00    +0.000 C 
BRANCH  21  27
ATOM     22  O   UNL     1      -0.029  11.223  18.994  0.00  0.00    +0.000 OA
ATOM     23  C   UNL     1       0.254  10.340  19.784  0.00  0.00    +0.000 C 
ATOM     24  C   UNL     1      -0.084  10.339  21.259  0.00  0.00    +0.000 C 
ATOM     25  C   UNL     1       0.175   8.895  21.668  0.00  0.00    +0.000 C 
ATOM     26  C   UNL     1       1.256   8.432  20.705  0.00  0.00    +0.000 C 
ATOM     27  N   UNL     1       0.980   9.183  19.507  0.00  0.00    +0.000 N 
ENDBRANCH  21  27
ENDBRANCH  20  21
ENDBRANCH   1  20
TORSDOF 6
ENDMDL
MODEL 6
REMARK VINA RESULT:      -7.4      1.176      1.534
REMARK  Name = 
REMARK  6 active torsions:
REMARK  status: ('A' for Active; 'I' for Inactive)
REMARK    1  A    between atoms: N_6  and  C_7
REMARK    2  A    between atoms: C_7  and  C_8
REMARK    3  A    between atoms: C_8  and  N_9
REMARK    4  A    between atoms: C_13  and  C_14
REMARK    5  A    between atoms: C_22  and  C_23
REMARK    6  A    between atoms: C_23  and  O_25
REMARK                            x       y       z     vdW  Elec       q    Type
REMARK                         _______ _______ _______ _____ _____    ______ ____
ROOT
ATOM      1  N   UNL     1       7.551   8.031  17.299  0.00  0.00    +0.000 NA
ATOM      2  C   UNL     1       6.155   8.181  17.650  0.00  0.00    +0.000 C 
ATOM      3  C   UNL     1       5.541   6.772  17.881  0.00  0.00    +0.000 C 
ATOM      4  C   UNL     1       4.121   6.949  17.289  0.00  0.00    +0.000 C 
ATOM      5  C   UNL     1       3.308   5.681  17.265  0.00  0.00    +0.000 C 
ATOM      6  C   UNL     1       4.071   4.672  16.409  0.00  0.00    +0.000 C 
ATOM      7  C   UNL     1       5.584   4.966  16.100  0.00  0.00    +0.000 C 
ATOM      8  C   UNL     1       6.456   5.727  17.181  0.00  0.00    +0.000 C 
ATOM      9  C   UNL     1       7.785   6.596  17.262  0.00  0.00    +0.000 C 
ENDROOT
BRANCH   5  10
ATOM     10  C   UNL     1       2.908   5.283  18.676  0.00  0.00    +0.000 A 
ATOM     11  C   UNL     1       3.068   3.941  19.080  0.00  0.00    +0.000 A 
ATOM     12  C   UNL     1       2.591   3.503  20.318  0.00  0.00    +0.000 A 
ATOM     13  C   UNL     1       1.938   4.393  21.165  0.00  0.00    +0.000 A 
ATOM     14  C   UNL     1       1.795   5.727  20.791  0.00  0.00    +0.000 A 
ATOM     15  C   UNL     1       2.290   6.172  19.562  0.00  0.00    +0.000 A 
ENDBRANCH   5  10
BRANCH   8  16
ATOM     16  C   UNL     1       7.258   4.488  17.619  0.00  0.00    +0.000 C 
ATOM     17  O   UNL     1       8.356   4.122  17.214  0.00  0.00    +0.000 OA
BRANCH  16  18
ATOM     18  O   UNL     1       6.523   3.738  18.534  0.00  0.00    +0.000 OA
ATOM     19  H   UNL     1       6.754   3.858  19.512  0.00  0.00    +0.000 HD
ENDBRANCH  16  18
ENDBRANCH   8  16
BRANCH   1  20
ATOM     20  C   UNL     1       8.415   8.783  18.253  0.00  0.00    +0.000 C 
BRANCH  20  21
ATOM     21  C   UNL     1       8.483  10.316  18.074  0.00  0.00    +0.000 C 
BRANCH  21  27
ATOM     22  O   UNL     1       9.225  10.841  20.865  0.00  0.00    +0.000 OA
ATOM     23  C   UNL     1       9.939  11.174  19.935  0.00  0.00    +0.000 C 
ATOM     24  C   UNL     1      11.193  12.013  20.046  0.00  0.00    +0.000 C 
ATOM     25  C   UNL     1      11.853  11.822  18.688  0.00  0.00    +0.000 C 
ATOM     26  C   UNL     1      10.686  11.564  17.748  0.00  0.00    +0.000 C 
ATOM     27  N   UNL     1       9.725  10.894  18.587  0.00  0.00    +0.000 N 
ENDBRANCH  21  27
ENDBRANCH  20  21
ENDBRANCH   1  20
TORSDOF 6
ENDMDL
MODEL 7
REMARK VINA RESULT:      -7.4      4.134      5.889
REMARK  Name = 
REMARK  6 active torsions:
REMARK  status: ('A' for Active; 'I' for Inactive)
REMARK    1  A    between atoms: N_6  and  C_7
REMARK    2  A    between atoms: C_7  and  C_8
REMARK    3  A    between atoms: C_8  and  N_9
REMARK    4  A    between atoms: C_13  and  C_14
REMARK    5  A    between atoms: C_22  and  C_23
REMARK    6  A    between atoms: C_23  and  O_25
REMARK                            x       y       z     vdW  Elec       q    Type
REMARK                         _______ _______ _______ _____ _____    ______ ____
ROOT
ATOM      1  N   UNL     1       2.597   8.186  17.331  0.00  0.00    +0.000 NA
ATOM      2  C   UNL     1       1.694   7.111  17.681  0.00  0.00    +0.000 C 
ATOM      3  C   UNL     1       2.529   5.879  18.128  0.00  0.00    +0.000 C 
ATOM      4  C   UNL     1       1.699   4.710  17.542  0.00  0.00    +0.000 C 
ATOM      5  C   UNL     1       2.341   3.358  17.718  0.00  0.00    +0.000 C 
ATOM      6  C   UNL     1       3.690   3.402  17.005  0.00  0.00    +0.000 C 
ATOM      7  C   UNL     1       4.276   4.811  16.628  0.00  0.00    +0.000 C 
ATOM      8  C   UNL     1       3.973   6.048  17.570  0.00  0.00    +0.000 C 
ATOM      9  C   UNL     1       3.932   7.635  17.499  0.00  0.00    +0.000 C 
ENDROOT
BRANCH   5  10
ATOM     10  C   UNL     1       2.303   2.942  19.180  0.00  0.00    +0.000 A 
ATOM     11  C   UNL     1       1.099   3.084  19.901  0.00  0.00    +0.000 A 
ATOM     12  C   UNL     1       1.053   2.841  21.276  0.00  0.00    +0.000 A 
ATOM     13  C   UNL     1       2.208   2.465  21.954  0.00  0.00    +0.000 A 
ATOM     14  C   UNL     1       3.399   2.295  21.251  0.00  0.00    +0.000 A 
ATOM     15  C   UNL     1       3.443   2.517  19.872  0.00  0.00    +0.000 A 
ENDBRANCH   5  10
BRANCH   8  16
ATOM     16  C   UNL     1       5.388   6.125  18.170  0.00  0.00    +0.000 C 
ATOM     17  O   UNL     1       6.381   6.657  17.684  0.00  0.00    +0.000 OA
BRANCH  16  18
ATOM     18  O   UNL     1       5.443   5.419  19.368  0.00  0.00    +0.000 OA
ATOM     19  H   UNL     1       6.140   4.689  19.437  0.00  0.00    +0.000 HD
ENDBRANCH  16  18
ENDBRANCH   8  16
BRANCH   1  20
ATOM     20  C   UNL     1       2.311   9.399  18.149  0.00  0.00    +0.000 C 
BRANCH  20  21
ATOM     21  C   UNL     1       0.824   9.761  18.362  0.00  0.00    +0.000 C 
BRANCH  21  27
ATOM     22  O   UNL     1      -1.105  11.467  19.773  0.00  0.00    +0.000 OA
ATOM     23  C   UNL     1      -0.449  10.620  20.353  0.00  0.00    +0.000 C 
ATOM     24  C   UNL     1      -0.402  10.420  21.852  0.00  0.00    +0.000 C 
ATOM     25  C   UNL     1       0.259   9.056  21.994  0.00  0.00    +0.000 C 
ATOM     26  C   UNL     1       1.143   8.950  20.762  0.00  0.00    +0.000 C 
ATOM     27  N   UNL     1       0.422   9.703  19.768  0.00  0.00    +0.000 N 
ENDBRANCH  21  27
ENDBRANCH  20  21
ENDBRANCH   1  20
TORSDOF 6
ENDMDL
MODEL 8
REMARK VINA RESULT:      -7.3      4.401      6.903
REMARK  Name = 
REMARK  6 active torsions:
REMARK  status: ('A' for Active; 'I' for Inactive)
REMARK    1  A    between atoms: N_6  and  C_7
REMARK    2  A    between atoms: C_7  and  C_8
REMARK    3  A    between atoms: C_8  and  N_9
REMARK    4  A    between atoms: C_13  and  C_14
REMARK    5  A    between atoms: C_22  and  C_23
REMARK    6  A    between atoms: C_23  and  O_25
REMARK                            x       y       z     vdW  Elec       q    Type
REMARK                         _______ _______ _______ _____ _____    ______ ____
ROOT
ATOM      1  N   UNL     1       3.262   7.172  18.173  0.00  0.00    +0.000 NA
ATOM      2  C   UNL     1       4.303   7.458  17.210  0.00  0.00    +0.000 C 
ATOM      3  C   UNL     1       4.875   6.115  16.674  0.00  0.00    +0.000 C 
ATOM      4  C   UNL     1       6.380   6.452  16.530  0.00  0.00    +0.000 C 
ATOM      5  C   UNL     1       7.232   5.275  16.131  0.00  0.00    +0.000 C 
ATOM      6  C   UNL     1       7.072   4.212  17.216  0.00  0.00    +0.000 C 
ATOM      7  C   UNL     1       5.864   4.355  18.211  0.00  0.00    +0.000 C 
ATOM      8  C   UNL     1       4.512   4.997  17.694  0.00  0.00    +0.000 C 
ATOM      9  C   UNL     1       3.222   5.722  18.275  0.00  0.00    +0.000 C 
ENDROOT
BRANCH   5  10
ATOM     10  C   UNL     1       6.956   4.889  14.686  0.00  0.00    +0.000 A 
ATOM     11  C   UNL     1       5.990   3.897  14.416  0.00  0.00    +0.000 A 
ATOM     12  C   UNL     1       5.799   3.417  13.118  0.00  0.00    +0.000 A 
ATOM     13  C   UNL     1       6.575   3.909  12.074  0.00  0.00    +0.000 A 
ATOM     14  C   UNL     1       7.515   4.908  12.321  0.00  0.00    +0.000 A 
ATOM     15  C   UNL     1       7.693   5.405  13.615  0.00  0.00    +0.000 A 
ENDBRANCH   5  10
BRANCH   8  16
ATOM     16  C   UNL     1       3.729   3.672  17.650  0.00  0.00    +0.000 C 
ATOM     17  O   UNL     1       2.664   3.447  17.083  0.00  0.00    +0.000 OA
BRANCH  16  18
ATOM     18  O   UNL     1       4.364   2.712  18.432  0.00  0.00    +0.000 OA
ATOM     19  H   UNL     1       5.197   3.004  18.928  0.00  0.00    +0.000 HD
ENDBRANCH  16  18
ENDBRANCH   8  16
BRANCH   1  20
ATOM     20  C   UNL     1       1.979   7.809  17.763  0.00  0.00    +0.000 C 
BRANCH  20  21
ATOM     21  C   UNL     1       1.891   9.346  17.888  0.00  0.00    +0.000 C 
BRANCH  21  27
ATOM     22  O   UNL     1       1.682   8.709  20.747  0.00  0.00    +0.000 OA
ATOM     23  C   UNL     1       0.824   9.350  20.165  0.00  0.00    +0.000 C 
ATOM     24  C   UNL     1      -0.506   9.771  20.749  0.00  0.00    +0.000 C 
ATOM     25  C   UNL     1      -1.003  10.810  19.754  0.00  0.00    +0.000 C 
ATOM     26  C   UNL     1      -0.376  10.383  18.436  0.00  0.00    +0.000 C 
ATOM     27  N   UNL     1       0.869   9.781  18.841  0.00  0.00    +0.000 N 
ENDBRANCH  21  27
ENDBRANCH  20  21
ENDBRANCH   1  20
TORSDOF 6
ENDMDL
MODEL 9
REMARK VINA RESULT:      -7.2      4.126      5.687
REMARK  Name = 
REMARK  6 active torsions:
REMARK  status: ('A' for Active; 'I' for Inactive)
REMARK    1  A    between atoms: N_6  and  C_7
REMARK    2  A    between atoms: C_7  and  C_8
REMARK    3  A    between atoms: C_8  and  N_9
REMARK    4  A    between atoms: C_13  and  C_14
REMARK    5  A    between atoms: C_22  and  C_23
REMARK    6  A    between atoms: C_23  and  O_25
REMARK                            x       y       z     vdW  Elec       q    Type
REMARK                         _______ _______ _______ _____ _____    ______ ____
ROOT
ATOM      1  N   UNL     1       2.653   8.128  17.259  0.00  0.00    +0.000 NA
ATOM      2  C   UNL     1       1.743   7.061  17.614  0.00  0.00    +0.000 C 
ATOM      3  C   UNL     1       2.569   5.836  18.096  0.00  0.00    +0.000 C 
ATOM      4  C   UNL     1       1.746   4.657  17.518  0.00  0.00    +0.000 C 
ATOM      5  C   UNL     1       2.383   3.308  17.729  0.00  0.00    +0.000 C 
ATOM      6  C   UNL     1       3.744   3.338  17.037  0.00  0.00    +0.000 C 
ATOM      7  C   UNL     1       4.338   4.739  16.644  0.00  0.00    +0.000 C 
ATOM      8  C   UNL     1       4.021   5.993  17.559  0.00  0.00    +0.000 C 
ATOM      9  C   UNL     1       3.985   7.579  17.458  0.00  0.00    +0.000 C 
ENDROOT
BRANCH   5  10
ATOM     10  C   UNL     1       2.321   2.918  19.197  0.00  0.00    +0.000 A 
ATOM     11  C   UNL     1       1.099   3.051  19.889  0.00  0.00    +0.000 A 
ATOM     12  C   UNL     1       1.028   2.832  21.267  0.00  0.00    +0.000 A 
ATOM     13  C   UNL     1       2.175   2.491  21.977  0.00  0.00    +0.000 A 
ATOM     14  C   UNL     1       3.384   2.331  21.303  0.00  0.00    +0.000 A 
ATOM     15  C   UNL     1       3.453   2.528  19.921  0.00  0.00    +0.000 A 
ENDBRANCH   5  10
BRANCH   8  16
ATOM     16  C   UNL     1       5.427   6.079  18.179  0.00  0.00    +0.000 C 
ATOM     17  O   UNL     1       6.425   6.615  17.708  0.00  0.00    +0.000 OA
BRANCH  16  18
ATOM     18  O   UNL     1       5.467   5.376  19.380  0.00  0.00    +0.000 OA
ATOM     19  H   UNL     1       5.137   5.861  20.205  0.00  0.00    +0.000 HD
ENDBRANCH  16  18
ENDBRANCH   8  16
BRANCH   1  20
ATOM     20  C   UNL     1       2.356   9.356  18.050  0.00  0.00    +0.000 C 
BRANCH  20  21
ATOM     21  C   UNL     1       0.868   9.654  18.343  0.00  0.00    +0.000 C 
BRANCH  21  27
ATOM     22  O   UNL     1       1.087   8.219  20.895  0.00  0.00    +0.000 OA
ATOM     23  C   UNL     1       0.701   9.374  20.836  0.00  0.00    +0.000 C 
ATOM     24  C   UNL     1       0.147  10.175  21.993  0.00  0.00    +0.000 C 
ATOM     25  C   UNL     1       0.164  11.601  21.460  0.00  0.00    +0.000 C 
ATOM     26  C   UNL     1       0.001  11.431  19.958  0.00  0.00    +0.000 C 
ATOM     27  N   UNL     1       0.647  10.171  19.694  0.00  0.00    +0.000 N 
ENDBRANCH  21  27
ENDBRANCH  20  21
ENDBRANCH   1  20
TORSDOF 6
ENDMDL
