MODEL 1
REMARK VINA RESULT:      -8.0      0.000      0.000
REMARK  Name = 
REMARK  3 active torsions:
REMARK  status: ('A' for Active; 'I' for Inactive)
REMARK    1  A    between atoms: C_1  and  C_2
REMARK    2  A    between atoms: N_6  and  C_7
REMARK    3  A    between atoms: C_10  and  C_11
REMARK                            x       y       z     vdW  Elec       q    Type
REMARK                         _______ _______ _______ _____ _____    ______ ____
ROOT
ATOM      1  C   UNL     1       3.230   5.907  19.148  0.00  0.00    +0.000 C 
ATOM      2  O   UNL     1       2.882   5.028  19.931  0.00  0.00    +0.000 OA
ATOM      3  N   UNL     1       4.137   5.677  18.120  0.00  0.00    +0.000 N 
ATOM      4  C   UNL     1       4.505   4.297  17.797  0.00  0.00    +0.000 C 
ATOM      5  C   UNL     1       4.415   4.053  16.276  0.00  0.00    +0.000 C 
ATOM      6  N   UNL     1       5.186   5.072  15.559  0.00  0.00    +0.000 N 
ATOM      7  C   UNL     1       5.947   4.789  14.451  0.00  0.00    +0.000 A 
ATOM      8  C   UNL     1       5.693   3.708  13.599  0.00  0.00    +0.000 A 
ATOM      9  N   UNL     1       6.472   3.359  12.542  0.00  0.00    +0.000 NA
ATOM     10  C   UNL     1       7.558   4.135  12.363  0.00  0.00    +0.000 A 
ATOM     11  C   UNL     1       7.829   5.215  13.180  0.00  0.00    +0.000 A 
ATOM     12  N   UNL     1       7.028   5.569  14.212  0.00  0.00    +0.000 NA
ATOM     13  C   UNL     1       4.913   6.475  15.892  0.00  0.00    +0.000 C 
ATOM     14  C   UNL     1       4.963   6.680  17.419  0.00  0.00    +0.000 C 
ENDROOT
BRANCH   1  18
ATOM     15  C   UNL     1       1.094   9.619  19.406  0.00  0.00    +0.000 A 
ATOM     16  C   UNL     1       1.186   8.782  20.528  0.00  0.00    +0.000 A 
ATOM     17  C   UNL     1       1.907   7.581  20.449  0.00  0.00    +0.000 A 
ATOM     18  C   UNL     1       2.555   7.226  19.258  0.00  0.00    +0.000 A 
ATOM     19  C   UNL     1       2.452   8.063  18.148  0.00  0.00    +0.000 A 
ATOM     20  C   UNL     1       1.772   9.272  18.236  0.00  0.00    +0.000 A 
BRANCH  15  26
ATOM     21  C   UNL     1      -1.746  10.121  18.094  0.00  0.00    +0.000 C 
ATOM     22  C   UNL     1      -0.876  11.105  18.794  0.00  0.00    +0.000 A 
ATOM     23  C   UNL     1      -1.110  12.447  19.021  0.00  0.00    +0.000 A 
ATOM     24  C   UNL     1      -0.108  12.844  19.912  0.00  0.00    +0.000 A 
ATOM     25  N   UNL     1       0.714  11.847  20.233  0.00  0.00    +0.000 NA
ATOM     26  N   UNL     1       0.314  10.807  19.456  0.00  0.00    +0.000 N 
ENDBRANCH  15  26
ENDBRANCH   1  18
TORSDOF 2
ENDMDL
MODEL 2
REMARK VINA RESULT:      -7.9      0.604      1.139
REMARK  Name = 
REMARK  3 active torsions:
REMARK  status: ('A' for Active; 'I' for Inactive)
REMARK    1  A    between atoms: C_1  and  C_2
REMARK    2  A    between atoms: N_6  and  C_7
REMARK    3  A    between atoms: C_10  and  C_11
REMARK                            x       y       z     vdW  Elec       q    Type
REMARK                         _______ _______ _______ _____ _____    ______ ____
ROOT
ATOM      1  C   UNL     1       3.234   5.400  19.314  0.00  0.00    +0.000 C 
ATOM      2  O   UNL     1       2.954   4.457  20.050  0.00  0.00    +0.000 OA
ATOM      3  N   UNL     1       4.141   5.287  18.266  0.00  0.00    +0.000 N 
ATOM      4  C   UNL     1       4.593   3.954  17.862  0.00  0.00    +0.000 C 
ATOM      5  C   UNL     1       4.500   3.791  16.331  0.00  0.00    +0.000 C 
ATOM      6  N   UNL     1       5.194   4.897  15.666  0.00  0.00    +0.000 N 
ATOM      7  C   UNL     1       5.957   4.726  14.536  0.00  0.00    +0.000 A 
ATOM      8  C   UNL     1       5.762   3.681  13.626  0.00  0.00    +0.000 A 
ATOM      9  N   UNL     1       6.548   3.443  12.544  0.00  0.00    +0.000 NA
ATOM     10  C   UNL     1       7.579   4.297  12.399  0.00  0.00    +0.000 A 
ATOM     11  C   UNL     1       7.790   5.346  13.274  0.00  0.00    +0.000 A 
ATOM     12  N   UNL     1       6.982   5.588  14.332  0.00  0.00    +0.000 NA
ATOM     13  C   UNL     1       4.834   6.258  16.080  0.00  0.00    +0.000 C 
ATOM     14  C   UNL     1       4.891   6.380  17.616  0.00  0.00    +0.000 C 
ENDROOT
BRANCH   1  18
ATOM     15  C   UNL     1       1.232   9.143  19.931  0.00  0.00    +0.000 A 
ATOM     16  C   UNL     1       1.797   8.847  18.682  0.00  0.00    +0.000 A 
ATOM     17  C   UNL     1       2.427   7.611  18.475  0.00  0.00    +0.000 A 
ATOM     18  C   UNL     1       2.476   6.663  19.505  0.00  0.00    +0.000 A 
ATOM     19  C   UNL     1       1.917   6.972  20.744  0.00  0.00    +0.000 A 
ATOM     20  C   UNL     1       1.256   8.179  20.940  0.00  0.00    +0.000 A 
BRANCH  15  26
ATOM     21  C   UNL     1      -1.392  10.337  18.617  0.00  0.00    +0.000 C 
ATOM     22  C   UNL     1      -0.433  11.021  19.527  0.00  0.00    +0.000 A 
ATOM     23  C   UNL     1      -0.472  12.321  19.993  0.00  0.00    +0.000 A 
ATOM     24  C   UNL     1       0.511  12.380  20.984  0.00  0.00    +0.000 A 
ATOM     25  N   UNL     1       1.144  11.219  21.147  0.00  0.00    +0.000 NA
ATOM     26  N   UNL     1       0.645  10.416  20.171  0.00  0.00    +0.000 N 
ENDBRANCH  15  26
ENDBRANCH   1  18
TORSDOF 2
ENDMDL
MODEL 3
REMARK VINA RESULT:      -7.8      1.192      8.848
REMARK  Name = 
REMARK  3 active torsions:
REMARK  status: ('A' for Active; 'I' for Inactive)
REMARK    1  A    between atoms: C_1  and  C_2
REMARK    2  A    between atoms: N_6  and  C_7
REMARK    3  A    between atoms: C_10  and  C_11
REMARK                            x       y       z     vdW  Elec       q    Type
REMARK                         _______ _______ _______ _____ _____    ______ ____
ROOT
ATOM      1  C   UNL     1       3.276   4.865  18.863  0.00  0.00    +0.000 C 
ATOM      2  O   UNL     1       3.372   3.944  19.669  0.00  0.00    +0.000 OA
ATOM      3  N   UNL     1       2.431   5.951  19.064  0.00  0.00    +0.000 N 
ATOM      4  C   UNL     1       1.822   6.137  20.382  0.00  0.00    +0.000 C 
ATOM      5  C   UNL     1       1.988   7.596  20.856  0.00  0.00    +0.000 C 
ATOM      6  N   UNL     1       1.502   8.516  19.824  0.00  0.00    +0.000 N 
ATOM      7  C   UNL     1       0.796   9.658  20.116  0.00  0.00    +0.000 A 
ATOM      8  C   UNL     1       0.899  10.335  21.337  0.00  0.00    +0.000 A 
ATOM      9  N   UNL     1       0.158  11.420  21.683  0.00  0.00    +0.000 NA
ATOM     10  C   UNL     1      -0.730  11.815  20.750  0.00  0.00    +0.000 A 
ATOM     11  C   UNL     1      -0.846  11.175  19.532  0.00  0.00    +0.000 A 
ATOM     12  N   UNL     1      -0.081  10.112  19.190  0.00  0.00    +0.000 NA
ATOM     13  C   UNL     1       2.024   8.334  18.465  0.00  0.00    +0.000 C 
ATOM     14  C   UNL     1       1.887   6.859  18.035  0.00  0.00    +0.000 C 
ENDROOT
BRANCH   1  18
ATOM     15  C   UNL     1       5.744   4.816  15.354  0.00  0.00    +0.000 A 
ATOM     16  C   UNL     1       5.374   6.038  15.935  0.00  0.00    +0.000 A 
ATOM     17  C   UNL     1       4.589   6.051  17.097  0.00  0.00    +0.000 A 
ATOM     18  C   UNL     1       4.192   4.847  17.693  0.00  0.00    +0.000 A 
ATOM     19  C   UNL     1       4.561   3.638  17.103  0.00  0.00    +0.000 A 
ATOM     20  C   UNL     1       5.372   3.622  15.975  0.00  0.00    +0.000 A 
BRANCH  15  26
ATOM     21  C   UNL     1       4.904   3.491  12.601  0.00  0.00    +0.000 C 
ATOM     22  C   UNL     1       6.207   4.118  12.953  0.00  0.00    +0.000 A 
ATOM     23  C   UNL     1       7.332   4.257  12.165  0.00  0.00    +0.000 A 
ATOM     24  C   UNL     1       8.174   5.113  12.881  0.00  0.00    +0.000 A 
ATOM     25  N   UNL     1       7.645   5.495  14.043  0.00  0.00    +0.000 NA
ATOM     26  N   UNL     1       6.487   4.792  14.142  0.00  0.00    +0.000 N 
ENDBRANCH  15  26
ENDBRANCH   1  18
TORSDOF 2
ENDMDL
MODEL 4
REMARK VINA RESULT:      -7.8      0.627      1.198
REMARK  Name = 
REMARK  3 active torsions:
REMARK  status: ('A' for Active; 'I' for Inactive)
REMARK    1  A    between atoms: C_1  and  C_2
REMARK    2  A    between atoms: N_6  and  C_7
REMARK    3  A    between atoms: C_10  and  C_11
REMARK                            x       y       z     vdW  Elec       q    Type
REMARK                         _______ _______ _______ _____ _____    ______ ____
ROOT
ATOM      1  C   UNL     1       3.175   5.938  19.190  0.00  0.00    +0.000 C 
ATOM      2  O   UNL     1       2.856   5.065  19.992  0.00  0.00    +0.000 OA
ATOM      3  N   UNL     1       4.089   5.715  18.166  0.00  0.00    +0.000 N 
ATOM      4  C   UNL     1       4.501   4.341  17.872  0.00  0.00    +0.000 C 
ATOM      5  C   UNL     1       4.419   4.063  16.357  0.00  0.00    +0.000 C 
ATOM      6  N   UNL     1       5.157   5.091  15.618  0.00  0.00    +0.000 N 
ATOM      7  C   UNL     1       5.927   4.809  14.516  0.00  0.00    +0.000 A 
ATOM      8  C   UNL     1       5.707   3.704  13.686  0.00  0.00    +0.000 A 
ATOM      9  N   UNL     1       6.497   3.358  12.636  0.00  0.00    +0.000 NA
ATOM     10  C   UNL     1       7.558   4.164  12.440  0.00  0.00    +0.000 A 
ATOM     11  C   UNL     1       7.794   5.269  13.235  0.00  0.00    +0.000 A 
ATOM     12  N   UNL     1       6.983   5.618  14.260  0.00  0.00    +0.000 NA
ATOM     13  C   UNL     1       4.839   6.491  15.922  0.00  0.00    +0.000 C 
ATOM     14  C   UNL     1       4.883   6.730  17.444  0.00  0.00    +0.000 C 
ENDROOT
BRANCH   1  18
ATOM     15  C   UNL     1       0.918   9.581  19.389  0.00  0.00    +0.000 A 
ATOM     16  C   UNL     1       1.123   8.818  20.548  0.00  0.00    +0.000 A 
ATOM     17  C   UNL     1       1.884   7.641  20.485  0.00  0.00    +0.000 A 
ATOM     18  C   UNL     1       2.458   7.236  19.273  0.00  0.00    +0.000 A 
ATOM     19  C   UNL     1       2.242   8.000  18.127  0.00  0.00    +0.000 A 
ATOM     20  C   UNL     1       1.523   9.188  18.194  0.00  0.00    +0.000 A 
BRANCH  15  26
ATOM     21  C   UNL     1       1.823  12.565  19.950  0.00  0.00    +0.000 C 
ATOM     22  C   UNL     1       0.437  12.045  19.790  0.00  0.00    +0.000 A 
ATOM     23  C   UNL     1      -0.752  12.743  19.854  0.00  0.00    +0.000 A 
ATOM     24  C   UNL     1      -1.725  11.844  19.404  0.00  0.00    +0.000 A 
ATOM     25  N   UNL     1      -1.213  10.657  19.081  0.00  0.00    +0.000 NA
ATOM     26  N   UNL     1       0.098  10.742  19.428  0.00  0.00    +0.000 N 
ENDBRANCH  15  26
ENDBRANCH   1  18
TORSDOF 2
ENDMDL
MODEL 5
REMARK VINA RESULT:      -7.4      0.806      1.470
REMARK  Name = 
REMARK  3 active torsions:
REMARK  status: ('A' for Active; 'I' for Inactive)
REMARK    1  A    between atoms: C_1  and  C_2
REMARK    2  A    between atoms: N_6  and  C_7
REMARK    3  A    between atoms: C_10  and  C_11
REMARK                            x       y       z     vdW  Elec       q    Type
REMARK                         _______ _______ _______ _____ _____    ______ ____
ROOT
ATOM      1  C   UNL     1       3.188   5.774  19.144  0.00  0.00    +0.000 C 
ATOM      2  O   UNL     1       2.905   4.883  19.940  0.00  0.00    +0.000 OA
ATOM      3  N   UNL     1       4.111   5.596  18.119  0.00  0.00    +0.000 N 
ATOM      4  C   UNL     1       4.580   4.242  17.817  0.00  0.00    +0.000 C 
ATOM      5  C   UNL     1       4.510   3.970  16.299  0.00  0.00    +0.000 C 
ATOM      6  N   UNL     1       5.205   5.033  15.568  0.00  0.00    +0.000 N 
ATOM      7  C   UNL     1       5.986   4.791  14.464  0.00  0.00    +0.000 A 
ATOM      8  C   UNL     1       5.813   3.682  13.627  0.00  0.00    +0.000 A 
ATOM      9  N   UNL     1       6.616   3.376  12.575  0.00  0.00    +0.000 NA
ATOM     10  C   UNL     1       7.642   4.227  12.385  0.00  0.00    +0.000 A 
ATOM     11  C   UNL     1       7.832   5.336  13.186  0.00  0.00    +0.000 A 
ATOM     12  N   UNL     1       7.007   5.645  14.214  0.00  0.00    +0.000 NA
ATOM     13  C   UNL     1       4.829   6.417  15.880  0.00  0.00    +0.000 C 
ATOM     14  C   UNL     1       4.862   6.647  17.404  0.00  0.00    +0.000 C 
ENDROOT
BRANCH   1  18
ATOM     15  C   UNL     1       1.152   9.538  19.443  0.00  0.00    +0.000 A 
ATOM     16  C   UNL     1       1.618   9.088  18.198  0.00  0.00    +0.000 A 
ATOM     17  C   UNL     1       2.260   7.845  18.099  0.00  0.00    +0.000 A 
ATOM     18  C   UNL     1       2.418   7.040  19.235  0.00  0.00    +0.000 A 
ATOM     19  C   UNL     1       1.956   7.501  20.467  0.00  0.00    +0.000 A 
ATOM     20  C   UNL     1       1.284   8.713  20.562  0.00  0.00    +0.000 A 
BRANCH  15  26
ATOM     21  C   UNL     1       2.297  12.305  18.409  0.00  0.00    +0.000 C 
ATOM     22  C   UNL     1       1.081  12.071  19.235  0.00  0.00    +0.000 A 
ATOM     23  C   UNL     1       0.192  13.001  19.734  0.00  0.00    +0.000 A 
ATOM     24  C   UNL     1      -0.879  12.251  20.228  0.00  0.00    +0.000 A 
ATOM     25  N   UNL     1      -0.701  10.940  20.069  0.00  0.00    +0.000 NA
ATOM     26  N   UNL     1       0.555  10.823  19.566  0.00  0.00    +0.000 N 
ENDBRANCH  15  26
ENDBRANCH   1  18
TORSDOF 2
ENDMDL
MODEL 6
REMARK VINA RESULT:      -7.4      3.557     10.706
REMARK  Name = 
REMARK  3 active torsions:
REMARK  status: ('A' for Active; 'I' for Inactive)
REMARK    1  A    between atoms: C_1  and  C_2
REMARK    2  A    between atoms: N_6  and  C_7
REMARK    3  A    between atoms: C_10  and  C_11
REMARK                            x       y       z     vdW  Elec       q    Type
REMARK                         _______ _______ _______ _____ _____    ______ ____
ROOT
ATOM      1  C   UNL     1      -0.618  10.938  18.829  0.00  0.00    +0.000 C 
ATOM      2  O   UNL     1      -1.354  10.926  17.847  0.00  0.00    +0.000 OA
ATOM      3  N   UNL     1      -0.778  11.843  19.873  0.00  0.00    +0.000 N 
ATOM      4  C   UNL     1      -2.003  12.643  19.934  0.00  0.00    +0.000 C 
ATOM      5  C   UNL     1      -2.609  12.600  21.352  0.00  0.00    +0.000 C 
ATOM      6  N   UNL     1      -1.593  12.965  22.343  0.00  0.00    +0.000 N 
ATOM      7  C   UNL     1      -1.867  13.747  23.438  0.00  0.00    +0.000 A 
ATOM      8  C   UNL     1      -3.139  13.847  24.014  0.00  0.00    +0.000 A 
ATOM      9  N   UNL     1      -3.456  14.670  25.048  0.00  0.00    +0.000 NA
ATOM     10  C   UNL     1      -2.437  15.427  25.496  0.00  0.00    +0.000 A 
ATOM     11  C   UNL     1      -1.168  15.342  24.957  0.00  0.00    +0.000 A 
ATOM     12  N   UNL     1      -0.860  14.497  23.946  0.00  0.00    +0.000 NA
ATOM     13  C   UNL     1      -0.315  12.246  22.287  0.00  0.00    +0.000 C 
ATOM     14  C   UNL     1       0.245  12.265  20.850  0.00  0.00    +0.000 C 
ENDROOT
BRANCH   1  18
ATOM     15  C   UNL     1       2.173   7.689  19.069  0.00  0.00    +0.000 A 
ATOM     16  C   UNL     1       1.982   8.363  17.853  0.00  0.00    +0.000 A 
ATOM     17  C   UNL     1       1.089   9.442  17.784  0.00  0.00    +0.000 A 
ATOM     18  C   UNL     1       0.402   9.863  18.930  0.00  0.00    +0.000 A 
ATOM     19  C   UNL     1       0.596   9.182  20.131  0.00  0.00    +0.000 A 
ATOM     20  C   UNL     1       1.510   8.139  20.212  0.00  0.00    +0.000 A 
BRANCH  15  26
ATOM     21  C   UNL     1       1.632   4.948  20.563  0.00  0.00    +0.000 C 
ATOM     22  C   UNL     1       2.880   5.386  19.880  0.00  0.00    +0.000 A 
ATOM     23  C   UNL     1       4.071   4.701  19.752  0.00  0.00    +0.000 A 
ATOM     24  C   UNL     1       4.821   5.444  18.835  0.00  0.00    +0.000 A 
ATOM     25  N   UNL     1       4.174   6.527  18.407  0.00  0.00    +0.000 NA
ATOM     26  N   UNL     1       3.029   6.556  19.137  0.00  0.00    +0.000 N 
ENDBRANCH  15  26
ENDBRANCH   1  18
TORSDOF 2
ENDMDL
MODEL 7
REMARK VINA RESULT:      -7.3      1.679      9.043
REMARK  Name = 
REMARK  3 active torsions:
REMARK  status: ('A' for Active; 'I' for Inactive)
REMARK    1  A    between atoms: C_1  and  C_2
REMARK    2  A    between atoms: N_6  and  C_7
REMARK    3  A    between atoms: C_10  and  C_11
REMARK                            x       y       z     vdW  Elec       q    Type
REMARK                         _______ _______ _______ _____ _____    ______ ____
ROOT
ATOM      1  C   UNL     1       1.734   7.380  19.834  0.00  0.00    +0.000 C 
ATOM      2  O   UNL     1       1.532   6.711  20.843  0.00  0.00    +0.000 OA
ATOM      3  N   UNL     1       1.262   8.680  19.692  0.00  0.00    +0.000 N 
ATOM      4  C   UNL     1       0.724   9.370  20.866  0.00  0.00    +0.000 C 
ATOM      5  C   UNL     1       1.327  10.785  20.988  0.00  0.00    +0.000 C 
ATOM      6  N   UNL     1       1.160  11.511  19.726  0.00  0.00    +0.000 N 
ATOM      7  C   UNL     1       0.836  12.845  19.670  0.00  0.00    +0.000 A 
ATOM      8  C   UNL     1       1.128  13.751  20.695  0.00  0.00    +0.000 A 
ATOM      9  N   UNL     1       0.754  15.057  20.702  0.00  0.00    +0.000 NA
ATOM     10  C   UNL     1       0.041  15.443  19.626  0.00  0.00    +0.000 A 
ATOM     11  C   UNL     1      -0.252  14.575  18.592  0.00  0.00    +0.000 A 
ATOM     12  N   UNL     1       0.153  13.283  18.586  0.00  0.00    +0.000 NA
ATOM     13  C   UNL     1       1.615  10.840  18.502  0.00  0.00    +0.000 C 
ATOM     14  C   UNL     1       1.036   9.413  18.430  0.00  0.00    +0.000 C 
ENDROOT
BRANCH   1  18
ATOM     15  C   UNL     1       4.422   5.648  16.974  0.00  0.00    +0.000 A 
ATOM     16  C   UNL     1       3.504   4.836  17.656  0.00  0.00    +0.000 A 
ATOM     17  C   UNL     1       2.608   5.409  18.571  0.00  0.00    +0.000 A 
ATOM     18  C   UNL     1       2.612   6.793  18.790  0.00  0.00    +0.000 A 
ATOM     19  C   UNL     1       3.534   7.589  18.111  0.00  0.00    +0.000 A 
ATOM     20  C   UNL     1       4.395   7.030  17.174  0.00  0.00    +0.000 A 
BRANCH  15  26
ATOM     21  C   UNL     1       7.412   4.829  17.629  0.00  0.00    +0.000 C 
ATOM     22  C   UNL     1       6.728   4.811  16.307  0.00  0.00    +0.000 A 
ATOM     23  C   UNL     1       7.243   4.441  15.081  0.00  0.00    +0.000 A 
ATOM     24  C   UNL     1       6.139   4.380  14.227  0.00  0.00    +0.000 A 
ATOM     25  N   UNL     1       4.999   4.692  14.842  0.00  0.00    +0.000 NA
ATOM     26  N   UNL     1       5.375   5.071  16.091  0.00  0.00    +0.000 N 
ENDBRANCH  15  26
ENDBRANCH   1  18
TORSDOF 2
ENDMDL
MODEL 8
REMARK VINA RESULT:      -7.3      3.634      9.637
REMARK  Name = 
REMARK  3 active torsions:
REMARK  status: ('A' for Active; 'I' for Inactive)
REMARK    1  A    between atoms: C_1  and  C_2
REMARK    2  A    between atoms: N_6  and  C_7
REMARK    3  A    between atoms: C_10  and  C_11
REMARK                            x       y       z     vdW  Elec       q    Type
REMARK                         _______ _______ _______ _____ _____    ______ ____
ROOT
ATOM      1  C   UNL     1       1.045  10.560  18.783  0.00  0.00    +0.000 C 
ATOM      2  O   UNL     1       1.890  11.415  18.532  0.00  0.00    +0.000 OA
ATOM      3  N   UNL     1      -0.313  10.849  18.856  0.00  0.00    +0.000 N 
ATOM      4  C   UNL     1      -0.786  12.150  18.379  0.00  0.00    +0.000 C 
ATOM      5  C   UNL     1      -2.006  11.976  17.450  0.00  0.00    +0.000 C 
ATOM      6  N   UNL     1      -3.028  11.162  18.113  0.00  0.00    +0.000 N 
ATOM      7  C   UNL     1      -4.372  11.427  18.014  0.00  0.00    +0.000 A 
ATOM      8  C   UNL     1      -4.945  12.108  16.933  0.00  0.00    +0.000 A 
ATOM      9  N   UNL     1      -6.256  12.451  16.844  0.00  0.00    +0.000 NA
ATOM     10  C   UNL     1      -7.003  12.098  17.907  0.00  0.00    +0.000 A 
ATOM     11  C   UNL     1      -6.470  11.414  18.982  0.00  0.00    +0.000 A 
ATOM     12  N   UNL     1      -5.167  11.054  19.045  0.00  0.00    +0.000 NA
ATOM     13  C   UNL     1      -2.599   9.877  18.676  0.00  0.00    +0.000 C 
ATOM     14  C   UNL     1      -1.352  10.073  19.562  0.00  0.00    +0.000 C 
ENDROOT
BRANCH   1  18
ATOM     15  C   UNL     1       2.589   6.575  19.158  0.00  0.00    +0.000 A 
ATOM     16  C   UNL     1       2.057   7.231  20.279  0.00  0.00    +0.000 A 
ATOM     17  C   UNL     1       1.528   8.523  20.148  0.00  0.00    +0.000 A 
ATOM     18  C   UNL     1       1.511   9.154  18.897  0.00  0.00    +0.000 A 
ATOM     19  C   UNL     1       2.048   8.495  17.792  0.00  0.00    +0.000 A 
ATOM     20  C   UNL     1       2.535   7.199  17.910  0.00  0.00    +0.000 A 
BRANCH  15  26
ATOM     21  C   UNL     1       1.163   3.864  19.968  0.00  0.00    +0.000 C 
ATOM     22  C   UNL     1       2.617   4.105  19.761  0.00  0.00    +0.000 A 
ATOM     23  C   UNL     1       3.660   3.208  19.879  0.00  0.00    +0.000 A 
ATOM     24  C   UNL     1       4.772   3.873  19.354  0.00  0.00    +0.000 A 
ATOM     25  N   UNL     1       4.480   5.103  18.934  0.00  0.00    +0.000 NA
ATOM     26  N   UNL     1       3.183   5.290  19.291  0.00  0.00    +0.000 N 
ENDBRANCH  15  26
ENDBRANCH   1  18
TORSDOF 2
ENDMDL
MODEL 9
REMARK VINA RESULT:      -7.3      3.614      9.672
REMARK  Name = 
REMARK  3 active torsions:
REMARK  status: ('A' for Active; 'I' for Inactive)
REMARK    1  A    between atoms: C_1  and  C_2
REMARK    2  A    between atoms: N_6  and  C_7
REMARK    3  A    between atoms: C_10  and  C_11
REMARK                            x       y       z     vdW  Elec       q    Type
REMARK                         _______ _______ _______ _____ _____    ______ ____
ROOT
ATOM      1  C   UNL     1       0.016  10.780  18.921  0.00  0.00    +0.000 C 
ATOM      2  O   UNL     1      -1.187  10.580  18.786  0.00  0.00    +0.000 OA
ATOM      3  N   UNL     1       0.549  12.054  19.078  0.00  0.00    +0.000 N 
ATOM      4  C   UNL     1      -0.357  13.172  19.342  0.00  0.00    +0.000 C 
ATOM      5  C   UNL     1       0.155  14.019  20.526  0.00  0.00    +0.000 C 
ATOM      6  N   UNL     1       1.550  14.407  20.298  0.00  0.00    +0.000 N 
ATOM      7  C   UNL     1       2.042  15.648  20.622  0.00  0.00    +0.000 A 
ATOM      8  C   UNL     1       1.488  16.459  21.619  0.00  0.00    +0.000 A 
ATOM      9  N   UNL     1       1.903  17.719  21.909  0.00  0.00    +0.000 NA
ATOM     10  C   UNL     1       2.911  18.170  21.138  0.00  0.00    +0.000 A 
ATOM     11  C   UNL     1       3.486  17.389  20.154  0.00  0.00    +0.000 A 
ATOM     12  N   UNL     1       3.081  16.124  19.896  0.00  0.00    +0.000 NA
ATOM     13  C   UNL     1       2.495  13.337  19.958  0.00  0.00    +0.000 C 
ATOM     14  C   UNL     1       1.937  12.479  18.804  0.00  0.00    +0.000 C 
ENDROOT
BRANCH   1  18
ATOM     15  C   UNL     1       2.390   7.216  19.186  0.00  0.00    +0.000 A 
ATOM     16  C   UNL     1       2.246   7.874  17.955  0.00  0.00    +0.000 A 
ATOM     17  C   UNL     1       1.491   9.054  17.877  0.00  0.00    +0.000 A 
ATOM     18  C   UNL     1       0.898   9.589  19.028  0.00  0.00    +0.000 A 
ATOM     19  C   UNL     1       1.044   8.923  20.244  0.00  0.00    +0.000 A 
ATOM     20  C   UNL     1       1.824   7.777  20.332  0.00  0.00    +0.000 A 
BRANCH  15  26
ATOM     21  C   UNL     1       1.284   4.405  20.143  0.00  0.00    +0.000 C 
ATOM     22  C   UNL     1       2.685   4.765  19.793  0.00  0.00    +0.000 A 
ATOM     23  C   UNL     1       3.807   3.960  19.813  0.00  0.00    +0.000 A 
ATOM     24  C   UNL     1       4.803   4.709  19.179  0.00  0.00    +0.000 A 
ATOM     25  N   UNL     1       4.369   5.905  18.785  0.00  0.00    +0.000 NA
ATOM     26  N   UNL     1       3.101   5.987  19.266  0.00  0.00    +0.000 N 
ENDBRANCH  15  26
ENDBRANCH   1  18
TORSDOF 2
ENDMDL
