MODEL 1
REMARK VINA RESULT:      -9.5      0.000      0.000
REMARK  Name = 
REMARK  11 active torsions:
REMARK  status: ('A' for Active; 'I' for Inactive)
REMARK    1  A    between atoms: C_1  and  C_2
REMARK    2  A    between atoms: C_2  and  N_3
REMARK    3  A    between atoms: C_2  and  C_17
REMARK    4  A    between atoms: C_4  and  C_6
REMARK    5  A    between atoms: C_6  and  C_7
REMARK    6  A    between atoms: C_6  and  C_8
REMARK    7  A    between atoms: C_6  and  O_9
REMARK    8  A    between atoms: O_9  and  C_10
REMARK    9  A    between atoms: C_17  and  C_18
REMARK   10  A    between atoms: C_17  and  C_26
REMARK   11  A    between atoms: C_18  and  C_19
REMARK                            x       y       z     vdW  Elec       q    Type
REMARK                         _______ _______ _______ _____ _____    ______ ____
ROOT
ATOM      1  C   UNL     1       3.090   3.462  16.992  0.00  0.00    +0.000 C 
ATOM      2  C   UNL     1       3.318   4.965  17.167  0.00  0.00    +0.000 C 
ENDROOT
BRANCH   2   3
ATOM      3  N   UNL     1       4.740   5.222  17.394  0.00  0.00    +0.000 N 
ATOM      4  C   UNL     1       5.504   6.103  16.647  0.00  0.00    +0.000 C 
ATOM      5  O   UNL     1       4.996   6.809  15.773  0.00  0.00    +0.000 OA
ATOM      6  H   UNL     1       5.213   4.538  17.956  0.00  0.00    +0.000 HD
BRANCH   4   7
ATOM      7  C   UNL     1       7.047   6.136  16.961  0.00  0.00    +0.000 C 
ATOM      8  C   UNL     1       7.456   7.528  17.483  0.00  0.00    +0.000 C 
ATOM      9  C   UNL     1       7.256   5.002  17.981  0.00  0.00    +0.000 C 
BRANCH   7  10
ATOM     10  O   UNL     1       7.689   5.832  15.705  0.00  0.00    +0.000 OA
BRANCH  10  11
ATOM     11  C   UNL     1       7.128   5.003  14.773  0.00  0.00    +0.000 A 
ATOM     12  C   UNL     1       6.254   3.945  15.009  0.00  0.00    +0.000 A 
ATOM     13  C   UNL     1       5.827   3.118  13.974  0.00  0.00    +0.000 A 
ATOM     14  C   UNL     1       6.240   3.364  12.673  0.00  0.00    +0.000 A 
ATOM     15 CL   UNL     1       5.721   2.322  11.410  0.00  0.00    +0.000 Cl
ATOM     16  C   UNL     1       7.072   4.447  12.401  0.00  0.00    +0.000 A 
ATOM     17  C   UNL     1       7.517   5.261  13.450  0.00  0.00    +0.000 A 
ENDBRANCH  10  11
ENDBRANCH   7  10
ENDBRANCH   4   7
ENDBRANCH   2   3
BRANCH   2  18
ATOM     18  C   UNL     1       2.437   5.635  18.290  0.00  0.00    +0.000 C 
BRANCH  18  19
ATOM     19  C   UNL     1       2.099   4.645  19.409  0.00  0.00    +0.000 A 
ATOM     20  C   UNL     1       2.744   4.639  20.656  0.00  0.00    +0.000 A 
ATOM     21  C   UNL     1       2.387   3.728  21.654  0.00  0.00    +0.000 A 
ATOM     22  C   UNL     1       1.390   2.786  21.417  0.00  0.00    +0.000 A 
ATOM     23  C   UNL     1       0.738   2.768  20.190  0.00  0.00    +0.000 A 
ATOM     24  C   UNL     1       1.073   3.700  19.207  0.00  0.00    +0.000 A 
ENDBRANCH  18  19
BRANCH  18  25
ATOM     25  C   UNL     1       3.020   7.004  18.775  0.00  0.00    +0.000 C 
BRANCH  25  26
ATOM     26  C   UNL     1       2.055   8.139  19.101  0.00  0.00    +0.000 A 
ATOM     27  C   UNL     1       1.584   8.952  18.053  0.00  0.00    +0.000 A 
ATOM     28  C   UNL     1       0.591   9.913  18.276  0.00  0.00    +0.000 A 
ATOM     29  C   UNL     1       0.058  10.071  19.551  0.00  0.00    +0.000 A 
ATOM     30 CL   UNL     1      -1.214  11.199  19.816  0.00  0.00    +0.000 Cl
ATOM     31  C   UNL     1       0.530   9.300  20.607  0.00  0.00    +0.000 A 
ATOM     32  C   UNL     1       1.521   8.337  20.383  0.00  0.00    +0.000 A 
ENDBRANCH  25  26
ENDBRANCH  18  25
ENDBRANCH   2  18
TORSDOF 8
ENDMDL
MODEL 2
REMARK VINA RESULT:      -9.3      0.731      1.437
REMARK  Name = 
REMARK  11 active torsions:
REMARK  status: ('A' for Active; 'I' for Inactive)
REMARK    1  A    between atoms: C_1  and  C_2
REMARK    2  A    between atoms: C_2  and  N_3
REMARK    3  A    between atoms: C_2  and  C_17
REMARK    4  A    between atoms: C_4  and  C_6
REMARK    5  A    between atoms: C_6  and  C_7
REMARK    6  A    between atoms: C_6  and  C_8
REMARK    7  A    between atoms: C_6  and  O_9
REMARK    8  A    between atoms: O_9  and  C_10
REMARK    9  A    between atoms: C_17  and  C_18
REMARK   10  A    between atoms: C_17  and  C_26
REMARK   11  A    between atoms: C_18  and  C_19
REMARK                            x       y       z     vdW  Elec       q    Type
REMARK                         _______ _______ _______ _____ _____    ______ ____
ROOT
ATOM      1  C   UNL     1       3.093   3.596  17.181  0.00  0.00    +0.000 C 
ATOM      2  C   UNL     1       3.318   5.073  17.515  0.00  0.00    +0.000 C 
ENDROOT
BRANCH   2   3
ATOM      3  N   UNL     1       4.717   5.283  17.887  0.00  0.00    +0.000 N 
ATOM      4  C   UNL     1       5.579   6.146  17.230  0.00  0.00    +0.000 C 
ATOM      5  O   UNL     1       5.183   6.873  16.317  0.00  0.00    +0.000 OA
ATOM      6  H   UNL     1       5.110   4.580  18.487  0.00  0.00    +0.000 HD
BRANCH   4   7
ATOM      7  C   UNL     1       7.083   6.128  17.698  0.00  0.00    +0.000 C 
ATOM      8  C   UNL     1       7.734   7.504  17.457  0.00  0.00    +0.000 C 
ATOM      9  C   UNL     1       7.019   5.721  19.181  0.00  0.00    +0.000 C 
BRANCH   7  10
ATOM     10  O   UNL     1       7.708   5.100  16.902  0.00  0.00    +0.000 OA
BRANCH  10  11
ATOM     11  C   UNL     1       7.230   4.725  15.677  0.00  0.00    +0.000 A 
ATOM     12  C   UNL     1       7.548   5.288  14.443  0.00  0.00    +0.000 A 
ATOM     13  C   UNL     1       6.916   4.870  13.275  0.00  0.00    +0.000 A 
ATOM     14  C   UNL     1       5.982   3.846  13.319  0.00  0.00    +0.000 A 
ATOM     15 CL   UNL     1       5.197   3.356  11.873  0.00  0.00    +0.000 Cl
ATOM     16  C   UNL     1       5.685   3.228  14.531  0.00  0.00    +0.000 A 
ATOM     17  C   UNL     1       6.305   3.670  15.706  0.00  0.00    +0.000 A 
ENDBRANCH  10  11
ENDBRANCH   7  10
ENDBRANCH   4   7
ENDBRANCH   2   3
BRANCH   2  18
ATOM     18  C   UNL     1       2.349   5.649  18.617  0.00  0.00    +0.000 C 
BRANCH  18  19
ATOM     19  C   UNL     1       2.014   4.600  19.681  0.00  0.00    +0.000 A 
ATOM     20  C   UNL     1       2.730   4.462  20.882  0.00  0.00    +0.000 A 
ATOM     21  C   UNL     1       2.373   3.502  21.833  0.00  0.00    +0.000 A 
ATOM     22  C   UNL     1       1.307   2.641  21.592  0.00  0.00    +0.000 A 
ATOM     23  C   UNL     1       0.585   2.753  20.410  0.00  0.00    +0.000 A 
ATOM     24  C   UNL     1       0.920   3.735  19.477  0.00  0.00    +0.000 A 
ENDBRANCH  18  19
BRANCH  18  25
ATOM     25  C   UNL     1       2.830   7.029  19.179  0.00  0.00    +0.000 C 
BRANCH  25  26
ATOM     26  C   UNL     1       1.784   8.056  19.600  0.00  0.00    +0.000 A 
ATOM     27  C   UNL     1       1.296   8.027  20.920  0.00  0.00    +0.000 A 
ATOM     28  C   UNL     1       0.445   9.030  21.397  0.00  0.00    +0.000 A 
ATOM     29  C   UNL     1       0.072  10.075  20.557  0.00  0.00    +0.000 A 
ATOM     30 CL   UNL     1      -0.914  11.350  21.157  0.00  0.00    +0.000 Cl
ATOM     31  C   UNL     1       0.517  10.106  19.240  0.00  0.00    +0.000 A 
ATOM     32  C   UNL     1       1.371   9.104  18.765  0.00  0.00    +0.000 A 
ENDBRANCH  25  26
ENDBRANCH  18  25
ENDBRANCH   2  18
TORSDOF 8
ENDMDL
MODEL 3
REMARK VINA RESULT:      -9.0      2.852      5.425
REMARK  Name = 
REMARK  11 active torsions:
REMARK  status: ('A' for Active; 'I' for Inactive)
REMARK    1  A    between atoms: C_1  and  C_2
REMARK    2  A    between atoms: C_2  and  N_3
REMARK    3  A    between atoms: C_2  and  C_17
REMARK    4  A    between atoms: C_4  and  C_6
REMARK    5  A    between atoms: C_6  and  C_7
REMARK    6  A    between atoms: C_6  and  C_8
REMARK    7  A    between atoms: C_6  and  O_9
REMARK    8  A    between atoms: O_9  and  C_10
REMARK    9  A    between atoms: C_17  and  C_18
REMARK   10  A    between atoms: C_17  and  C_26
REMARK   11  A    between atoms: C_18  and  C_19
REMARK                            x       y       z     vdW  Elec       q    Type
REMARK                         _______ _______ _______ _____ _____    ______ ____
ROOT
ATOM      1  C   UNL     1       2.379  10.138  17.812  0.00  0.00    +0.000 C 
ATOM      2  C   UNL     1       1.740   9.316  18.933  0.00  0.00    +0.000 C 
ENDROOT
BRANCH   2   3
ATOM      3  N   UNL     1       2.025   7.897  18.723  0.00  0.00    +0.000 N 
ATOM      4  C   UNL     1       2.241   6.984  19.742  0.00  0.00    +0.000 C 
ATOM      5  O   UNL     1       2.119   7.305  20.925  0.00  0.00    +0.000 OA
ATOM      6  H   UNL     1       2.315   7.652  17.793  0.00  0.00    +0.000 HD
BRANCH   4   7
ATOM      7  C   UNL     1       2.667   5.531  19.305  0.00  0.00    +0.000 C 
ATOM      8  C   UNL     1       2.346   4.521  20.425  0.00  0.00    +0.000 C 
ATOM      9  C   UNL     1       1.893   5.280  17.999  0.00  0.00    +0.000 C 
BRANCH   7  10
ATOM     10  O   UNL     1       4.087   5.618  19.062  0.00  0.00    +0.000 OA
BRANCH  10  11
ATOM     11  C   UNL     1       4.636   5.411  17.827  0.00  0.00    +0.000 A 
ATOM     12  C   UNL     1       4.864   6.367  16.839  0.00  0.00    +0.000 A 
ATOM     13  C   UNL     1       5.347   6.006  15.584  0.00  0.00    +0.000 A 
ATOM     14  C   UNL     1       5.649   4.681  15.311  0.00  0.00    +0.000 A 
ATOM     15 CL   UNL     1       6.224   4.249  13.752  0.00  0.00    +0.000 Cl
ATOM     16  C   UNL     1       5.481   3.712  16.297  0.00  0.00    +0.000 A 
ATOM     17  C   UNL     1       4.972   4.078  17.549  0.00  0.00    +0.000 A 
ENDBRANCH  10  11
ENDBRANCH   7  10
ENDBRANCH   4   7
ENDBRANCH   2   3
BRANCH   2  18
ATOM     18  C   UNL     1       0.194   9.559  19.123  0.00  0.00    +0.000 C 
BRANCH  18  19
ATOM     19  C   UNL     1      -0.152   9.888  20.578  0.00  0.00    +0.000 A 
ATOM     20  C   UNL     1      -0.432   8.908  21.545  0.00  0.00    +0.000 A 
ATOM     21  C   UNL     1      -0.723   9.256  22.867  0.00  0.00    +0.000 A 
ATOM     22  C   UNL     1      -0.766  10.595  23.245  0.00  0.00    +0.000 A 
ATOM     23  C   UNL     1      -0.497  11.584  22.307  0.00  0.00    +0.000 A 
ATOM     24  C   UNL     1      -0.172  11.234  20.996  0.00  0.00    +0.000 A 
ENDBRANCH  18  19
BRANCH  18  25
ATOM     25  C   UNL     1      -0.393  10.552  18.065  0.00  0.00    +0.000 C 
BRANCH  25  26
ATOM     26  C   UNL     1      -1.904  10.748  18.000  0.00  0.00    +0.000 A 
ATOM     27  C   UNL     1      -2.691   9.759  17.380  0.00  0.00    +0.000 A 
ATOM     28  C   UNL     1      -4.088   9.819  17.417  0.00  0.00    +0.000 A 
ATOM     29  C   UNL     1      -4.715  10.871  18.078  0.00  0.00    +0.000 A 
ATOM     30 CL   UNL     1      -6.431  10.913  18.192  0.00  0.00    +0.000 Cl
ATOM     31  C   UNL     1      -3.958  11.875  18.671  0.00  0.00    +0.000 A 
ATOM     32  C   UNL     1      -2.560  11.811  18.636  0.00  0.00    +0.000 A 
ENDBRANCH  25  26
ENDBRANCH  18  25
ENDBRANCH   2  18
TORSDOF 8
ENDMDL
MODEL 4
REMARK VINA RESULT:      -8.8      0.554      1.528
REMARK  Name = 
REMARK  11 active torsions:
REMARK  status: ('A' for Active; 'I' for Inactive)
REMARK    1  A    between atoms: C_1  and  C_2
REMARK    2  A    between atoms: C_2  and  N_3
REMARK    3  A    between atoms: C_2  and  C_17
REMARK    4  A    between atoms: C_4  and  C_6
REMARK    5  A    between atoms: C_6  and  C_7
REMARK    6  A    between atoms: C_6  and  C_8
REMARK    7  A    between atoms: C_6  and  O_9
REMARK    8  A    between atoms: O_9  and  C_10
REMARK    9  A    between atoms: C_17  and  C_18
REMARK   10  A    between atoms: C_17  and  C_26
REMARK   11  A    between atoms: C_18  and  C_19
REMARK                            x       y       z     vdW  Elec       q    Type
REMARK                         _______ _______ _______ _____ _____    ______ ____
ROOT
ATOM      1  C   UNL     1       3.061   3.172  16.964  0.00  0.00    +0.000 C 
ATOM      2  C   UNL     1       3.322   4.668  17.159  0.00  0.00    +0.000 C 
ENDROOT
BRANCH   2   3
ATOM      3  N   UNL     1       4.759   4.900  17.298  0.00  0.00    +0.000 N 
ATOM      4  C   UNL     1       5.463   5.877  16.614  0.00  0.00    +0.000 C 
ATOM      5  O   UNL     1       4.887   6.690  15.889  0.00  0.00    +0.000 OA
ATOM      6  H   UNL     1       5.274   4.150  17.723  0.00  0.00    +0.000 HD
BRANCH   4   7
ATOM      7  C   UNL     1       7.027   5.877  16.800  0.00  0.00    +0.000 C 
ATOM      8  C   UNL     1       7.461   7.067  17.678  0.00  0.00    +0.000 C 
ATOM      9  C   UNL     1       7.341   4.501  17.416  0.00  0.00    +0.000 C 
BRANCH   7  10
ATOM     10  O   UNL     1       7.560   5.983  15.463  0.00  0.00    +0.000 OA
BRANCH  10  11
ATOM     11  C   UNL     1       7.219   5.115  14.463  0.00  0.00    +0.000 A 
ATOM     12  C   UNL     1       7.641   5.154  13.137  0.00  0.00    +0.000 A 
ATOM     13  C   UNL     1       7.143   4.259  12.194  0.00  0.00    +0.000 A 
ATOM     14  C   UNL     1       6.240   3.279  12.576  0.00  0.00    +0.000 A 
ATOM     15 CL   UNL     1       5.619   2.196  11.398  0.00  0.00    +0.000 Cl
ATOM     16  C   UNL     1       5.841   3.183  13.907  0.00  0.00    +0.000 A 
ATOM     17  C   UNL     1       6.327   4.101  14.845  0.00  0.00    +0.000 A 
ENDBRANCH  10  11
ENDBRANCH   7  10
ENDBRANCH   4   7
ENDBRANCH   2   3
BRANCH   2  18
ATOM     18  C   UNL     1       2.527   5.320  18.354  0.00  0.00    +0.000 C 
BRANCH  18  19
ATOM     19  C   UNL     1       2.276   4.316  19.483  0.00  0.00    +0.000 A 
ATOM     20  C   UNL     1       0.994   3.904  19.878  0.00  0.00    +0.000 A 
ATOM     21  C   UNL     1       0.816   2.968  20.901  0.00  0.00    +0.000 A 
ATOM     22  C   UNL     1       1.918   2.443  21.569  0.00  0.00    +0.000 A 
ATOM     23  C   UNL     1       3.198   2.837  21.200  0.00  0.00    +0.000 A 
ATOM     24  C   UNL     1       3.375   3.745  20.155  0.00  0.00    +0.000 A 
ENDBRANCH  18  19
BRANCH  18  25
ATOM     25  C   UNL     1       3.140   6.686  18.810  0.00  0.00    +0.000 C 
BRANCH  25  26
ATOM     26  C   UNL     1       2.208   7.872  19.037  0.00  0.00    +0.000 A 
ATOM     27  C   UNL     1       1.648   8.061  20.315  0.00  0.00    +0.000 A 
ATOM     28  C   UNL     1       0.903   9.207  20.613  0.00  0.00    +0.000 A 
ATOM     29  C   UNL     1       0.709  10.178  19.636  0.00  0.00    +0.000 A 
ATOM     30 CL   UNL     1      -0.144  11.623  20.017  0.00  0.00    +0.000 Cl
ATOM     31  C   UNL     1       1.227   9.997  18.358  0.00  0.00    +0.000 A 
ATOM     32  C   UNL     1       1.975   8.852  18.061  0.00  0.00    +0.000 A 
ENDBRANCH  25  26
ENDBRANCH  18  25
ENDBRANCH   2  18
TORSDOF 8
ENDMDL
MODEL 5
REMARK VINA RESULT:      -8.8      0.999      1.327
REMARK  Name = 
REMARK  11 active torsions:
REMARK  status: ('A' for Active; 'I' for Inactive)
REMARK    1  A    between atoms: C_1  and  C_2
REMARK    2  A    between atoms: C_2  and  N_3
REMARK    3  A    between atoms: C_2  and  C_17
REMARK    4  A    between atoms: C_4  and  C_6
REMARK    5  A    between atoms: C_6  and  C_7
REMARK    6  A    between atoms: C_6  and  C_8
REMARK    7  A    between atoms: C_6  and  O_9
REMARK    8  A    between atoms: O_9  and  C_10
REMARK    9  A    between atoms: C_17  and  C_18
REMARK   10  A    between atoms: C_17  and  C_26
REMARK   11  A    between atoms: C_18  and  C_19
REMARK                            x       y       z     vdW  Elec       q    Type
REMARK                         _______ _______ _______ _____ _____    ______ ____
ROOT
ATOM      1  C   UNL     1       3.389   3.147  17.473  0.00  0.00    +0.000 C 
ATOM      2  C   UNL     1       3.266   4.658  17.263  0.00  0.00    +0.000 C 
ENDROOT
BRANCH   2   3
ATOM      3  N   UNL     1       4.599   5.244  17.134  0.00  0.00    +0.000 N 
ATOM      4  C   UNL     1       5.670   4.941  17.958  0.00  0.00    +0.000 C 
ATOM      5  O   UNL     1       5.583   4.069  18.824  0.00  0.00    +0.000 OA
ATOM      6  H   UNL     1       4.647   6.078  16.577  0.00  0.00    +0.000 HD
BRANCH   4   7
ATOM      7  C   UNL     1       6.985   5.782  17.741  0.00  0.00    +0.000 C 
ATOM      8  C   UNL     1       6.639   7.183  17.199  0.00  0.00    +0.000 C 
ATOM      9  C   UNL     1       7.663   5.798  19.123  0.00  0.00    +0.000 C 
BRANCH   7  10
ATOM     10  O   UNL     1       7.759   5.022  16.790  0.00  0.00    +0.000 OA
BRANCH  10  11
ATOM     11  C   UNL     1       7.276   4.673  15.559  0.00  0.00    +0.000 A 
ATOM     12  C   UNL     1       7.547   5.295  14.343  0.00  0.00    +0.000 A 
ATOM     13  C   UNL     1       6.913   4.894  13.170  0.00  0.00    +0.000 A 
ATOM     14  C   UNL     1       6.025   3.831  13.190  0.00  0.00    +0.000 A 
ATOM     15 CL   UNL     1       5.236   3.361  11.739  0.00  0.00    +0.000 Cl
ATOM     16  C   UNL     1       5.775   3.155  14.382  0.00  0.00    +0.000 A 
ATOM     17  C   UNL     1       6.396   3.579  15.562  0.00  0.00    +0.000 A 
ENDBRANCH  10  11
ENDBRANCH   7  10
ENDBRANCH   4   7
ENDBRANCH   2   3
BRANCH   2  18
ATOM     18  C   UNL     1       2.425   5.405  18.368  0.00  0.00    +0.000 C 
BRANCH  18  19
ATOM     19  C   UNL     1       2.060   4.475  19.528  0.00  0.00    +0.000 A 
ATOM     20  C   UNL     1       2.711   4.502  20.772  0.00  0.00    +0.000 A 
ATOM     21  C   UNL     1       2.329   3.646  21.809  0.00  0.00    +0.000 A 
ATOM     22  C   UNL     1       1.302   2.726  21.615  0.00  0.00    +0.000 A 
ATOM     23  C   UNL     1       0.645   2.676  20.392  0.00  0.00    +0.000 A 
ATOM     24  C   UNL     1       1.005   3.555  19.369  0.00  0.00    +0.000 A 
ENDBRANCH  18  19
BRANCH  18  25
ATOM     25  C   UNL     1       3.067   6.769  18.792  0.00  0.00    +0.000 C 
BRANCH  25  26
ATOM     26  C   UNL     1       2.150   7.950  19.094  0.00  0.00    +0.000 A 
ATOM     27  C   UNL     1       1.736   8.776  18.033  0.00  0.00    +0.000 A 
ATOM     28  C   UNL     1       0.786   9.784  18.231  0.00  0.00    +0.000 A 
ATOM     29  C   UNL     1       0.238   9.976  19.496  0.00  0.00    +0.000 A 
ATOM     30 CL   UNL     1      -0.984  11.163  19.732  0.00  0.00    +0.000 Cl
ATOM     31  C   UNL     1       0.655   9.190  20.565  0.00  0.00    +0.000 A 
ATOM     32  C   UNL     1       1.603   8.180  20.364  0.00  0.00    +0.000 A 
ENDBRANCH  25  26
ENDBRANCH  18  25
ENDBRANCH   2  18
TORSDOF 8
ENDMDL
MODEL 6
REMARK VINA RESULT:      -8.5      3.031      9.104
REMARK  Name = 
REMARK  11 active torsions:
REMARK  status: ('A' for Active; 'I' for Inactive)
REMARK    1  A    between atoms: C_1  and  C_2
REMARK    2  A    between atoms: C_2  and  N_3
REMARK    3  A    between atoms: C_2  and  C_17
REMARK    4  A    between atoms: C_4  and  C_6
REMARK    5  A    between atoms: C_6  and  C_7
REMARK    6  A    between atoms: C_6  and  C_8
REMARK    7  A    between atoms: C_6  and  O_9
REMARK    8  A    between atoms: O_9  and  C_10
REMARK    9  A    between atoms: C_17  and  C_18
REMARK   10  A    between atoms: C_17  and  C_26
REMARK   11  A    between atoms: C_18  and  C_19
REMARK                            x       y       z     vdW  Elec       q    Type
REMARK                         _______ _______ _______ _____ _____    ______ ____
ROOT
ATOM      1  C   UNL     1       3.089   8.289  17.965  0.00  0.00    +0.000 C 
ATOM      2  C   UNL     1       2.493   7.176  18.829  0.00  0.00    +0.000 C 
ENDROOT
BRANCH   2   3
ATOM      3  N   UNL     1       1.870   7.758  20.017  0.00  0.00    +0.000 N 
ATOM      4  C   UNL     1       1.096   8.907  20.010  0.00  0.00    +0.000 C 
ATOM      5  O   UNL     1       0.809   9.478  18.956  0.00  0.00    +0.000 OA
ATOM      6  H   UNL     1       2.236   7.434  20.894  0.00  0.00    +0.000 HD
BRANCH   4   7
ATOM      7  C   UNL     1       0.628   9.448  21.413  0.00  0.00    +0.000 C 
ATOM      8  C   UNL     1      -0.673   8.745  21.849  0.00  0.00    +0.000 C 
ATOM      9  C   UNL     1       1.823   9.180  22.346  0.00  0.00    +0.000 C 
BRANCH   7  10
ATOM     10  O   UNL     1       0.426  10.863  21.218  0.00  0.00    +0.000 OA
BRANCH  10  11
ATOM     11  C   UNL     1      -0.782  11.470  21.428  0.00  0.00    +0.000 A 
ATOM     12  C   UNL     1      -1.668  11.935  20.459  0.00  0.00    +0.000 A 
ATOM     13  C   UNL     1      -2.827  12.621  20.811  0.00  0.00    +0.000 A 
ATOM     14  C   UNL     1      -3.139  12.817  22.147  0.00  0.00    +0.000 A 
ATOM     15 CL   UNL     1      -4.562  13.683  22.565  0.00  0.00    +0.000 Cl
ATOM     16  C   UNL     1      -2.298  12.316  23.138  0.00  0.00    +0.000 A 
ATOM     17  C   UNL     1      -1.122  11.649  22.778  0.00  0.00    +0.000 A 
ENDBRANCH  10  11
ENDBRANCH   7  10
ENDBRANCH   4   7
ENDBRANCH   2   3
BRANCH   2  18
ATOM     18  C   UNL     1       3.512   6.040  19.227  0.00  0.00    +0.000 C 
BRANCH  18  19
ATOM     19  C   UNL     1       2.881   4.649  19.117  0.00  0.00    +0.000 A 
ATOM     20  C   UNL     1       3.285   3.555  19.898  0.00  0.00    +0.000 A 
ATOM     21  C   UNL     1       2.664   2.308  19.777  0.00  0.00    +0.000 A 
ATOM     22  C   UNL     1       1.641   2.123  18.852  0.00  0.00    +0.000 A 
ATOM     23  C   UNL     1       1.224   3.189  18.064  0.00  0.00    +0.000 A 
ATOM     24  C   UNL     1       1.822   4.442  18.211  0.00  0.00    +0.000 A 
ENDBRANCH  18  19
BRANCH  18  25
ATOM     25  C   UNL     1       4.895   6.195  18.510  0.00  0.00    +0.000 C 
BRANCH  25  26
ATOM     26  C   UNL     1       5.110   5.499  17.170  0.00  0.00    +0.000 A 
ATOM     27  C   UNL     1       5.063   6.267  15.991  0.00  0.00    +0.000 A 
ATOM     28  C   UNL     1       5.392   5.707  14.751  0.00  0.00    +0.000 A 
ATOM     29  C   UNL     1       5.775   4.371  14.677  0.00  0.00    +0.000 A 
ATOM     30 CL   UNL     1       6.252   3.696  13.169  0.00  0.00    +0.000 Cl
ATOM     31  C   UNL     1       5.799   3.587  15.826  0.00  0.00    +0.000 A 
ATOM     32  C   UNL     1       5.472   4.149  17.065  0.00  0.00    +0.000 A 
ENDBRANCH  25  26
ENDBRANCH  18  25
ENDBRANCH   2  18
TORSDOF 8
ENDMDL
MODEL 7
REMARK VINA RESULT:      -8.5      1.311      1.811
REMARK  Name = 
REMARK  11 active torsions:
REMARK  status: ('A' for Active; 'I' for Inactive)
REMARK    1  A    between atoms: C_1  and  C_2
REMARK    2  A    between atoms: C_2  and  N_3
REMARK    3  A    between atoms: C_2  and  C_17
REMARK    4  A    between atoms: C_4  and  C_6
REMARK    5  A    between atoms: C_6  and  C_7
REMARK    6  A    between atoms: C_6  and  C_8
REMARK    7  A    between atoms: C_6  and  O_9
REMARK    8  A    between atoms: O_9  and  C_10
REMARK    9  A    between atoms: C_17  and  C_18
REMARK   10  A    between atoms: C_17  and  C_26
REMARK   11  A    between atoms: C_18  and  C_19
REMARK                            x       y       z     vdW  Elec       q    Type
REMARK                         _______ _______ _______ _____ _____    ______ ____
ROOT
ATOM      1  C   UNL     1       3.797   7.318  16.189  0.00  0.00    +0.000 C 
ATOM      2  C   UNL     1       3.832   7.325  17.719  0.00  0.00    +0.000 C 
ENDROOT
BRANCH   2   3
ATOM      3  N   UNL     1       4.821   6.356  18.190  0.00  0.00    +0.000 N 
ATOM      4  C   UNL     1       6.183   6.451  17.956  0.00  0.00    +0.000 C 
ATOM      5  O   UNL     1       6.667   7.434  17.391  0.00  0.00    +0.000 OA
ATOM      6  H   UNL     1       4.447   5.469  18.477  0.00  0.00    +0.000 HD
BRANCH   4   7
ATOM      7  C   UNL     1       7.065   5.235  18.430  0.00  0.00    +0.000 C 
ATOM      8  C   UNL     1       8.116   5.705  19.455  0.00  0.00    +0.000 C 
ATOM      9  C   UNL     1       6.052   4.224  18.996  0.00  0.00    +0.000 C 
BRANCH   7  10
ATOM     10  O   UNL     1       7.685   4.734  17.227  0.00  0.00    +0.000 OA
BRANCH  10  11
ATOM     11  C   UNL     1       6.973   4.460  16.092  0.00  0.00    +0.000 A 
ATOM     12  C   UNL     1       5.787   3.735  15.998  0.00  0.00    +0.000 A 
ATOM     13  C   UNL     1       5.212   3.448  14.763  0.00  0.00    +0.000 A 
ATOM     14  C   UNL     1       5.798   3.920  13.599  0.00  0.00    +0.000 A 
ATOM     15 CL   UNL     1       5.088   3.540  12.082  0.00  0.00    +0.000 Cl
ATOM     16  C   UNL     1       6.955   4.693  13.665  0.00  0.00    +0.000 A 
ATOM     17  C   UNL     1       7.541   4.957  14.909  0.00  0.00    +0.000 A 
ENDBRANCH  10  11
ENDBRANCH   7  10
ENDBRANCH   4   7
ENDBRANCH   2   3
BRANCH   2  18
ATOM     18  C   UNL     1       2.434   7.085  18.407  0.00  0.00    +0.000 C 
BRANCH  18  19
ATOM     19  C   UNL     1       2.226   5.611  18.768  0.00  0.00    +0.000 A 
ATOM     20  C   UNL     1       2.239   5.130  20.087  0.00  0.00    +0.000 A 
ATOM     21  C   UNL     1       2.024   3.778  20.369  0.00  0.00    +0.000 A 
ATOM     22  C   UNL     1       1.815   2.872  19.333  0.00  0.00    +0.000 A 
ATOM     23  C   UNL     1       1.801   3.321  18.018  0.00  0.00    +0.000 A 
ATOM     24  C   UNL     1       1.982   4.677  17.741  0.00  0.00    +0.000 A 
ENDBRANCH  18  19
BRANCH  18  25
ATOM     25  C   UNL     1       2.155   8.095  19.570  0.00  0.00    +0.000 C 
BRANCH  25  26
ATOM     26  C   UNL     1       1.059   9.139  19.389  0.00  0.00    +0.000 A 
ATOM     27  C   UNL     1       0.590   9.413  18.091  0.00  0.00    +0.000 A 
ATOM     28  C   UNL     1      -0.508  10.256  17.883  0.00  0.00    +0.000 A 
ATOM     29  C   UNL     1      -1.151  10.833  18.973  0.00  0.00    +0.000 A 
ATOM     30 CL   UNL     1      -2.546  11.810  18.730  0.00  0.00    +0.000 Cl
ATOM     31  C   UNL     1      -0.685  10.600  20.263  0.00  0.00    +0.000 A 
ATOM     32  C   UNL     1       0.411   9.755  20.470  0.00  0.00    +0.000 A 
ENDBRANCH  25  26
ENDBRANCH  18  25
ENDBRANCH   2  18
TORSDOF 8
ENDMDL
MODEL 8
REMARK VINA RESULT:      -8.4      2.870      4.092
REMARK  Name = 
REMARK  11 active torsions:
REMARK  status: ('A' for Active; 'I' for Inactive)
REMARK    1  A    between atoms: C_1  and  C_2
REMARK    2  A    between atoms: C_2  and  N_3
REMARK    3  A    between atoms: C_2  and  C_17
REMARK    4  A    between atoms: C_4  and  C_6
REMARK    5  A    between atoms: C_6  and  C_7
REMARK    6  A    between atoms: C_6  and  C_8
REMARK    7  A    between atoms: C_6  and  O_9
REMARK    8  A    between atoms: O_9  and  C_10
REMARK    9  A    between atoms: C_17  and  C_18
REMARK   10  A    between atoms: C_17  and  C_26
REMARK   11  A    between atoms: C_18  and  C_19
REMARK                            x       y       z     vdW  Elec       q    Type
REMARK                         _______ _______ _______ _____ _____    ______ ____
ROOT
ATOM      1  C   UNL     1       2.133   8.017  17.830  0.00  0.00    +0.000 C 
ATOM      2  C   UNL     1       2.634   7.074  18.926  0.00  0.00    +0.000 C 
ENDROOT
BRANCH   2   3
ATOM      3  N   UNL     1       3.086   5.820  18.325  0.00  0.00    +0.000 N 
ATOM      4  C   UNL     1       4.209   5.118  18.730  0.00  0.00    +0.000 C 
ATOM      5  O   UNL     1       4.868   5.476  19.708  0.00  0.00    +0.000 OA
ATOM      6  H   UNL     1       2.691   5.611  17.426  0.00  0.00    +0.000 HD
BRANCH   4   7
ATOM      7  C   UNL     1       4.602   3.861  17.866  0.00  0.00    +0.000 C 
ATOM      8  C   UNL     1       4.932   2.665  18.781  0.00  0.00    +0.000 C 
ATOM      9  C   UNL     1       3.387   3.628  16.951  0.00  0.00    +0.000 C 
BRANCH   7  10
ATOM     10  O   UNL     1       5.755   4.279  17.105  0.00  0.00    +0.000 OA
BRANCH  10  11
ATOM     11  C   UNL     1       6.537   5.338  17.475  0.00  0.00    +0.000 A 
ATOM     12  C   UNL     1       7.536   5.346  18.446  0.00  0.00    +0.000 A 
ATOM     13  C   UNL     1       8.197   6.521  18.791  0.00  0.00    +0.000 A 
ATOM     14  C   UNL     1       7.894   7.706  18.138  0.00  0.00    +0.000 A 
ATOM     15 CL   UNL     1       8.704   9.151  18.590  0.00  0.00    +0.000 Cl
ATOM     16  C   UNL     1       6.937   7.717  17.126  0.00  0.00    +0.000 A 
ATOM     17  C   UNL     1       6.259   6.537  16.800  0.00  0.00    +0.000 A 
ENDBRANCH  10  11
ENDBRANCH   7  10
ENDBRANCH   4   7
ENDBRANCH   2   3
BRANCH   2  18
ATOM     18  C   UNL     1       1.597   6.805  20.082  0.00  0.00    +0.000 C 
BRANCH  18  19
ATOM     19  C   UNL     1       1.514   5.316  20.433  0.00  0.00    +0.000 A 
ATOM     20  C   UNL     1       0.741   4.395  19.708  0.00  0.00    +0.000 A 
ATOM     21  C   UNL     1       0.712   3.041  20.054  0.00  0.00    +0.000 A 
ATOM     22  C   UNL     1       1.439   2.583  21.149  0.00  0.00    +0.000 A 
ATOM     23  C   UNL     1       2.209   3.475  21.886  0.00  0.00    +0.000 A 
ATOM     24  C   UNL     1       2.264   4.820  21.518  0.00  0.00    +0.000 A 
ENDBRANCH  18  19
BRANCH  18  25
ATOM     25  C   UNL     1       1.798   7.760  21.306  0.00  0.00    +0.000 C 
BRANCH  25  26
ATOM     26  C   UNL     1       0.809   8.902  21.517  0.00  0.00    +0.000 A 
ATOM     27  C   UNL     1       0.112   8.978  22.738  0.00  0.00    +0.000 A 
ATOM     28  C   UNL     1      -0.698  10.079  23.038  0.00  0.00    +0.000 A 
ATOM     29  C   UNL     1      -0.819  11.117  22.120  0.00  0.00    +0.000 A 
ATOM     30 CL   UNL     1      -1.754  12.507  22.513  0.00  0.00    +0.000 Cl
ATOM     31  C   UNL     1      -0.163  11.048  20.896  0.00  0.00    +0.000 A 
ATOM     32  C   UNL     1       0.649   9.948  20.598  0.00  0.00    +0.000 A 
ENDBRANCH  25  26
ENDBRANCH  18  25
ENDBRANCH   2  18
TORSDOF 8
ENDMDL
MODEL 9
REMARK VINA RESULT:      -8.4      3.163      8.358
REMARK  Name = 
REMARK  11 active torsions:
REMARK  status: ('A' for Active; 'I' for Inactive)
REMARK    1  A    between atoms: C_1  and  C_2
REMARK    2  A    between atoms: C_2  and  N_3
REMARK    3  A    between atoms: C_2  and  C_17
REMARK    4  A    between atoms: C_4  and  C_6
REMARK    5  A    between atoms: C_6  and  C_7
REMARK    6  A    between atoms: C_6  and  C_8
REMARK    7  A    between atoms: C_6  and  O_9
REMARK    8  A    between atoms: O_9  and  C_10
REMARK    9  A    between atoms: C_17  and  C_18
REMARK   10  A    between atoms: C_17  and  C_26
REMARK   11  A    between atoms: C_18  and  C_19
REMARK                            x       y       z     vdW  Elec       q    Type
REMARK                         _______ _______ _______ _____ _____    ______ ____
ROOT
ATOM      1  C   UNL     1       2.930   8.554  17.706  0.00  0.00    +0.000 C 
ATOM      2  C   UNL     1       2.157   7.704  18.716  0.00  0.00    +0.000 C 
ENDROOT
BRANCH   2   3
ATOM      3  N   UNL     1       1.588   8.569  19.750  0.00  0.00    +0.000 N 
ATOM      4  C   UNL     1       0.644   9.554  19.512  0.00  0.00    +0.000 C 
ATOM      5  O   UNL     1       0.148   9.709  18.395  0.00  0.00    +0.000 OA
ATOM      6  H   UNL     1       2.100   8.596  20.613  0.00  0.00    +0.000 HD
BRANCH   4   7
ATOM      7  C   UNL     1       0.259  10.468  20.736  0.00  0.00    +0.000 C 
ATOM      8  C   UNL     1      -0.991  11.307  20.404  0.00  0.00    +0.000 C 
ATOM      9  C   UNL     1       0.057   9.485  21.903  0.00  0.00    +0.000 C 
BRANCH   7  10
ATOM     10  O   UNL     1       1.415  11.304  20.953  0.00  0.00    +0.000 OA
BRANCH  10  11
ATOM     11  C   UNL     1       1.513  12.570  20.445  0.00  0.00    +0.000 A 
ATOM     12  C   UNL     1       1.127  13.756  21.064  0.00  0.00    +0.000 A 
ATOM     13  C   UNL     1       1.197  14.976  20.396  0.00  0.00    +0.000 A 
ATOM     14  C   UNL     1       1.697  15.031  19.105  0.00  0.00    +0.000 A 
ATOM     15 CL   UNL     1       1.758  16.540  18.286  0.00  0.00    +0.000 Cl
ATOM     16  C   UNL     1       2.141  13.869  18.480  0.00  0.00    +0.000 A 
ATOM     17  C   UNL     1       2.045  12.642  19.148  0.00  0.00    +0.000 A 
ENDBRANCH  10  11
ENDBRANCH   7  10
ENDBRANCH   4   7
ENDBRANCH   2   3
BRANCH   2  18
ATOM     18  C   UNL     1       2.991   6.531  19.358  0.00  0.00    +0.000 C 
BRANCH  18  19
ATOM     19  C   UNL     1       2.243   5.196  19.281  0.00  0.00    +0.000 A 
ATOM     20  C   UNL     1       1.964   4.403  20.405  0.00  0.00    +0.000 A 
ATOM     21  C   UNL     1       1.260   3.201  20.288  0.00  0.00    +0.000 A 
ATOM     22  C   UNL     1       0.841   2.755  19.038  0.00  0.00    +0.000 A 
ATOM     23  C   UNL     1       1.107   3.519  17.909  0.00  0.00    +0.000 A 
ATOM     24  C   UNL     1       1.780   4.736  18.033  0.00  0.00    +0.000 A 
ENDBRANCH  18  19
BRANCH  18  25
ATOM     25  C   UNL     1       4.468   6.490  18.841  0.00  0.00    +0.000 C 
BRANCH  25  26
ATOM     26  C   UNL     1       4.775   5.733  17.554  0.00  0.00    +0.000 A 
ATOM     27  C   UNL     1       4.909   6.459  16.355  0.00  0.00    +0.000 A 
ATOM     28  C   UNL     1       5.328   5.833  15.175  0.00  0.00    +0.000 A 
ATOM     29  C   UNL     1       5.620   4.473  15.182  0.00  0.00    +0.000 A 
ATOM     30 CL   UNL     1       6.207   3.712  13.756  0.00  0.00    +0.000 Cl
ATOM     31  C   UNL     1       5.467   3.731  16.349  0.00  0.00    +0.000 A 
ATOM     32  C   UNL     1       5.050   4.358  17.528  0.00  0.00    +0.000 A 
ENDBRANCH  25  26
ENDBRANCH  18  25
ENDBRANCH   2  18
TORSDOF 8
ENDMDL
