MODEL 1
REMARK VINA RESULT:      -8.8      0.000      0.000
REMARK  Name = 
REMARK  2 active torsions:
REMARK  status: ('A' for Active; 'I' for Inactive)
REMARK    1  A    between atoms: C_6  and  C_7
REMARK    2  A    between atoms: C_14  and  C_15
REMARK                            x       y       z     vdW  Elec       q    Type
REMARK                         _______ _______ _______ _____ _____    ______ ____
ROOT
ATOM      1  F   UNL     1       0.718   9.216  19.815  0.00  0.00    +0.000 F 
ATOM      2  C   UNL     1       1.566   8.211  19.556  0.00  0.00    +0.000 A 
ATOM      3  C   UNL     1       1.581   7.104  20.389  0.00  0.00    +0.000 A 
ATOM      4  C   UNL     1       2.408   6.014  20.085  0.00  0.00    +0.000 A 
ATOM      5  C   UNL     1       3.187   6.011  18.908  0.00  0.00    +0.000 A 
ATOM      6  C   UNL     1       3.904   5.012  18.136  0.00  0.00    +0.000 A 
ATOM      7  C   UNL     1       4.575   5.704  17.113  0.00  0.00    +0.000 A 
ATOM      8  N   UNL     1       4.148   7.015  17.186  0.00  0.00    +0.000 N 
ATOM      9  C   UNL     1       3.223   7.195  18.176  0.00  0.00    +0.000 A 
ATOM     10  C   UNL     1       2.413   8.300  18.455  0.00  0.00    +0.000 A 
ATOM     11  H   UNL     1       4.449   7.747  16.559  0.00  0.00    +0.000 HD
ENDROOT
BRANCH   6  12
ATOM     12  C   UNL     1       3.765   3.487  18.240  0.00  0.00    +0.000 C 
ATOM     13  C   UNL     1       2.576   2.904  17.445  0.00  0.00    +0.000 C 
ATOM     14  N   UNL     1       1.300   2.922  18.169  0.00  0.00    +0.000 NA
ATOM     15  C   UNL     1       1.378   2.226  19.447  0.00  0.00    +0.000 C 
ATOM     16  C   UNL     1       2.471   2.789  20.346  0.00  0.00    +0.000 C 
ATOM     17  C   UNL     1       3.810   2.869  19.637  0.00  0.00    +0.000 C 
ATOM     18  F   UNL     1       4.260   1.577  19.491  0.00  0.00    +0.000 F 
ATOM     19  H   UNL     1       0.565   2.523  17.588  0.00  0.00    +0.000 HD
ENDBRANCH   6  12
BRANCH   7  20
ATOM     20  C   UNL     1       5.486   5.282  16.031  0.00  0.00    +0.000 A 
ATOM     21  C   UNL     1       5.050   4.452  14.985  0.00  0.00    +0.000 A 
ATOM     22  C   UNL     1       5.914   4.096  13.953  0.00  0.00    +0.000 A 
ATOM     23  C   UNL     1       7.211   4.574  13.986  0.00  0.00    +0.000 A 
ATOM     24  N   UNL     1       7.677   5.379  14.958  0.00  0.00    +0.000 NA
ATOM     25  C   UNL     1       6.806   5.711  15.951  0.00  0.00    +0.000 A 
ENDBRANCH   7  20
TORSDOF 2
ENDMDL
MODEL 2
REMARK VINA RESULT:      -8.8      2.305      5.493
REMARK  Name = 
REMARK  2 active torsions:
REMARK  status: ('A' for Active; 'I' for Inactive)
REMARK    1  A    between atoms: C_6  and  C_7
REMARK    2  A    between atoms: C_14  and  C_15
REMARK                            x       y       z     vdW  Elec       q    Type
REMARK                         _______ _______ _______ _____ _____    ______ ____
ROOT
ATOM      1  F   UNL     1       7.746   4.916  15.128  0.00  0.00    +0.000 F 
ATOM      2  C   UNL     1       6.532   4.994  15.691  0.00  0.00    +0.000 A 
ATOM      3  C   UNL     1       5.783   3.839  15.854  0.00  0.00    +0.000 A 
ATOM      4  C   UNL     1       4.546   3.896  16.510  0.00  0.00    +0.000 A 
ATOM      5  C   UNL     1       4.079   5.112  17.054  0.00  0.00    +0.000 A 
ATOM      6  C   UNL     1       3.051   5.502  18.003  0.00  0.00    +0.000 A 
ATOM      7  C   UNL     1       3.035   6.907  18.020  0.00  0.00    +0.000 A 
ATOM      8  N   UNL     1       4.101   7.317  17.244  0.00  0.00    +0.000 N 
ATOM      9  C   UNL     1       4.814   6.258  16.757  0.00  0.00    +0.000 A 
ATOM     10  C   UNL     1       6.049   6.234  16.101  0.00  0.00    +0.000 A 
ATOM     11  H   UNL     1       4.352   8.282  17.088  0.00  0.00    +0.000 HD
ENDROOT
BRANCH   6  12
ATOM     12  C   UNL     1       2.305   4.588  18.985  0.00  0.00    +0.000 C 
ATOM     13  C   UNL     1       3.202   3.966  20.079  0.00  0.00    +0.000 C 
ATOM     14  N   UNL     1       3.878   2.730  19.672  0.00  0.00    +0.000 NA
ATOM     15  C   UNL     1       2.942   1.710  19.217  0.00  0.00    +0.000 C 
ATOM     16  C   UNL     1       2.064   2.200  18.072  0.00  0.00    +0.000 C 
ATOM     17  C   UNL     1       1.388   3.518  18.395  0.00  0.00    +0.000 C 
ATOM     18  F   UNL     1       0.423   3.250  19.339  0.00  0.00    +0.000 F 
ATOM     19  H   UNL     1       4.448   2.376  20.439  0.00  0.00    +0.000 HD
ENDBRANCH   6  12
BRANCH   7  20
ATOM     20  C   UNL     1       2.214   7.904  18.734  0.00  0.00    +0.000 A 
ATOM     21  C   UNL     1       1.631   8.993  18.063  0.00  0.00    +0.000 A 
ATOM     22  C   UNL     1       0.829   9.901  18.747  0.00  0.00    +0.000 A 
ATOM     23  C   UNL     1       0.624   9.710  20.101  0.00  0.00    +0.000 A 
ATOM     24  N   UNL     1       1.149   8.681  20.789  0.00  0.00    +0.000 NA
ATOM     25  C   UNL     1       1.926   7.807  20.091  0.00  0.00    +0.000 A 
ENDBRANCH   7  20
TORSDOF 2
ENDMDL
MODEL 3
REMARK VINA RESULT:      -8.7      2.293      5.535
REMARK  Name = 
REMARK  2 active torsions:
REMARK  status: ('A' for Active; 'I' for Inactive)
REMARK    1  A    between atoms: C_6  and  C_7
REMARK    2  A    between atoms: C_14  and  C_15
REMARK                            x       y       z     vdW  Elec       q    Type
REMARK                         _______ _______ _______ _____ _____    ______ ____
ROOT
ATOM      1  F   UNL     1       7.558   5.108  15.147  0.00  0.00    +0.000 F 
ATOM      2  C   UNL     1       6.362   5.146  15.750  0.00  0.00    +0.000 A 
ATOM      3  C   UNL     1       5.637   3.974  15.897  0.00  0.00    +0.000 A 
ATOM      4  C   UNL     1       4.421   3.987  16.593  0.00  0.00    +0.000 A 
ATOM      5  C   UNL     1       3.952   5.176  17.192  0.00  0.00    +0.000 A 
ATOM      6  C   UNL     1       2.949   5.516  18.186  0.00  0.00    +0.000 A 
ATOM      7  C   UNL     1       2.911   6.919  18.251  0.00  0.00    +0.000 A 
ATOM      8  N   UNL     1       3.944   7.373  17.456  0.00  0.00    +0.000 N 
ATOM      9  C   UNL     1       4.658   6.344  16.911  0.00  0.00    +0.000 A 
ATOM     10  C   UNL     1       5.872   6.363  16.216  0.00  0.00    +0.000 A 
ATOM     11  H   UNL     1       4.175   8.348  17.324  0.00  0.00    +0.000 HD
ENDROOT
BRANCH   6  12
ATOM     12  C   UNL     1       2.249   4.558  19.159  0.00  0.00    +0.000 C 
ATOM     13  C   UNL     1       3.196   3.888  20.180  0.00  0.00    +0.000 C 
ATOM     14  N   UNL     1       3.852   2.673  19.686  0.00  0.00    +0.000 NA
ATOM     15  C   UNL     1       2.896   1.673  19.229  0.00  0.00    +0.000 C 
ATOM     16  C   UNL     1       1.966   2.212  18.150  0.00  0.00    +0.000 C 
ATOM     17  C   UNL     1       1.305   3.514  18.564  0.00  0.00    +0.000 C 
ATOM     18  F   UNL     1       0.386   3.200  19.538  0.00  0.00    +0.000 F 
ATOM     19  H   UNL     1       4.457   2.286  20.409  0.00  0.00    +0.000 HD
ENDBRANCH   6  12
BRANCH   7  20
ATOM     20  C   UNL     1       2.096   7.877  19.023  0.00  0.00    +0.000 A 
ATOM     21  C   UNL     1       1.820   7.675  20.387  0.00  0.00    +0.000 A 
ATOM     22  C   UNL     1       1.082   8.610  21.108  0.00  0.00    +0.000 A 
ATOM     23  C   UNL     1       0.624   9.736  20.450  0.00  0.00    +0.000 A 
ATOM     24  N   UNL     1       0.868   9.983  19.151  0.00  0.00    +0.000 NA
ATOM     25  C   UNL     1       1.595   9.052  18.474  0.00  0.00    +0.000 A 
ENDBRANCH   7  20
TORSDOF 2
ENDMDL
MODEL 4
REMARK VINA RESULT:      -8.6      1.244      1.420
REMARK  Name = 
REMARK  2 active torsions:
REMARK  status: ('A' for Active; 'I' for Inactive)
REMARK    1  A    between atoms: C_6  and  C_7
REMARK    2  A    between atoms: C_14  and  C_15
REMARK                            x       y       z     vdW  Elec       q    Type
REMARK                         _______ _______ _______ _____ _____    ______ ____
ROOT
ATOM      1  F   UNL     1       0.095  10.249  19.215  0.00  0.00    +0.000 F 
ATOM      2  C   UNL     1       0.972   9.239  19.302  0.00  0.00    +0.000 A 
ATOM      3  C   UNL     1       0.947   8.412  20.413  0.00  0.00    +0.000 A 
ATOM      4  C   UNL     1       1.807   7.308  20.481  0.00  0.00    +0.000 A 
ATOM      5  C   UNL     1       2.662   6.999  19.401  0.00  0.00    +0.000 A 
ATOM      6  C   UNL     1       3.443   5.846  18.987  0.00  0.00    +0.000 A 
ATOM      7  C   UNL     1       4.170   6.243  17.853  0.00  0.00    +0.000 A 
ATOM      8  N   UNL     1       3.721   7.507  17.526  0.00  0.00    +0.000 N 
ATOM      9  C   UNL     1       2.730   7.929  18.367  0.00  0.00    +0.000 A 
ATOM     10  C   UNL     1       1.889   9.042  18.273  0.00  0.00    +0.000 A 
ATOM     11  H   UNL     1       4.053   8.041  16.736  0.00  0.00    +0.000 HD
ENDROOT
BRANCH   6  12
ATOM     12  C   UNL     1       3.318   4.409  19.511  0.00  0.00    +0.000 C 
ATOM     13  C   UNL     1       3.103   3.349  18.407  0.00  0.00    +0.000 C 
ATOM     14  N   UNL     1       1.703   3.169  18.009  0.00  0.00    +0.000 NA
ATOM     15  C   UNL     1       0.845   2.831  19.138  0.00  0.00    +0.000 C 
ATOM     16  C   UNL     1       0.919   3.867  20.251  0.00  0.00    +0.000 C 
ATOM     17  C   UNL     1       2.348   4.160  20.665  0.00  0.00    +0.000 C 
ATOM     18  F   UNL     1       2.802   3.050  21.340  0.00  0.00    +0.000 F 
ATOM     19  H   UNL     1       1.636   2.458  17.283  0.00  0.00    +0.000 HD
ENDBRANCH   6  12
BRANCH   7  20
ATOM     20  C   UNL     1       5.156   5.563  16.991  0.00  0.00    +0.000 A 
ATOM     21  C   UNL     1       4.855   5.213  15.663  0.00  0.00    +0.000 A 
ATOM     22  C   UNL     1       5.811   4.607  14.854  0.00  0.00    +0.000 A 
ATOM     23  C   UNL     1       7.060   4.351  15.389  0.00  0.00    +0.000 A 
ATOM     24  N   UNL     1       7.404   4.673  16.649  0.00  0.00    +0.000 NA
ATOM     25  C   UNL     1       6.447   5.269  17.413  0.00  0.00    +0.000 A 
ENDBRANCH   7  20
TORSDOF 2
ENDMDL
MODEL 5
REMARK VINA RESULT:      -8.5      1.139      1.311
REMARK  Name = 
REMARK  2 active torsions:
REMARK  status: ('A' for Active; 'I' for Inactive)
REMARK    1  A    between atoms: C_6  and  C_7
REMARK    2  A    between atoms: C_14  and  C_15
REMARK                            x       y       z     vdW  Elec       q    Type
REMARK                         _______ _______ _______ _____ _____    ______ ____
ROOT
ATOM      1  F   UNL     1       0.190   9.805  20.407  0.00  0.00    +0.000 F 
ATOM      2  C   UNL     1       0.969   8.738  20.178  0.00  0.00    +0.000 A 
ATOM      3  C   UNL     1       0.915   7.659  21.045  0.00  0.00    +0.000 A 
ATOM      4  C   UNL     1       1.666   6.508  20.774  0.00  0.00    +0.000 A 
ATOM      5  C   UNL     1       2.439   6.417  19.596  0.00  0.00    +0.000 A 
ATOM      6  C   UNL     1       3.085   5.349  18.854  0.00  0.00    +0.000 A 
ATOM      7  C   UNL     1       3.796   5.962  17.809  0.00  0.00    +0.000 A 
ATOM      8  N   UNL     1       3.457   7.300  17.841  0.00  0.00    +0.000 N 
ATOM      9  C   UNL     1       2.550   7.572  18.826  0.00  0.00    +0.000 A 
ATOM     10  C   UNL     1       1.816   8.737  19.073  0.00  0.00    +0.000 A 
ATOM     11  H   UNL     1       3.803   7.990  17.190  0.00  0.00    +0.000 HD
ENDROOT
BRANCH   6  12
ATOM     12  C   UNL     1       2.846   3.841  19.007  0.00  0.00    +0.000 C 
ATOM     13  C   UNL     1       1.365   3.418  18.885  0.00  0.00    +0.000 C 
ATOM     14  N   UNL     1       0.605   3.516  20.135  0.00  0.00    +0.000 NA
ATOM     15  C   UNL     1       1.211   2.745  21.214  0.00  0.00    +0.000 C 
ATOM     16  C   UNL     1       2.656   3.149  21.473  0.00  0.00    +0.000 C 
ATOM     17  C   UNL     1       3.488   3.142  20.205  0.00  0.00    +0.000 C 
ATOM     18  F   UNL     1       3.667   1.824  19.854  0.00  0.00    +0.000 F 
ATOM     19  H   UNL     1      -0.358   3.222  19.982  0.00  0.00    +0.000 HD
ENDBRANCH   6  12
BRANCH   7  20
ATOM     20  C   UNL     1       4.672   5.447  16.739  0.00  0.00    +0.000 A 
ATOM     21  C   UNL     1       4.806   4.069  16.497  0.00  0.00    +0.000 A 
ATOM     22  C   UNL     1       5.608   3.605  15.459  0.00  0.00    +0.000 A 
ATOM     23  C   UNL     1       6.273   4.530  14.676  0.00  0.00    +0.000 A 
ATOM     24  N   UNL     1       6.173   5.859  14.857  0.00  0.00    +0.000 NA
ATOM     25  C   UNL     1       5.378   6.282  15.879  0.00  0.00    +0.000 A 
ENDBRANCH   7  20
TORSDOF 2
ENDMDL
MODEL 6
REMARK VINA RESULT:      -8.3      1.242      1.457
REMARK  Name = 
REMARK  2 active torsions:
REMARK  status: ('A' for Active; 'I' for Inactive)
REMARK    1  A    between atoms: C_6  and  C_7
REMARK    2  A    between atoms: C_14  and  C_15
REMARK                            x       y       z     vdW  Elec       q    Type
REMARK                         _______ _______ _______ _____ _____    ______ ____
ROOT
ATOM      1  F   UNL     1       0.364   9.945  20.116  0.00  0.00    +0.000 F 
ATOM      2  C   UNL     1       1.108   8.845  19.936  0.00  0.00    +0.000 A 
ATOM      3  C   UNL     1       1.026   7.811  20.855  0.00  0.00    +0.000 A 
ATOM      4  C   UNL     1       1.740   6.626  20.638  0.00  0.00    +0.000 A 
ATOM      5  C   UNL     1       2.502   6.454  19.462  0.00  0.00    +0.000 A 
ATOM      6  C   UNL     1       3.111   5.331  18.770  0.00  0.00    +0.000 A 
ATOM      7  C   UNL     1       3.833   5.870  17.692  0.00  0.00    +0.000 A 
ATOM      8  N   UNL     1       3.536   7.218  17.661  0.00  0.00    +0.000 N 
ATOM      9  C   UNL     1       2.644   7.566  18.636  0.00  0.00    +0.000 A 
ATOM     10  C   UNL     1       1.948   8.763  18.828  0.00  0.00    +0.000 A 
ATOM     11  H   UNL     1       3.898   7.864  16.975  0.00  0.00    +0.000 HD
ENDROOT
BRANCH   6  12
ATOM     12  C   UNL     1       2.826   3.840  18.998  0.00  0.00    +0.000 C 
ATOM     13  C   UNL     1       1.335   3.454  18.876  0.00  0.00    +0.000 C 
ATOM     14  N   UNL     1       0.562   3.638  20.109  0.00  0.00    +0.000 NA
ATOM     15  C   UNL     1       1.131   2.908  21.235  0.00  0.00    +0.000 C 
ATOM     16  C   UNL     1       2.584   3.284  21.494  0.00  0.00    +0.000 C 
ATOM     17  C   UNL     1       3.432   3.188  20.240  0.00  0.00    +0.000 C 
ATOM     18  F   UNL     1       3.577   1.849  19.961  0.00  0.00    +0.000 F 
ATOM     19  H   UNL     1      -0.407   3.364  19.957  0.00  0.00    +0.000 HD
ENDBRANCH   6  12
BRANCH   7  20
ATOM     20  C   UNL     1       4.687   5.277  16.645  0.00  0.00    +0.000 A 
ATOM     21  C   UNL     1       5.280   6.067  15.645  0.00  0.00    +0.000 A 
ATOM     22  C   UNL     1       6.113   5.494  14.688  0.00  0.00    +0.000 A 
ATOM     23  C   UNL     1       6.337   4.131  14.742  0.00  0.00    +0.000 A 
ATOM     24  N   UNL     1       5.803   3.331  15.681  0.00  0.00    +0.000 NA
ATOM     25  C   UNL     1       4.995   3.922  16.605  0.00  0.00    +0.000 A 
ENDBRANCH   7  20
TORSDOF 2
ENDMDL
MODEL 7
REMARK VINA RESULT:      -8.2      2.378      5.514
REMARK  Name = 
REMARK  2 active torsions:
REMARK  status: ('A' for Active; 'I' for Inactive)
REMARK    1  A    between atoms: C_6  and  C_7
REMARK    2  A    between atoms: C_14  and  C_15
REMARK                            x       y       z     vdW  Elec       q    Type
REMARK                         _______ _______ _______ _____ _____    ______ ____
ROOT
ATOM      1  F   UNL     1       7.642   4.432  16.113  0.00  0.00    +0.000 F 
ATOM      2  C   UNL     1       6.368   4.658  16.462  0.00  0.00    +0.000 A 
ATOM      3  C   UNL     1       5.473   3.601  16.489  0.00  0.00    +0.000 A 
ATOM      4  C   UNL     1       4.158   3.810  16.927  0.00  0.00    +0.000 A 
ATOM      5  C   UNL     1       3.751   5.079  17.392  0.00  0.00    +0.000 A 
ATOM      6  C   UNL     1       2.631   5.598  18.156  0.00  0.00    +0.000 A 
ATOM      7  C   UNL     1       2.776   6.995  18.179  0.00  0.00    +0.000 A 
ATOM      8  N   UNL     1       3.998   7.269  17.597  0.00  0.00    +0.000 N 
ATOM      9  C   UNL     1       4.654   6.127  17.230  0.00  0.00    +0.000 A 
ATOM     10  C   UNL     1       5.970   5.951  16.793  0.00  0.00    +0.000 A 
ATOM     11  H   UNL     1       4.383   8.196  17.491  0.00  0.00    +0.000 HD
ENDROOT
BRANCH   6  12
ATOM     12  C   UNL     1       1.627   4.791  18.991  0.00  0.00    +0.000 C 
ATOM     13  C   UNL     1       1.604   5.166  20.490  0.00  0.00    +0.000 C 
ATOM     14  N   UNL     1       2.612   4.473  21.300  0.00  0.00    +0.000 NA
ATOM     15  C   UNL     1       2.509   3.023  21.192  0.00  0.00    +0.000 C 
ATOM     16  C   UNL     1       2.609   2.542  19.750  0.00  0.00    +0.000 C 
ATOM     17  C   UNL     1       1.643   3.271  18.836  0.00  0.00    +0.000 C 
ATOM     18  F   UNL     1       0.381   2.821  19.152  0.00  0.00    +0.000 F 
ATOM     19  H   UNL     1       2.538   4.766  22.272  0.00  0.00    +0.000 HD
ENDBRANCH   6  12
BRANCH   7  20
ATOM     20  C   UNL     1       1.968   8.090  18.750  0.00  0.00    +0.000 A 
ATOM     21  C   UNL     1       1.324   9.034  17.930  0.00  0.00    +0.000 A 
ATOM     22  C   UNL     1       0.536  10.037  18.486  0.00  0.00    +0.000 A 
ATOM     23  C   UNL     1       0.406  10.086  19.862  0.00  0.00    +0.000 A 
ATOM     24  N   UNL     1       0.991   9.203  20.691  0.00  0.00    +0.000 NA
ATOM     25  C   UNL     1       1.753   8.232  20.116  0.00  0.00    +0.000 A 
ENDBRANCH   7  20
TORSDOF 2
ENDMDL
MODEL 8
REMARK VINA RESULT:      -8.2      1.385      1.849
REMARK  Name = 
REMARK  2 active torsions:
REMARK  status: ('A' for Active; 'I' for Inactive)
REMARK    1  A    between atoms: C_6  and  C_7
REMARK    2  A    between atoms: C_14  and  C_15
REMARK                            x       y       z     vdW  Elec       q    Type
REMARK                         _______ _______ _______ _____ _____    ______ ____
ROOT
ATOM      1  F   UNL     1      -0.118  10.196  19.384  0.00  0.00    +0.000 F 
ATOM      2  C   UNL     1       0.789   9.215  19.495  0.00  0.00    +0.000 A 
ATOM      3  C   UNL     1       0.804   8.428  20.635  0.00  0.00    +0.000 A 
ATOM      4  C   UNL     1       1.696   7.352  20.729  0.00  0.00    +0.000 A 
ATOM      5  C   UNL     1       2.545   7.029  19.649  0.00  0.00    +0.000 A 
ATOM      6  C   UNL     1       3.352   5.884  19.265  0.00  0.00    +0.000 A 
ATOM      7  C   UNL     1       4.052   6.260  18.106  0.00  0.00    +0.000 A 
ATOM      8  N   UNL     1       3.563   7.498  17.741  0.00  0.00    +0.000 N 
ATOM      9  C   UNL     1       2.572   7.922  18.581  0.00  0.00    +0.000 A 
ATOM     10  C   UNL     1       1.698   9.007  18.460  0.00  0.00    +0.000 A 
ATOM     11  H   UNL     1       3.868   8.013  16.928  0.00  0.00    +0.000 HD
ENDROOT
BRANCH   6  12
ATOM     12  C   UNL     1       3.276   4.464  19.841  0.00  0.00    +0.000 C 
ATOM     13  C   UNL     1       3.271   3.346  18.773  0.00  0.00    +0.000 C 
ATOM     14  N   UNL     1       1.944   3.038  18.230  0.00  0.00    +0.000 NA
ATOM     15  C   UNL     1       0.989   2.678  19.270  0.00  0.00    +0.000 C 
ATOM     16  C   UNL     1       0.855   3.761  20.333  0.00  0.00    +0.000 C 
ATOM     17  C   UNL     1       2.201   4.184  20.890  0.00  0.00    +0.000 C 
ATOM     18  F   UNL     1       2.655   3.143  21.665  0.00  0.00    +0.000 F 
ATOM     19  H   UNL     1       2.016   2.296  17.537  0.00  0.00    +0.000 HD
ENDBRANCH   6  12
BRANCH   7  20
ATOM     20  C   UNL     1       5.046   5.577  17.254  0.00  0.00    +0.000 A 
ATOM     21  C   UNL     1       6.332   5.266  17.730  0.00  0.00    +0.000 A 
ATOM     22  C   UNL     1       7.241   4.588  16.924  0.00  0.00    +0.000 A 
ATOM     23  C   UNL     1       6.853   4.234  15.645  0.00  0.00    +0.000 A 
ATOM     24  N   UNL     1       5.633   4.498  15.144  0.00  0.00    +0.000 NA
ATOM     25  C   UNL     1       4.764   5.160  15.959  0.00  0.00    +0.000 A 
ENDBRANCH   7  20
TORSDOF 2
ENDMDL
MODEL 9
REMARK VINA RESULT:      -7.9      0.724      1.067
REMARK  Name = 
REMARK  2 active torsions:
REMARK  status: ('A' for Active; 'I' for Inactive)
REMARK    1  A    between atoms: C_6  and  C_7
REMARK    2  A    between atoms: C_14  and  C_15
REMARK                            x       y       z     vdW  Elec       q    Type
REMARK                         _______ _______ _______ _____ _____    ______ ____
ROOT
ATOM      1  F   UNL     1       0.684   9.513  19.781  0.00  0.00    +0.000 F 
ATOM      2  C   UNL     1       1.498   8.474  19.550  0.00  0.00    +0.000 A 
ATOM      3  C   UNL     1       1.497   7.401  20.426  0.00  0.00    +0.000 A 
ATOM      4  C   UNL     1       2.287   6.276  20.154  0.00  0.00    +0.000 A 
ATOM      5  C   UNL     1       3.044   6.203  18.965  0.00  0.00    +0.000 A 
ATOM      6  C   UNL     1       3.718   5.153  18.222  0.00  0.00    +0.000 A 
ATOM      7  C   UNL     1       4.390   5.783  17.161  0.00  0.00    +0.000 A 
ATOM      8  N   UNL     1       4.002   7.108  17.187  0.00  0.00    +0.000 N 
ATOM      9  C   UNL     1       3.101   7.355  18.184  0.00  0.00    +0.000 A 
ATOM     10  C   UNL     1       2.328   8.494  18.431  0.00  0.00    +0.000 A 
ATOM     11  H   UNL     1       4.312   7.804  16.525  0.00  0.00    +0.000 HD
ENDROOT
BRANCH   6  12
ATOM     12  C   UNL     1       3.538   3.638  18.391  0.00  0.00    +0.000 C 
ATOM     13  C   UNL     1       2.158   3.110  17.938  0.00  0.00    +0.000 C 
ATOM     14  N   UNL     1       1.112   3.201  18.962  0.00  0.00    +0.000 NA
ATOM     15  C   UNL     1       1.480   2.513  20.193  0.00  0.00    +0.000 C 
ATOM     16  C   UNL     1       2.793   3.026  20.772  0.00  0.00    +0.000 C 
ATOM     17  C   UNL     1       3.907   3.031  19.743  0.00  0.00    +0.000 C 
ATOM     18  F   UNL     1       4.243   1.716  19.515  0.00  0.00    +0.000 F 
ATOM     19  H   UNL     1       0.234   2.835  18.597  0.00  0.00    +0.000 HD
ENDBRANCH   6  12
BRANCH   7  20
ATOM     20  C   UNL     1       5.268   5.291  16.082  0.00  0.00    +0.000 A 
ATOM     21  C   UNL     1       6.659   5.494  16.116  0.00  0.00    +0.000 A 
ATOM     22  C   UNL     1       7.475   4.989  15.108  0.00  0.00    +0.000 A 
ATOM     23  C   UNL     1       6.886   4.290  14.071  0.00  0.00    +0.000 A 
ATOM     24  N   UNL     1       5.563   4.059  13.994  0.00  0.00    +0.000 NA
ATOM     25  C   UNL     1       4.792   4.563  14.998  0.00  0.00    +0.000 A 
ENDBRANCH   7  20
TORSDOF 2
ENDMDL
