MODEL 1
REMARK VINA RESULT:      -7.2      0.000      0.000
REMARK  Name = 
REMARK  7 active torsions:
REMARK  status: ('A' for Active; 'I' for Inactive)
REMARK    1  A    between atoms: C_1  and  O_2
REMARK    2  A    between atoms: O_2  and  C_3
REMARK    3  A    between atoms: C_8  and  N_9
REMARK    4  A    between atoms: C_10  and  C_12
REMARK    5  A    between atoms: C_12  and  S_13
REMARK    6  A    between atoms: S_13  and  C_14
REMARK    7  A    between atoms: N_18  and  C_19
REMARK                            x       y       z     vdW  Elec       q    Type
REMARK                         _______ _______ _______ _____ _____    ______ ____
ROOT
ATOM      1  N   UNL     1       3.693   4.122  17.721  0.00  0.00    +0.000 N 
ATOM      2  C   UNL     1       4.307   5.336  17.472  0.00  0.00    +0.000 C 
ATOM      3  O   UNL     1       4.335   6.283  18.260  0.00  0.00    +0.000 OA
ATOM      4  H   UNL     1       3.862   3.354  17.078  0.00  0.00    +0.000 HD
ENDROOT
BRANCH   1  10
ATOM      5  C   UNL     1       3.429   3.068  19.906  0.00  0.00    +0.000 A 
ATOM      6  C   UNL     1       2.619   2.696  20.991  0.00  0.00    +0.000 A 
ATOM      7  C   UNL     1       1.283   3.090  21.050  0.00  0.00    +0.000 A 
ATOM      8  C   UNL     1       0.743   3.838  20.010  0.00  0.00    +0.000 A 
ATOM      9  C   UNL     1       1.526   4.180  18.905  0.00  0.00    +0.000 A 
ATOM     10  C   UNL     1       2.873   3.803  18.834  0.00  0.00    +0.000 A 
BRANCH   5  12
ATOM     11  C   UNL     1       5.164   1.607  20.578  0.00  0.00    +0.000 C 
ATOM     12  O   UNL     1       4.768   2.754  19.822  0.00  0.00    +0.000 OA
ENDBRANCH   5  12
ENDBRANCH   1  10
BRANCH   2  13
ATOM     13  C   UNL     1       5.105   5.451  16.186  0.00  0.00    +0.000 C 
BRANCH  13  14
ATOM     14  S   UNL     1       6.403   4.198  15.971  0.00  0.00    +0.000 S 
BRANCH  14  15
ATOM     15  C   UNL     1       7.052   4.741  14.456  0.00  0.00    +0.000 A 
ATOM     16  N   UNL     1       7.985   5.652  14.311  0.00  0.00    +0.000 NA
ATOM     17  N   UNL     1       8.222   5.742  12.964  0.00  0.00    +0.000 NA
ATOM     18  N   UNL     1       7.455   4.901  12.293  0.00  0.00    +0.000 NA
ATOM     19  N   UNL     1       6.699   4.278  13.224  0.00  0.00    +0.000 N 
BRANCH  19  20
ATOM     20  C   UNL     1       5.745   3.272  12.812  0.00  0.00    +0.000 C 
ATOM     21  C   UNL     1       4.567   3.846  12.015  0.00  0.00    +0.000 C 
ATOM     22  C   UNL     1       4.120   2.721  11.100  0.00  0.00    +0.000 C 
ATOM     23  C   UNL     1       5.368   1.908  10.799  0.00  0.00    +0.000 C 
ATOM     24  C   UNL     1       6.369   2.199  11.912  0.00  0.00    +0.000 C 
ENDBRANCH  19  20
ENDBRANCH  14  15
ENDBRANCH  13  14
ENDBRANCH   2  13
TORSDOF 6
ENDMDL
MODEL 2
REMARK VINA RESULT:      -7.0      1.115      1.204
REMARK  Name = 
REMARK  7 active torsions:
REMARK  status: ('A' for Active; 'I' for Inactive)
REMARK    1  A    between atoms: C_1  and  O_2
REMARK    2  A    between atoms: O_2  and  C_3
REMARK    3  A    between atoms: C_8  and  N_9
REMARK    4  A    between atoms: C_10  and  C_12
REMARK    5  A    between atoms: C_12  and  S_13
REMARK    6  A    between atoms: S_13  and  C_14
REMARK    7  A    between atoms: N_18  and  C_19
REMARK                            x       y       z     vdW  Elec       q    Type
REMARK                         _______ _______ _______ _____ _____    ______ ____
ROOT
ATOM      1  N   UNL     1       3.867   4.816  17.638  0.00  0.00    +0.000 N 
ATOM      2  C   UNL     1       4.283   6.053  17.181  0.00  0.00    +0.000 C 
ATOM      3  O   UNL     1       3.987   7.129  17.704  0.00  0.00    +0.000 OA
ATOM      4  H   UNL     1       4.293   3.985  17.237  0.00  0.00    +0.000 HD
ENDROOT
BRANCH   1  10
ATOM      5  C   UNL     1       2.309   3.299  18.743  0.00  0.00    +0.000 A 
ATOM      6  C   UNL     1       1.332   3.053  19.723  0.00  0.00    +0.000 A 
ATOM      7  C   UNL     1       1.003   4.031  20.660  0.00  0.00    +0.000 A 
ATOM      8  C   UNL     1       1.630   5.271  20.606  0.00  0.00    +0.000 A 
ATOM      9  C   UNL     1       2.571   5.543  19.611  0.00  0.00    +0.000 A 
ATOM     10  C   UNL     1       2.925   4.569  18.669  0.00  0.00    +0.000 A 
BRANCH   5  12
ATOM     11  C   UNL     1       3.584   1.346  18.349  0.00  0.00    +0.000 C 
ATOM     12  O   UNL     1       2.713   2.352  17.827  0.00  0.00    +0.000 OA
ENDBRANCH   5  12
ENDBRANCH   1  10
BRANCH   2  13
ATOM     13  C   UNL     1       5.274   6.064  16.032  0.00  0.00    +0.000 C 
BRANCH  13  14
ATOM     14  S   UNL     1       6.308   4.576  15.892  0.00  0.00    +0.000 S 
BRANCH  14  15
ATOM     15  C   UNL     1       7.062   4.916  14.367  0.00  0.00    +0.000 A 
ATOM     16  N   UNL     1       8.054   5.755  14.180  0.00  0.00    +0.000 NA
ATOM     17  N   UNL     1       8.363   5.685  12.846  0.00  0.00    +0.000 NA
ATOM     18  N   UNL     1       7.582   4.818  12.226  0.00  0.00    +0.000 NA
ATOM     19  N   UNL     1       6.744   4.341  13.174  0.00  0.00    +0.000 N 
BRANCH  19  20
ATOM     20  C   UNL     1       5.754   3.348  12.817  0.00  0.00    +0.000 C 
ATOM     21  C   UNL     1       4.607   3.916  11.972  0.00  0.00    +0.000 C 
ATOM     22  C   UNL     1       4.123   2.752  11.127  0.00  0.00    +0.000 C 
ATOM     23  C   UNL     1       5.340   1.873  10.892  0.00  0.00    +0.000 C 
ATOM     24  C   UNL     1       6.343   2.196  11.995  0.00  0.00    +0.000 C 
ENDBRANCH  19  20
ENDBRANCH  14  15
ENDBRANCH  13  14
ENDBRANCH   2  13
TORSDOF 6
ENDMDL
MODEL 3
REMARK VINA RESULT:      -6.9      1.962      2.714
REMARK  Name = 
REMARK  7 active torsions:
REMARK  status: ('A' for Active; 'I' for Inactive)
REMARK    1  A    between atoms: C_1  and  O_2
REMARK    2  A    between atoms: O_2  and  C_3
REMARK    3  A    between atoms: C_8  and  N_9
REMARK    4  A    between atoms: C_10  and  C_12
REMARK    5  A    between atoms: C_12  and  S_13
REMARK    6  A    between atoms: S_13  and  C_14
REMARK    7  A    between atoms: N_18  and  C_19
REMARK                            x       y       z     vdW  Elec       q    Type
REMARK                         _______ _______ _______ _____ _____    ______ ____
ROOT
ATOM      1  N   UNL     1       4.848   3.614  19.686  0.00  0.00    +0.000 N 
ATOM      2  C   UNL     1       5.233   4.906  19.377  0.00  0.00    +0.000 C 
ATOM      3  O   UNL     1       4.471   5.874  19.337  0.00  0.00    +0.000 OA
ATOM      4  H   UNL     1       5.573   2.921  19.850  0.00  0.00    +0.000 HD
ENDROOT
BRANCH   1  10
ATOM      5  C   UNL     1       2.812   2.671  18.729  0.00  0.00    +0.000 A 
ATOM      6  C   UNL     1       1.478   2.254  18.867  0.00  0.00    +0.000 A 
ATOM      7  C   UNL     1       0.859   2.254  20.116  0.00  0.00    +0.000 A 
ATOM      8  C   UNL     1       1.564   2.693  21.231  0.00  0.00    +0.000 A 
ATOM      9  C   UNL     1       2.877   3.150  21.101  0.00  0.00    +0.000 A 
ATOM     10  C   UNL     1       3.520   3.146  19.856  0.00  0.00    +0.000 A 
BRANCH   5  12
ATOM     11  C   UNL     1       3.160   3.698  16.626  0.00  0.00    +0.000 C 
ATOM     12  O   UNL     1       3.491   2.640  17.530  0.00  0.00    +0.000 OA
ENDBRANCH   5  12
ENDBRANCH   1  10
BRANCH   2  13
ATOM     13  C   UNL     1       6.719   5.158  19.202  0.00  0.00    +0.000 C 
BRANCH  13  14
ATOM     14  S   UNL     1       7.399   4.669  17.589  0.00  0.00    +0.000 S 
BRANCH  14  15
ATOM     15  C   UNL     1       6.393   5.645  16.567  0.00  0.00    +0.000 A 
ATOM     16  N   UNL     1       5.799   6.759  16.925  0.00  0.00    +0.000 NA
ATOM     17  N   UNL     1       5.147   7.217  15.810  0.00  0.00    +0.000 NA
ATOM     18  N   UNL     1       5.341   6.406  14.784  0.00  0.00    +0.000 NA
ATOM     19  N   UNL     1       6.110   5.401  15.257  0.00  0.00    +0.000 N 
BRANCH  19  20
ATOM     20  C   UNL     1       6.516   4.334  14.368  0.00  0.00    +0.000 C 
ATOM     21  C   UNL     1       5.345   3.707  13.602  0.00  0.00    +0.000 C 
ATOM     22  C   UNL     1       5.944   3.204  12.302  0.00  0.00    +0.000 C 
ATOM     23  C   UNL     1       7.097   4.141  11.985  0.00  0.00    +0.000 C 
ATOM     24  C   UNL     1       7.506   4.804  13.296  0.00  0.00    +0.000 C 
ENDBRANCH  19  20
ENDBRANCH  14  15
ENDBRANCH  13  14
ENDBRANCH   2  13
TORSDOF 6
ENDMDL
MODEL 4
REMARK VINA RESULT:      -6.9      1.953      2.875
REMARK  Name = 
REMARK  7 active torsions:
REMARK  status: ('A' for Active; 'I' for Inactive)
REMARK    1  A    between atoms: C_1  and  O_2
REMARK    2  A    between atoms: O_2  and  C_3
REMARK    3  A    between atoms: C_8  and  N_9
REMARK    4  A    between atoms: C_10  and  C_12
REMARK    5  A    between atoms: C_12  and  S_13
REMARK    6  A    between atoms: S_13  and  C_14
REMARK    7  A    between atoms: N_18  and  C_19
REMARK                            x       y       z     vdW  Elec       q    Type
REMARK                         _______ _______ _______ _____ _____    ______ ____
ROOT
ATOM      1  N   UNL     1       5.047   3.829  18.400  0.00  0.00    +0.000 N 
ATOM      2  C   UNL     1       5.646   4.820  19.155  0.00  0.00    +0.000 C 
ATOM      3  O   UNL     1       5.120   5.385  20.116  0.00  0.00    +0.000 OA
ATOM      4  H   UNL     1       5.619   3.316  17.735  0.00  0.00    +0.000 HD
ENDROOT
BRANCH   1  10
ATOM      5  C   UNL     1       2.674   4.261  18.035  0.00  0.00    +0.000 A 
ATOM      6  C   UNL     1       1.329   3.877  18.165  0.00  0.00    +0.000 A 
ATOM      7  C   UNL     1       0.994   2.628  18.687  0.00  0.00    +0.000 A 
ATOM      8  C   UNL     1       2.002   1.768  19.106  0.00  0.00    +0.000 A 
ATOM      9  C   UNL     1       3.341   2.154  19.022  0.00  0.00    +0.000 A 
ATOM     10  C   UNL     1       3.698   3.399  18.489  0.00  0.00    +0.000 A 
BRANCH   5  12
ATOM     11  C   UNL     1       2.557   6.622  18.133  0.00  0.00    +0.000 C 
ATOM     12  O   UNL     1       3.065   5.459  17.476  0.00  0.00    +0.000 OA
ENDBRANCH   5  12
ENDBRANCH   1  10
BRANCH   2  13
ATOM     13  C   UNL     1       7.099   5.134  18.849  0.00  0.00    +0.000 C 
BRANCH  13  14
ATOM     14  S   UNL     1       7.658   4.651  17.188  0.00  0.00    +0.000 S 
BRANCH  14  15
ATOM     15  C   UNL     1       6.542   5.588  16.246  0.00  0.00    +0.000 A 
ATOM     16  N   UNL     1       6.001   6.724  16.617  0.00  0.00    +0.000 NA
ATOM     17  N   UNL     1       5.223   7.135  15.566  0.00  0.00    +0.000 NA
ATOM     18  N   UNL     1       5.287   6.272  14.566  0.00  0.00    +0.000 NA
ATOM     19  N   UNL     1       6.102   5.282  14.993  0.00  0.00    +0.000 N 
BRANCH  19  20
ATOM     20  C   UNL     1       6.393   4.169  14.116  0.00  0.00    +0.000 C 
ATOM     21  C   UNL     1       5.166   3.677  13.338  0.00  0.00    +0.000 C 
ATOM     22  C   UNL     1       5.720   3.098  12.049  0.00  0.00    +0.000 C 
ATOM     23  C   UNL     1       6.979   3.891  11.743  0.00  0.00    +0.000 C 
ATOM     24  C   UNL     1       7.445   4.512  13.056  0.00  0.00    +0.000 C 
ENDBRANCH  19  20
ENDBRANCH  14  15
ENDBRANCH  13  14
ENDBRANCH   2  13
TORSDOF 6
ENDMDL
MODEL 5
REMARK VINA RESULT:      -6.9      4.233      6.228
REMARK  Name = 
REMARK  7 active torsions:
REMARK  status: ('A' for Active; 'I' for Inactive)
REMARK    1  A    between atoms: C_1  and  O_2
REMARK    2  A    between atoms: O_2  and  C_3
REMARK    3  A    between atoms: C_8  and  N_9
REMARK    4  A    between atoms: C_10  and  C_12
REMARK    5  A    between atoms: C_12  and  S_13
REMARK    6  A    between atoms: S_13  and  C_14
REMARK    7  A    between atoms: N_18  and  C_19
REMARK                            x       y       z     vdW  Elec       q    Type
REMARK                         _______ _______ _______ _____ _____    ______ ____
ROOT
ATOM      1  N   UNL     1       2.457   6.186  20.504  0.00  0.00    +0.000 N 
ATOM      2  C   UNL     1       1.708   5.029  20.613  0.00  0.00    +0.000 C 
ATOM      3  O   UNL     1       0.664   4.808  19.998  0.00  0.00    +0.000 OA
ATOM      4  H   UNL     1       3.380   6.206  20.927  0.00  0.00    +0.000 HD
ENDROOT
BRANCH   1  10
ATOM      5  C   UNL     1       1.424   8.397  20.503  0.00  0.00    +0.000 A 
ATOM      6  C   UNL     1       1.005   9.548  19.816  0.00  0.00    +0.000 A 
ATOM      7  C   UNL     1       1.290   9.710  18.461  0.00  0.00    +0.000 A 
ATOM      8  C   UNL     1       1.973   8.709  17.780  0.00  0.00    +0.000 A 
ATOM      9  C   UNL     1       2.358   7.541  18.440  0.00  0.00    +0.000 A 
ATOM     10  C   UNL     1       2.092   7.365  19.804  0.00  0.00    +0.000 A 
BRANCH   5  12
ATOM     11  C   UNL     1       0.433   9.221  22.488  0.00  0.00    +0.000 C 
ATOM     12  O   UNL     1       1.219   8.208  21.853  0.00  0.00    +0.000 OA
ENDBRANCH   5  12
ENDBRANCH   1  10
BRANCH   2  13
ATOM     13  C   UNL     1       2.293   3.909  21.454  0.00  0.00    +0.000 C 
BRANCH  13  14
ATOM     14  S   UNL     1       3.772   3.115  20.760  0.00  0.00    +0.000 S 
BRANCH  14  15
ATOM     15  C   UNL     1       3.256   2.985  19.108  0.00  0.00    +0.000 A 
ATOM     16  N   UNL     1       2.344   2.155  18.660  0.00  0.00    +0.000 NA
ATOM     17  N   UNL     1       2.221   2.414  17.320  0.00  0.00    +0.000 NA
ATOM     18  N   UNL     1       3.036   3.387  16.951  0.00  0.00    +0.000 NA
ATOM     19  N   UNL     1       3.708   3.741  18.069  0.00  0.00    +0.000 N 
BRANCH  19  20
ATOM     20  C   UNL     1       4.687   4.805  18.007  0.00  0.00    +0.000 C 
ATOM     21  C   UNL     1       6.127   4.312  18.196  0.00  0.00    +0.000 C 
ATOM     22  C   UNL     1       6.988   5.295  17.425  0.00  0.00    +0.000 C 
ATOM     23  C   UNL     1       6.129   5.784  16.271  0.00  0.00    +0.000 C 
ATOM     24  C   UNL     1       4.675   5.540  16.662  0.00  0.00    +0.000 C 
ENDBRANCH  19  20
ENDBRANCH  14  15
ENDBRANCH  13  14
ENDBRANCH   2  13
TORSDOF 6
ENDMDL
MODEL 6
REMARK VINA RESULT:      -6.9      5.792      8.344
REMARK  Name = 
REMARK  7 active torsions:
REMARK  status: ('A' for Active; 'I' for Inactive)
REMARK    1  A    between atoms: C_1  and  O_2
REMARK    2  A    between atoms: O_2  and  C_3
REMARK    3  A    between atoms: C_8  and  N_9
REMARK    4  A    between atoms: C_10  and  C_12
REMARK    5  A    between atoms: C_12  and  S_13
REMARK    6  A    between atoms: S_13  and  C_14
REMARK    7  A    between atoms: N_18  and  C_19
REMARK                            x       y       z     vdW  Elec       q    Type
REMARK                         _______ _______ _______ _____ _____    ______ ____
ROOT
ATOM      1  N   UNL     1       8.429  10.355  17.748  0.00  0.00    +0.000 N 
ATOM      2  C   UNL     1       8.398   9.043  18.183  0.00  0.00    +0.000 C 
ATOM      3  O   UNL     1       8.961   8.626  19.197  0.00  0.00    +0.000 OA
ATOM      4  H   UNL     1       7.805  10.629  16.994  0.00  0.00    +0.000 HD
ENDROOT
BRANCH   1  10
ATOM      5  C   UNL     1       8.866  12.742  17.997  0.00  0.00    +0.000 A 
ATOM      6  C   UNL     1       9.667  13.793  18.473  0.00  0.00    +0.000 A 
ATOM      7  C   UNL     1      10.778  13.534  19.273  0.00  0.00    +0.000 A 
ATOM      8  C   UNL     1      11.109  12.219  19.581  0.00  0.00    +0.000 A 
ATOM      9  C   UNL     1      10.347  11.163  19.080  0.00  0.00    +0.000 A 
ATOM     10  C   UNL     1       9.219  11.404  18.284  0.00  0.00    +0.000 A 
BRANCH   5  12
ATOM     11  C   UNL     1       6.959  14.091  17.619  0.00  0.00    +0.000 C 
ATOM     12  O   UNL     1       7.726  12.943  17.249  0.00  0.00    +0.000 OA
ENDBRANCH   5  12
ENDBRANCH   1  10
BRANCH   2  13
ATOM     13  C   UNL     1       7.500   8.087  17.419  0.00  0.00    +0.000 C 
BRANCH  13  14
ATOM     14  S   UNL     1       7.423   6.400  18.091  0.00  0.00    +0.000 S 
BRANCH  14  15
ATOM     15  C   UNL     1       6.819   5.579  16.687  0.00  0.00    +0.000 A 
ATOM     16  N   UNL     1       7.443   5.479  15.537  0.00  0.00    +0.000 NA
ATOM     17  N   UNL     1       6.634   4.723  14.730  0.00  0.00    +0.000 NA
ATOM     18  N   UNL     1       5.537   4.359  15.371  0.00  0.00    +0.000 NA
ATOM     19  N   UNL     1       5.635   4.911  16.601  0.00  0.00    +0.000 N 
BRANCH  19  20
ATOM     20  C   UNL     1       4.581   4.691  17.568  0.00  0.00    +0.000 C 
ATOM     21  C   UNL     1       3.619   5.879  17.693  0.00  0.00    +0.000 C 
ATOM     22  C   UNL     1       2.292   5.273  18.112  0.00  0.00    +0.000 C 
ATOM     23  C   UNL     1       2.259   3.882  17.501  0.00  0.00    +0.000 C 
ATOM     24  C   UNL     1       3.704   3.483  17.220  0.00  0.00    +0.000 C 
ENDBRANCH  19  20
ENDBRANCH  14  15
ENDBRANCH  13  14
ENDBRANCH   2  13
TORSDOF 6
ENDMDL
MODEL 7
REMARK VINA RESULT:      -6.8      4.943      6.945
REMARK  Name = 
REMARK  7 active torsions:
REMARK  status: ('A' for Active; 'I' for Inactive)
REMARK    1  A    between atoms: C_1  and  O_2
REMARK    2  A    between atoms: O_2  and  C_3
REMARK    3  A    between atoms: C_8  and  N_9
REMARK    4  A    between atoms: C_10  and  C_12
REMARK    5  A    between atoms: C_12  and  S_13
REMARK    6  A    between atoms: S_13  and  C_14
REMARK    7  A    between atoms: N_18  and  C_19
REMARK                            x       y       z     vdW  Elec       q    Type
REMARK                         _______ _______ _______ _____ _____    ______ ____
ROOT
ATOM      1  N   UNL     1       0.936   9.108  19.205  0.00  0.00    +0.000 N 
ATOM      2  C   UNL     1       1.870   9.154  18.187  0.00  0.00    +0.000 C 
ATOM      3  O   UNL     1       2.159  10.165  17.546  0.00  0.00    +0.000 OA
ATOM      4  H   UNL     1       0.885   8.270  19.778  0.00  0.00    +0.000 HD
ENDROOT
BRANCH   1  10
ATOM      5  C   UNL     1       0.157  10.696  20.885  0.00  0.00    +0.000 A 
ATOM      6  C   UNL     1      -0.746  11.689  21.300  0.00  0.00    +0.000 A 
ATOM      7  C   UNL     1      -1.715  12.180  20.426  0.00  0.00    +0.000 A 
ATOM      8  C   UNL     1      -1.802  11.662  19.139  0.00  0.00    +0.000 A 
ATOM      9  C   UNL     1      -0.938  10.645  18.727  0.00  0.00    +0.000 A 
ATOM     10  C   UNL     1       0.050  10.148  19.586  0.00  0.00    +0.000 A 
BRANCH   5  12
ATOM     11  C   UNL     1       0.739   9.338  22.732  0.00  0.00    +0.000 C 
ATOM     12  O   UNL     1       1.168  10.215  21.688  0.00  0.00    +0.000 OA
ENDBRANCH   5  12
ENDBRANCH   1  10
BRANCH   2  13
ATOM     13  C   UNL     1       2.678   7.893  17.939  0.00  0.00    +0.000 C 
BRANCH  13  14
ATOM     14  S   UNL     1       2.624   6.667  19.279  0.00  0.00    +0.000 S 
BRANCH  14  15
ATOM     15  C   UNL     1       2.624   5.222  18.319  0.00  0.00    +0.000 A 
ATOM     16  N   UNL     1       1.601   4.415  18.158  0.00  0.00    +0.000 NA
ATOM     17  N   UNL     1       2.022   3.434  17.300  0.00  0.00    +0.000 NA
ATOM     18  N   UNL     1       3.277   3.633  16.934  0.00  0.00    +0.000 NA
ATOM     19  N   UNL     1       3.672   4.749  17.587  0.00  0.00    +0.000 N 
BRANCH  19  20
ATOM     20  C   UNL     1       5.014   5.251  17.394  0.00  0.00    +0.000 C 
ATOM     21  C   UNL     1       6.036   4.632  18.356  0.00  0.00    +0.000 C 
ATOM     22  C   UNL     1       7.357   4.668  17.609  0.00  0.00    +0.000 C 
ATOM     23  C   UNL     1       7.006   4.541  16.136  0.00  0.00    +0.000 C 
ATOM     24  C   UNL     1       5.551   4.973  15.985  0.00  0.00    +0.000 C 
ENDBRANCH  19  20
ENDBRANCH  14  15
ENDBRANCH  13  14
ENDBRANCH   2  13
TORSDOF 6
ENDMDL
MODEL 8
REMARK VINA RESULT:      -6.8      2.370      7.116
REMARK  Name = 
REMARK  7 active torsions:
REMARK  status: ('A' for Active; 'I' for Inactive)
REMARK    1  A    between atoms: C_1  and  O_2
REMARK    2  A    between atoms: O_2  and  C_3
REMARK    3  A    between atoms: C_8  and  N_9
REMARK    4  A    between atoms: C_10  and  C_12
REMARK    5  A    between atoms: C_12  and  S_13
REMARK    6  A    between atoms: S_13  and  C_14
REMARK    7  A    between atoms: N_18  and  C_19
REMARK                            x       y       z     vdW  Elec       q    Type
REMARK                         _______ _______ _______ _____ _____    ______ ____
ROOT
ATOM      1  N   UNL     1       6.845   5.711  15.737  0.00  0.00    +0.000 N 
ATOM      2  C   UNL     1       7.457   5.215  16.873  0.00  0.00    +0.000 C 
ATOM      3  O   UNL     1       8.113   4.172  16.918  0.00  0.00    +0.000 OA
ATOM      4  H   UNL     1       6.466   6.653  15.764  0.00  0.00    +0.000 HD
ENDROOT
BRANCH   1  10
ATOM      5  C   UNL     1       5.597   4.245  14.239  0.00  0.00    +0.000 A 
ATOM      6  C   UNL     1       5.491   3.543  13.026  0.00  0.00    +0.000 A 
ATOM      7  C   UNL     1       6.464   3.678  12.038  0.00  0.00    +0.000 A 
ATOM      8  C   UNL     1       7.564   4.498  12.268  0.00  0.00    +0.000 A 
ATOM      9  C   UNL     1       7.704   5.168  13.485  0.00  0.00    +0.000 A 
ATOM     10  C   UNL     1       6.729   5.054  14.484  0.00  0.00    +0.000 A 
BRANCH   5  12
ATOM     11  C   UNL     1       4.814   3.141  16.179  0.00  0.00    +0.000 C 
ATOM     12  O   UNL     1       4.638   4.192  15.227  0.00  0.00    +0.000 OA
ENDBRANCH   5  12
ENDBRANCH   1  10
BRANCH   2  13
ATOM     13  C   UNL     1       7.417   6.089  18.113  0.00  0.00    +0.000 C 
BRANCH  13  14
ATOM     14  S   UNL     1       6.335   5.489  19.444  0.00  0.00    +0.000 S 
BRANCH  14  15
ATOM     15  C   UNL     1       4.799   5.819  18.710  0.00  0.00    +0.000 A 
ATOM     16  N   UNL     1       4.581   6.704  17.766  0.00  0.00    +0.000 NA
ATOM     17  N   UNL     1       3.250   6.607  17.454  0.00  0.00    +0.000 NA
ATOM     18  N   UNL     1       2.660   5.678  18.186  0.00  0.00    +0.000 NA
ATOM     19  N   UNL     1       3.625   5.188  18.996  0.00  0.00    +0.000 N 
BRANCH  19  20
ATOM     20  C   UNL     1       3.304   4.131  19.930  0.00  0.00    +0.000 C 
ATOM     21  C   UNL     1       2.247   4.539  20.963  0.00  0.00    +0.000 C 
ATOM     22  C   UNL     1       1.536   3.250  21.333  0.00  0.00    +0.000 C 
ATOM     23  C   UNL     1       1.590   2.374  20.093  0.00  0.00    +0.000 C 
ATOM     24  C   UNL     1       2.746   2.882  19.238  0.00  0.00    +0.000 C 
ENDBRANCH  19  20
ENDBRANCH  14  15
ENDBRANCH  13  14
ENDBRANCH   2  13
TORSDOF 6
ENDMDL
MODEL 9
REMARK VINA RESULT:      -6.8      3.617      5.396
REMARK  Name = 
REMARK  7 active torsions:
REMARK  status: ('A' for Active; 'I' for Inactive)
REMARK    1  A    between atoms: C_1  and  O_2
REMARK    2  A    between atoms: O_2  and  C_3
REMARK    3  A    between atoms: C_8  and  N_9
REMARK    4  A    between atoms: C_10  and  C_12
REMARK    5  A    between atoms: C_12  and  S_13
REMARK    6  A    between atoms: S_13  and  C_14
REMARK    7  A    between atoms: N_18  and  C_19
REMARK                            x       y       z     vdW  Elec       q    Type
REMARK                         _______ _______ _______ _____ _____    ______ ____
ROOT
ATOM      1  N   UNL     1       2.783   6.688  19.389  0.00  0.00    +0.000 N 
ATOM      2  C   UNL     1       2.483   5.470  18.807  0.00  0.00    +0.000 C 
ATOM      3  O   UNL     1       1.738   5.320  17.838  0.00  0.00    +0.000 OA
ATOM      4  H   UNL     1       3.529   6.724  20.078  0.00  0.00    +0.000 HD
ENDROOT
BRANCH   1  10
ATOM      5  C   UNL     1       1.369   8.560  20.059  0.00  0.00    +0.000 A 
ATOM      6  C   UNL     1       0.724   9.771  19.758  0.00  0.00    +0.000 A 
ATOM      7  C   UNL     1       0.923  10.396  18.529  0.00  0.00    +0.000 A 
ATOM      8  C   UNL     1       1.749   9.800  17.582  0.00  0.00    +0.000 A 
ATOM      9  C   UNL     1       2.363   8.576  17.852  0.00  0.00    +0.000 A 
ATOM     10  C   UNL     1       2.185   7.938  19.086  0.00  0.00    +0.000 A 
BRANCH   5  12
ATOM     11  C   UNL     1       0.846   8.771  22.357  0.00  0.00    +0.000 C 
ATOM     12  O   UNL     1       1.253   7.926  21.277  0.00  0.00    +0.000 OA
ENDBRANCH   5  12
ENDBRANCH   1  10
BRANCH   2  13
ATOM     13  C   UNL     1       3.231   4.256  19.330  0.00  0.00    +0.000 C 
BRANCH  13  14
ATOM     14  S   UNL     1       4.498   3.591  18.210  0.00  0.00    +0.000 S 
BRANCH  14  15
ATOM     15  C   UNL     1       5.837   4.577  18.704  0.00  0.00    +0.000 A 
ATOM     16  N   UNL     1       6.241   4.746  19.941  0.00  0.00    +0.000 NA
ATOM     17  N   UNL     1       7.342   5.560  19.873  0.00  0.00    +0.000 NA
ATOM     18  N   UNL     1       7.614   5.882  18.620  0.00  0.00    +0.000 NA
ATOM     19  N   UNL     1       6.658   5.282  17.876  0.00  0.00    +0.000 N 
BRANCH  19  20
ATOM     20  C   UNL     1       6.676   5.431  16.437  0.00  0.00    +0.000 C 
ATOM     21  C   UNL     1       7.124   4.160  15.704  0.00  0.00    +0.000 C 
ATOM     22  C   UNL     1       6.430   4.214  14.356  0.00  0.00    +0.000 C 
ATOM     23  C   UNL     1       5.124   4.954  14.589  0.00  0.00    +0.000 C 
ATOM     24  C   UNL     1       5.297   5.775  15.862  0.00  0.00    +0.000 C 
ENDBRANCH  19  20
ENDBRANCH  14  15
ENDBRANCH  13  14
ENDBRANCH   2  13
TORSDOF 6
ENDMDL
