MODEL 1
REMARK VINA RESULT:      -7.1      0.000      0.000
REMARK  Name = 
REMARK  3 active torsions:
REMARK  status: ('A' for Active; 'I' for Inactive)
REMARK    1  A    between atoms: C_1  and  S_2
REMARK    2  A    between atoms: S_2  and  C_3
REMARK    3  A    between atoms: C_9  and  C_10
REMARK                            x       y       z     vdW  Elec       q    Type
REMARK                         _______ _______ _______ _____ _____    ______ ____
ROOT
ATOM      1  C   UNL     1       1.965   8.627  18.798  0.00  0.00    +0.000 A 
ATOM      2  C   UNL     1       1.482   8.597  20.105  0.00  0.00    +0.000 A 
ATOM      3  C   UNL     1       1.509   7.409  20.842  0.00  0.00    +0.000 A 
ATOM      4  C   UNL     1       2.020   6.232  20.281  0.00  0.00    +0.000 A 
ATOM      5  C   UNL     1       2.578   6.274  18.994  0.00  0.00    +0.000 A 
ATOM      6  C   UNL     1       2.519   7.468  18.251  0.00  0.00    +0.000 A 
ATOM      7  C   UNL     1       3.343   5.122  18.412  0.00  0.00    +0.000 C 
ATOM      8  N   UNL     1       2.971   3.887  18.469  0.00  0.00    +0.000 NA
ATOM      9  C   UNL     1       1.719   3.547  19.134  0.00  0.00    +0.000 C 
ATOM     10  C   UNL     1       1.864   3.787  20.625  0.00  0.00    +0.000 C 
ATOM     11  S   UNL     1       1.805   2.540  21.743  0.00  0.00    +0.000 S 
ATOM     12  N   UNL     1       1.941   5.077  21.077  0.00  0.00    +0.000 N 
ATOM     13  H   UNL     1       1.809   5.183  22.077  0.00  0.00    +0.000 HD
ENDROOT
BRANCH   7  14
ATOM     14  C   UNL     1       4.636   5.406  17.702  0.00  0.00    +0.000 A 
ATOM     15  C   UNL     1       4.753   5.278  16.311  0.00  0.00    +0.000 A 
ATOM     16  C   UNL     1       5.984   5.490  15.689  0.00  0.00    +0.000 A 
ATOM     17  C   UNL     1       7.097   5.854  16.448  0.00  0.00    +0.000 A 
ATOM     18  C   UNL     1       6.978   6.022  17.827  0.00  0.00    +0.000 A 
ATOM     19  C   UNL     1       5.750   5.802  18.454  0.00  0.00    +0.000 A 
ENDBRANCH   7  14
BRANCH   1  21
ATOM     20  C   UNL     1       1.001  11.194  19.050  0.00  0.00    +0.000 C 
ATOM     21  S   UNL     1       1.941  10.161  17.894  0.00  0.00    +0.000 S 
ENDBRANCH   1  21
TORSDOF 2
ENDMDL
MODEL 2
REMARK VINA RESULT:      -7.0      0.065      1.082
REMARK  Name = 
REMARK  3 active torsions:
REMARK  status: ('A' for Active; 'I' for Inactive)
REMARK    1  A    between atoms: C_1  and  S_2
REMARK    2  A    between atoms: S_2  and  C_3
REMARK    3  A    between atoms: C_9  and  C_10
REMARK                            x       y       z     vdW  Elec       q    Type
REMARK                         _______ _______ _______ _____ _____    ______ ____
ROOT
ATOM      1  C   UNL     1       1.991   8.594  18.794  0.00  0.00    +0.000 A 
ATOM      2  C   UNL     1       1.494   8.570  20.096  0.00  0.00    +0.000 A 
ATOM      3  C   UNL     1       1.512   7.384  20.837  0.00  0.00    +0.000 A 
ATOM      4  C   UNL     1       2.027   6.205  20.285  0.00  0.00    +0.000 A 
ATOM      5  C   UNL     1       2.598   6.241  19.003  0.00  0.00    +0.000 A 
ATOM      6  C   UNL     1       2.550   7.433  18.256  0.00  0.00    +0.000 A 
ATOM      7  C   UNL     1       3.367   5.086  18.434  0.00  0.00    +0.000 C 
ATOM      8  N   UNL     1       2.993   3.851  18.491  0.00  0.00    +0.000 NA
ATOM      9  C   UNL     1       1.733   3.516  19.144  0.00  0.00    +0.000 C 
ATOM     10  C   UNL     1       1.863   3.761  20.636  0.00  0.00    +0.000 C 
ATOM     11  S   UNL     1       1.790   2.517  21.757  0.00  0.00    +0.000 S 
ATOM     12  N   UNL     1       1.937   5.052  21.084  0.00  0.00    +0.000 N 
ATOM     13  H   UNL     1       1.796   5.162  22.082  0.00  0.00    +0.000 HD
ENDROOT
BRANCH   7  14
ATOM     14  C   UNL     1       4.668   5.365  17.736  0.00  0.00    +0.000 A 
ATOM     15  C   UNL     1       5.793   5.820  18.435  0.00  0.00    +0.000 A 
ATOM     16  C   UNL     1       6.969   6.128  17.748  0.00  0.00    +0.000 A 
ATOM     17  C   UNL     1       7.034   5.959  16.366  0.00  0.00    +0.000 A 
ATOM     18  C   UNL     1       5.931   5.468  15.668  0.00  0.00    +0.000 A 
ATOM     19  C   UNL     1       4.751   5.168  16.351  0.00  0.00    +0.000 A 
ENDBRANCH   7  14
BRANCH   1  21
ATOM     20  C   UNL     1       1.040  11.167  19.033  0.00  0.00    +0.000 C 
ATOM     21  S   UNL     1       1.980  10.125  17.884  0.00  0.00    +0.000 S 
ENDBRANCH   1  21
TORSDOF 2
ENDMDL
MODEL 3
REMARK VINA RESULT:      -6.8      2.250      4.758
REMARK  Name = 
REMARK  3 active torsions:
REMARK  status: ('A' for Active; 'I' for Inactive)
REMARK    1  A    between atoms: C_1  and  S_2
REMARK    2  A    between atoms: S_2  and  C_3
REMARK    3  A    between atoms: C_9  and  C_10
REMARK                            x       y       z     vdW  Elec       q    Type
REMARK                         _______ _______ _______ _____ _____    ______ ____
ROOT
ATOM      1  C   UNL     1       1.652   8.527  19.479  0.00  0.00    +0.000 A 
ATOM      2  C   UNL     1       1.929   9.083  18.231  0.00  0.00    +0.000 A 
ATOM      3  C   UNL     1       2.845   8.468  17.371  0.00  0.00    +0.000 A 
ATOM      4  C   UNL     1       3.497   7.288  17.747  0.00  0.00    +0.000 A 
ATOM      5  C   UNL     1       3.165   6.682  18.969  0.00  0.00    +0.000 A 
ATOM      6  C   UNL     1       2.264   7.324  19.839  0.00  0.00    +0.000 A 
ATOM      7  C   UNL     1       3.646   5.312  19.343  0.00  0.00    +0.000 C 
ATOM      8  N   UNL     1       4.857   4.888  19.190  0.00  0.00    +0.000 NA
ATOM      9  C   UNL     1       5.859   5.780  18.621  0.00  0.00    +0.000 C 
ATOM     10  C   UNL     1       5.540   6.022  17.157  0.00  0.00    +0.000 C 
ATOM     11  S   UNL     1       6.543   5.497  15.923  0.00  0.00    +0.000 S 
ATOM     12  N   UNL     1       4.448   6.786  16.843  0.00  0.00    +0.000 N 
ATOM     13  H   UNL     1       4.414   7.098  15.878  0.00  0.00    +0.000 HD
ENDROOT
BRANCH   7  14
ATOM     14  C   UNL     1       2.665   4.347  19.947  0.00  0.00    +0.000 A 
ATOM     15  C   UNL     1       2.732   3.981  21.298  0.00  0.00    +0.000 A 
ATOM     16  C   UNL     1       1.843   3.036  21.813  0.00  0.00    +0.000 A 
ATOM     17  C   UNL     1       0.869   2.473  20.990  0.00  0.00    +0.000 A 
ATOM     18  C   UNL     1       0.770   2.863  19.654  0.00  0.00    +0.000 A 
ATOM     19  C   UNL     1       1.664   3.800  19.134  0.00  0.00    +0.000 A 
ENDBRANCH   7  14
BRANCH   1  21
ATOM     20  C   UNL     1       1.261   9.066  22.150  0.00  0.00    +0.000 C 
ATOM     21  S   UNL     1       0.462   9.317  20.542  0.00  0.00    +0.000 S 
ENDBRANCH   1  21
TORSDOF 2
ENDMDL
MODEL 4
REMARK VINA RESULT:      -6.8      2.250      4.638
REMARK  Name = 
REMARK  3 active torsions:
REMARK  status: ('A' for Active; 'I' for Inactive)
REMARK    1  A    between atoms: C_1  and  S_2
REMARK    2  A    between atoms: S_2  and  C_3
REMARK    3  A    between atoms: C_9  and  C_10
REMARK                            x       y       z     vdW  Elec       q    Type
REMARK                         _______ _______ _______ _____ _____    ______ ____
ROOT
ATOM      1  C   UNL     1       1.675   8.464  19.426  0.00  0.00    +0.000 A 
ATOM      2  C   UNL     1       1.973   9.038  18.192  0.00  0.00    +0.000 A 
ATOM      3  C   UNL     1       2.912   8.442  17.344  0.00  0.00    +0.000 A 
ATOM      4  C   UNL     1       3.567   7.263  17.720  0.00  0.00    +0.000 A 
ATOM      5  C   UNL     1       3.215   6.640  18.927  0.00  0.00    +0.000 A 
ATOM      6  C   UNL     1       2.289   7.263  19.785  0.00  0.00    +0.000 A 
ATOM      7  C   UNL     1       3.701   5.269  19.294  0.00  0.00    +0.000 C 
ATOM      8  N   UNL     1       4.918   4.859  19.162  0.00  0.00    +0.000 NA
ATOM      9  C   UNL     1       5.924   5.766  18.625  0.00  0.00    +0.000 C 
ATOM     10  C   UNL     1       5.633   6.023  17.158  0.00  0.00    +0.000 C 
ATOM     11  S   UNL     1       6.668   5.522  15.939  0.00  0.00    +0.000 S 
ATOM     12  N   UNL     1       4.542   6.781  16.830  0.00  0.00    +0.000 N 
ATOM     13  H   UNL     1       4.525   7.105  15.869  0.00  0.00    +0.000 HD
ENDROOT
BRANCH   7  14
ATOM     14  C   UNL     1       2.716   4.288  19.866  0.00  0.00    +0.000 A 
ATOM     15  C   UNL     1       1.716   3.708  19.075  0.00  0.00    +0.000 A 
ATOM     16  C   UNL     1       0.779   2.847  19.650  0.00  0.00    +0.000 A 
ATOM     17  C   UNL     1       0.852   2.543  21.009  0.00  0.00    +0.000 A 
ATOM     18  C   UNL     1       1.869   3.086  21.794  0.00  0.00    +0.000 A 
ATOM     19  C   UNL     1       2.802   3.955  21.224  0.00  0.00    +0.000 A 
ENDBRANCH   7  14
BRANCH   1  21
ATOM     20  C   UNL     1       1.285   9.089  22.079  0.00  0.00    +0.000 C 
ATOM     21  S   UNL     1       0.455   9.231  20.473  0.00  0.00    +0.000 S 
ENDBRANCH   1  21
TORSDOF 2
ENDMDL
MODEL 5
REMARK VINA RESULT:      -6.6      3.891      6.893
REMARK  Name = 
REMARK  3 active torsions:
REMARK  status: ('A' for Active; 'I' for Inactive)
REMARK    1  A    between atoms: C_1  and  S_2
REMARK    2  A    between atoms: S_2  and  C_3
REMARK    3  A    between atoms: C_9  and  C_10
REMARK                            x       y       z     vdW  Elec       q    Type
REMARK                         _______ _______ _______ _____ _____    ______ ____
ROOT
ATOM      1  C   UNL     1       5.426   3.965  13.335  0.00  0.00    +0.000 A 
ATOM      2  C   UNL     1       6.803   4.169  13.261  0.00  0.00    +0.000 A 
ATOM      3  C   UNL     1       7.481   4.802  14.308  0.00  0.00    +0.000 A 
ATOM      4  C   UNL     1       6.790   5.241  15.443  0.00  0.00    +0.000 A 
ATOM      5  C   UNL     1       5.417   4.971  15.557  0.00  0.00    +0.000 A 
ATOM      6  C   UNL     1       4.740   4.359  14.486  0.00  0.00    +0.000 A 
ATOM      7  C   UNL     1       4.655   5.205  16.827  0.00  0.00    +0.000 C 
ATOM      8  N   UNL     1       4.748   6.266  17.558  0.00  0.00    +0.000 NA
ATOM      9  C   UNL     1       5.646   7.339  17.148  0.00  0.00    +0.000 C 
ATOM     10  C   UNL     1       7.082   6.869  17.284  0.00  0.00    +0.000 C 
ATOM     11  S   UNL     1       8.148   7.552  18.382  0.00  0.00    +0.000 S 
ATOM     12  N   UNL     1       7.548   5.927  16.408  0.00  0.00    +0.000 N 
ATOM     13  H   UNL     1       8.557   5.819  16.399  0.00  0.00    +0.000 HD
ENDROOT
BRANCH   7  14
ATOM     14  C   UNL     1       3.702   4.143  17.299  0.00  0.00    +0.000 A 
ATOM     15  C   UNL     1       2.346   4.417  17.515  0.00  0.00    +0.000 A 
ATOM     16  C   UNL     1       1.500   3.423  18.011  0.00  0.00    +0.000 A 
ATOM     17  C   UNL     1       1.999   2.146  18.269  0.00  0.00    +0.000 A 
ATOM     18  C   UNL     1       3.340   1.855  18.017  0.00  0.00    +0.000 A 
ATOM     19  C   UNL     1       4.190   2.850  17.530  0.00  0.00    +0.000 A 
ENDBRANCH   7  14
BRANCH   1  21
ATOM     20  C   UNL     1       5.891   1.967  11.499  0.00  0.00    +0.000 C 
ATOM     21  S   UNL     1       4.594   3.132  11.998  0.00  0.00    +0.000 S 
ENDBRANCH   1  21
TORSDOF 2
ENDMDL
MODEL 6
REMARK VINA RESULT:      -6.6      3.851      6.895
REMARK  Name = 
REMARK  3 active torsions:
REMARK  status: ('A' for Active; 'I' for Inactive)
REMARK    1  A    between atoms: C_1  and  S_2
REMARK    2  A    between atoms: S_2  and  C_3
REMARK    3  A    between atoms: C_9  and  C_10
REMARK                            x       y       z     vdW  Elec       q    Type
REMARK                         _______ _______ _______ _____ _____    ______ ____
ROOT
ATOM      1  C   UNL     1       5.438   3.984  13.389  0.00  0.00    +0.000 A 
ATOM      2  C   UNL     1       6.815   4.187  13.309  0.00  0.00    +0.000 A 
ATOM      3  C   UNL     1       7.494   4.835  14.345  0.00  0.00    +0.000 A 
ATOM      4  C   UNL     1       6.805   5.292  15.475  0.00  0.00    +0.000 A 
ATOM      5  C   UNL     1       5.433   5.023  15.596  0.00  0.00    +0.000 A 
ATOM      6  C   UNL     1       4.754   4.394  14.535  0.00  0.00    +0.000 A 
ATOM      7  C   UNL     1       4.674   5.276  16.864  0.00  0.00    +0.000 C 
ATOM      8  N   UNL     1       4.768   6.347  17.579  0.00  0.00    +0.000 NA
ATOM      9  C   UNL     1       5.664   7.414  17.151  0.00  0.00    +0.000 C 
ATOM     10  C   UNL     1       7.101   6.946  17.291  0.00  0.00    +0.000 C 
ATOM     11  S   UNL     1       8.169   7.646  18.376  0.00  0.00    +0.000 S 
ATOM     12  N   UNL     1       7.566   5.991  16.428  0.00  0.00    +0.000 N 
ATOM     13  H   UNL     1       8.574   5.884  16.419  0.00  0.00    +0.000 HD
ENDROOT
BRANCH   7  14
ATOM     14  C   UNL     1       3.723   4.220  17.353  0.00  0.00    +0.000 A 
ATOM     15  C   UNL     1       4.132   2.893  17.539  0.00  0.00    +0.000 A 
ATOM     16  C   UNL     1       3.209   1.924  17.936  0.00  0.00    +0.000 A 
ATOM     17  C   UNL     1       1.881   2.280  18.173  0.00  0.00    +0.000 A 
ATOM     18  C   UNL     1       1.476   3.607  18.030  0.00  0.00    +0.000 A 
ATOM     19  C   UNL     1       2.395   4.576  17.623  0.00  0.00    +0.000 A 
ENDBRANCH   7  14
BRANCH   1  21
ATOM     20  C   UNL     1       5.932   2.024  11.518  0.00  0.00    +0.000 C 
ATOM     21  S   UNL     1       4.604   3.131  12.066  0.00  0.00    +0.000 S 
ENDBRANCH   1  21
TORSDOF 2
ENDMDL
MODEL 7
REMARK VINA RESULT:      -6.5      2.311      5.798
REMARK  Name = 
REMARK  3 active torsions:
REMARK  status: ('A' for Active; 'I' for Inactive)
REMARK    1  A    between atoms: C_1  and  S_2
REMARK    2  A    between atoms: S_2  and  C_3
REMARK    3  A    between atoms: C_9  and  C_10
REMARK                            x       y       z     vdW  Elec       q    Type
REMARK                         _______ _______ _______ _____ _____    ______ ____
ROOT
ATOM      1  C   UNL     1       2.422   3.688  19.384  0.00  0.00    +0.000 A 
ATOM      2  C   UNL     1       3.680   3.175  19.694  0.00  0.00    +0.000 A 
ATOM      3  C   UNL     1       4.835   3.898  19.378  0.00  0.00    +0.000 A 
ATOM      4  C   UNL     1       4.747   5.144  18.747  0.00  0.00    +0.000 A 
ATOM      5  C   UNL     1       3.482   5.700  18.502  0.00  0.00    +0.000 A 
ATOM      6  C   UNL     1       2.327   4.952  18.799  0.00  0.00    +0.000 A 
ATOM      7  C   UNL     1       3.303   7.116  18.041  0.00  0.00    +0.000 C 
ATOM      8  N   UNL     1       3.993   7.679  17.106  0.00  0.00    +0.000 NA
ATOM      9  C   UNL     1       5.029   6.915  16.423  0.00  0.00    +0.000 C 
ATOM     10  C   UNL     1       6.169   6.645  17.387  0.00  0.00    +0.000 C 
ATOM     11  S   UNL     1       7.699   7.291  17.167  0.00  0.00    +0.000 S 
ATOM     12  N   UNL     1       5.966   5.759  18.411  0.00  0.00    +0.000 N 
ATOM     13  H   UNL     1       6.811   5.450  18.877  0.00  0.00    +0.000 HD
ENDROOT
BRANCH   7  14
ATOM     14  C   UNL     1       2.242   7.955  18.696  0.00  0.00    +0.000 A 
ATOM     15  C   UNL     1       1.528   8.925  17.981  0.00  0.00    +0.000 A 
ATOM     16  C   UNL     1       0.592   9.729  18.633  0.00  0.00    +0.000 A 
ATOM     17  C   UNL     1       0.348   9.553  19.995  0.00  0.00    +0.000 A 
ATOM     18  C   UNL     1       1.027   8.562  20.705  0.00  0.00    +0.000 A 
ATOM     19  C   UNL     1       1.971   7.763  20.057  0.00  0.00    +0.000 A 
ENDBRANCH   7  14
BRANCH   1  21
ATOM     20  C   UNL     1       1.229   2.589  21.609  0.00  0.00    +0.000 C 
ATOM     21  S   UNL     1       0.968   2.757  19.822  0.00  0.00    +0.000 S 
ENDBRANCH   1  21
TORSDOF 2
ENDMDL
MODEL 8
REMARK VINA RESULT:      -6.5      1.775      4.938
REMARK  Name = 
REMARK  3 active torsions:
REMARK  status: ('A' for Active; 'I' for Inactive)
REMARK    1  A    between atoms: C_1  and  S_2
REMARK    2  A    between atoms: S_2  and  C_3
REMARK    3  A    between atoms: C_9  and  C_10
REMARK                            x       y       z     vdW  Elec       q    Type
REMARK                         _______ _______ _______ _____ _____    ______ ____
ROOT
ATOM      1  C   UNL     1       5.798   6.217  17.374  0.00  0.00    +0.000 A 
ATOM      2  C   UNL     1       5.715   5.058  16.605  0.00  0.00    +0.000 A 
ATOM      3  C   UNL     1       4.642   4.176  16.770  0.00  0.00    +0.000 A 
ATOM      4  C   UNL     1       3.638   4.441  17.708  0.00  0.00    +0.000 A 
ATOM      5  C   UNL     1       3.675   5.643  18.431  0.00  0.00    +0.000 A 
ATOM      6  C   UNL     1       4.774   6.510  18.277  0.00  0.00    +0.000 A 
ATOM      7  C   UNL     1       2.531   6.104  19.284  0.00  0.00    +0.000 C 
ATOM      8  N   UNL     1       1.876   5.354  20.106  0.00  0.00    +0.000 NA
ATOM      9  C   UNL     1       2.250   3.953  20.248  0.00  0.00    +0.000 C 
ATOM     10  C   UNL     1       1.902   3.211  18.972  0.00  0.00    +0.000 C 
ATOM     11  S   UNL     1       0.735   2.009  18.924  0.00  0.00    +0.000 S 
ATOM     12  N   UNL     1       2.640   3.460  17.847  0.00  0.00    +0.000 N 
ATOM     13  H   UNL     1       2.516   2.785  17.100  0.00  0.00    +0.000 HD
ENDROOT
BRANCH   7  14
ATOM     14  C   UNL     1       2.103   7.542  19.194  0.00  0.00    +0.000 A 
ATOM     15  C   UNL     1       1.586   8.224  20.302  0.00  0.00    +0.000 A 
ATOM     16  C   UNL     1       1.141   9.541  20.170  0.00  0.00    +0.000 A 
ATOM     17  C   UNL     1       1.234  10.189  18.939  0.00  0.00    +0.000 A 
ATOM     18  C   UNL     1       1.786   9.529  17.841  0.00  0.00    +0.000 A 
ATOM     19  C   UNL     1       2.223   8.209  17.968  0.00  0.00    +0.000 A 
ENDBRANCH   7  14
BRANCH   1  21
ATOM     20  C   UNL     1       8.119   7.006  18.627  0.00  0.00    +0.000 C 
ATOM     21  S   UNL     1       7.161   7.336  17.123  0.00  0.00    +0.000 S 
ENDBRANCH   1  21
TORSDOF 2
ENDMDL
MODEL 9
REMARK VINA RESULT:      -6.4      1.773      4.845
REMARK  Name = 
REMARK  3 active torsions:
REMARK  status: ('A' for Active; 'I' for Inactive)
REMARK    1  A    between atoms: C_1  and  S_2
REMARK    2  A    between atoms: S_2  and  C_3
REMARK    3  A    between atoms: C_9  and  C_10
REMARK                            x       y       z     vdW  Elec       q    Type
REMARK                         _______ _______ _______ _____ _____    ______ ____
ROOT
ATOM      1  C   UNL     1       5.778   6.194  17.347  0.00  0.00    +0.000 A 
ATOM      2  C   UNL     1       5.704   5.019  16.601  0.00  0.00    +0.000 A 
ATOM      3  C   UNL     1       4.634   4.136  16.778  0.00  0.00    +0.000 A 
ATOM      4  C   UNL     1       3.624   4.415  17.706  0.00  0.00    +0.000 A 
ATOM      5  C   UNL     1       3.653   5.632  18.404  0.00  0.00    +0.000 A 
ATOM      6  C   UNL     1       4.748   6.500  18.239  0.00  0.00    +0.000 A 
ATOM      7  C   UNL     1       2.502   6.105  19.241  0.00  0.00    +0.000 C 
ATOM      8  N   UNL     1       1.846   5.369  20.075  0.00  0.00    +0.000 NA
ATOM      9  C   UNL     1       2.225   3.972  20.248  0.00  0.00    +0.000 C 
ATOM     10  C   UNL     1       1.887   3.203  18.984  0.00  0.00    +0.000 C 
ATOM     11  S   UNL     1       0.725   1.995  18.955  0.00  0.00    +0.000 S 
ATOM     12  N   UNL     1       2.630   3.433  17.858  0.00  0.00    +0.000 N 
ATOM     13  H   UNL     1       2.512   2.742  17.125  0.00  0.00    +0.000 HD
ENDROOT
BRANCH   7  14
ATOM     14  C   UNL     1       2.068   7.539  19.120  0.00  0.00    +0.000 A 
ATOM     15  C   UNL     1       2.174   8.237  17.911  0.00  0.00    +0.000 A 
ATOM     16  C   UNL     1       1.819   9.586  17.847  0.00  0.00    +0.000 A 
ATOM     17  C   UNL     1       1.335  10.235  18.983  0.00  0.00    +0.000 A 
ATOM     18  C   UNL     1       1.189   9.534  20.180  0.00  0.00    +0.000 A 
ATOM     19  C   UNL     1       1.552   8.188  20.249  0.00  0.00    +0.000 A 
ENDBRANCH   7  14
BRANCH   1  21
ATOM     20  C   UNL     1       8.106   6.994  18.580  0.00  0.00    +0.000 C 
ATOM     21  S   UNL     1       7.138   7.313  17.081  0.00  0.00    +0.000 S 
ENDBRANCH   1  21
TORSDOF 2
ENDMDL
