MODEL 1
REMARK VINA RESULT:      -7.2      0.000      0.000
REMARK  Name = 
REMARK  8 active torsions:
REMARK  status: ('A' for Active; 'I' for Inactive)
REMARK    1  A    between atoms: C_1  and  N_2
REMARK    2  A    between atoms: N_5  and  C_6
REMARK    3  A    between atoms: C_6  and  C_7
REMARK    4  A    between atoms: C_6  and  C_8
REMARK    5  A    between atoms: C_6  and  C_9
REMARK    6  A    between atoms: C_9  and  N_10
REMARK    7  A    between atoms: C_11  and  C_13
REMARK    8  A    between atoms: C_13  and  N_14
REMARK                            x       y       z     vdW  Elec       q    Type
REMARK                         _______ _______ _______ _____ _____    ______ ____
ROOT
ATOM      1  N   UNL     1       4.948   5.834  18.273  0.00  0.00    +0.000 N 
ATOM      2  C   UNL     1       6.271   5.450  18.338  0.00  0.00    +0.000 C 
ATOM      3  O   UNL     1       6.786   4.948  19.335  0.00  0.00    +0.000 OA
ATOM      4  H   UNL     1       4.591   6.199  17.397  0.00  0.00    +0.000 HD
ENDROOT
BRANCH   1   5
ATOM      5  C   UNL     1       4.032   5.647  19.391  0.00  0.00    +0.000 C 
BRANCH   5   6
ATOM      6  C   UNL     1       2.563   6.168  19.157  0.00  0.00    +0.000 C 
ATOM      7  C   UNL     1       2.581   7.147  17.965  0.00  0.00    +0.000 C 
ATOM      8  C   UNL     1       2.160   6.981  20.419  0.00  0.00    +0.000 C 
BRANCH   6  13
ATOM      9  C   UNL     1       3.767   1.327  18.419  0.00  0.00    +0.000 C 
ATOM     10  N   UNL     1       2.611   2.207  18.597  0.00  0.00    +0.000 NA
ATOM     11  C   UNL     1       2.539   3.183  17.497  0.00  0.00    +0.000 C 
ATOM     12  C   UNL     1       1.523   4.329  17.727  0.00  0.00    +0.000 C 
ATOM     13  N   UNL     1       1.607   5.023  19.029  0.00  0.00    +0.000 NA
ATOM     14  C   UNL     1       1.611   3.984  20.080  0.00  0.00    +0.000 C 
ATOM     15  C   UNL     1       2.664   2.867  19.912  0.00  0.00    +0.000 C 
ENDBRANCH   6  13
ENDBRANCH   5   6
ENDBRANCH   1   5
BRANCH   2  16
ATOM     16  C   UNL     1       7.056   5.690  17.074  0.00  0.00    +0.000 C 
BRANCH  16  17
ATOM     17  N   UNL     1       6.593   4.823  16.020  0.00  0.00    +0.000 N 
ATOM     18  N   UNL     1       5.681   3.867  16.296  0.00  0.00    +0.000 NA
ATOM     19  N   UNL     1       5.420   3.228  15.163  0.00  0.00    +0.000 NA
ATOM     20  C   UNL     1       6.165   3.804  14.166  0.00  0.00    +0.000 A 
ATOM     21  C   UNL     1       6.253   3.508  12.799  0.00  0.00    +0.000 A 
ATOM     22  C   UNL     1       7.108   4.279  12.000  0.00  0.00    +0.000 A 
ATOM     23  C   UNL     1       7.860   5.320  12.553  0.00  0.00    +0.000 A 
ATOM     24  C   UNL     1       7.789   5.625  13.918  0.00  0.00    +0.000 A 
ATOM     25  C   UNL     1       6.926   4.842  14.693  0.00  0.00    +0.000 A 
ENDBRANCH  16  17
ENDBRANCH   2  16
TORSDOF 5
ENDMDL
MODEL 2
REMARK VINA RESULT:      -7.0      5.886      8.766
REMARK  Name = 
REMARK  8 active torsions:
REMARK  status: ('A' for Active; 'I' for Inactive)
REMARK    1  A    between atoms: C_1  and  N_2
REMARK    2  A    between atoms: N_5  and  C_6
REMARK    3  A    between atoms: C_6  and  C_7
REMARK    4  A    between atoms: C_6  and  C_8
REMARK    5  A    between atoms: C_6  and  C_9
REMARK    6  A    between atoms: C_9  and  N_10
REMARK    7  A    between atoms: C_11  and  C_13
REMARK    8  A    between atoms: C_13  and  N_14
REMARK                            x       y       z     vdW  Elec       q    Type
REMARK                         _______ _______ _______ _____ _____    ______ ____
ROOT
ATOM      1  N   UNL     1       8.725   8.805  18.751  0.00  0.00    +0.000 N 
ATOM      2  C   UNL     1       7.955   7.885  18.071  0.00  0.00    +0.000 C 
ATOM      3  O   UNL     1       7.365   8.134  17.021  0.00  0.00    +0.000 OA
ATOM      4  H   UNL     1       9.215   8.504  19.586  0.00  0.00    +0.000 HD
ENDROOT
BRANCH   1   5
ATOM      5  C   UNL     1       8.926  10.162  18.258  0.00  0.00    +0.000 C 
BRANCH   5   6
ATOM      6  C   UNL     1       9.618  11.153  19.269  0.00  0.00    +0.000 C 
ATOM      7  C   UNL     1       9.257  10.712  20.703  0.00  0.00    +0.000 C 
ATOM      8  C   UNL     1       8.984  12.554  19.042  0.00  0.00    +0.000 C 
BRANCH   6  13
ATOM      9  C   UNL     1      12.096  15.332  17.918  0.00  0.00    +0.000 C 
ATOM     10  N   UNL     1      12.310  13.911  18.198  0.00  0.00    +0.000 NA
ATOM     11  C   UNL     1      11.567  13.083  17.234  0.00  0.00    +0.000 C 
ATOM     12  C   UNL     1      11.501  11.580  17.603  0.00  0.00    +0.000 C 
ATOM     13  N   UNL     1      11.083  11.265  18.985  0.00  0.00    +0.000 NA
ATOM     14  C   UNL     1      11.914  12.085  19.892  0.00  0.00    +0.000 C 
ATOM     15  C   UNL     1      11.939  13.600  19.589  0.00  0.00    +0.000 C 
ENDBRANCH   6  13
ENDBRANCH   5   6
ENDBRANCH   1   5
BRANCH   2  16
ATOM     16  C   UNL     1       7.891   6.523  18.713  0.00  0.00    +0.000 C 
BRANCH  16  17
ATOM     17  N   UNL     1       7.100   5.623  17.912  0.00  0.00    +0.000 N 
ATOM     18  N   UNL     1       7.669   4.987  16.866  0.00  0.00    +0.000 NA
ATOM     19  N   UNL     1       6.738   4.219  16.314  0.00  0.00    +0.000 NA
ATOM     20  C   UNL     1       5.581   4.366  17.035  0.00  0.00    +0.000 A 
ATOM     21  C   UNL     1       4.319   3.778  16.871  0.00  0.00    +0.000 A 
ATOM     22  C   UNL     1       3.303   4.112  17.777  0.00  0.00    +0.000 A 
ATOM     23  C   UNL     1       3.540   5.014  18.819  0.00  0.00    +0.000 A 
ATOM     24  C   UNL     1       4.793   5.613  18.993  0.00  0.00    +0.000 A 
ATOM     25  C   UNL     1       5.791   5.261  18.077  0.00  0.00    +0.000 A 
ENDBRANCH  16  17
ENDBRANCH   2  16
TORSDOF 5
ENDMDL
MODEL 3
REMARK VINA RESULT:      -6.9      4.193      7.615
REMARK  Name = 
REMARK  8 active torsions:
REMARK  status: ('A' for Active; 'I' for Inactive)
REMARK    1  A    between atoms: C_1  and  N_2
REMARK    2  A    between atoms: N_5  and  C_6
REMARK    3  A    between atoms: C_6  and  C_7
REMARK    4  A    between atoms: C_6  and  C_8
REMARK    5  A    between atoms: C_6  and  C_9
REMARK    6  A    between atoms: C_9  and  N_10
REMARK    7  A    between atoms: C_11  and  C_13
REMARK    8  A    between atoms: C_13  and  N_14
REMARK                            x       y       z     vdW  Elec       q    Type
REMARK                         _______ _______ _______ _____ _____    ______ ____
ROOT
ATOM      1  N   UNL     1       2.724   7.451  18.340  0.00  0.00    +0.000 N 
ATOM      2  C   UNL     1       1.971   8.452  18.917  0.00  0.00    +0.000 C 
ATOM      3  O   UNL     1       1.524   8.393  20.061  0.00  0.00    +0.000 OA
ATOM      4  H   UNL     1       3.094   7.599  17.407  0.00  0.00    +0.000 HD
ENDROOT
BRANCH   1   5
ATOM      5  C   UNL     1       3.077   6.234  19.060  0.00  0.00    +0.000 C 
BRANCH   5   6
ATOM      6  C   UNL     1       4.159   5.325  18.362  0.00  0.00    +0.000 C 
ATOM      7  C   UNL     1       5.461   5.402  19.186  0.00  0.00    +0.000 C 
ATOM      8  C   UNL     1       4.454   5.952  16.970  0.00  0.00    +0.000 C 
BRANCH   6  13
ATOM      9  C   UNL     1       1.379   2.619  21.584  0.00  0.00    +0.000 C 
ATOM     10  N   UNL     1       1.973   2.556  20.247  0.00  0.00    +0.000 NA
ATOM     11  C   UNL     1       3.441   2.633  20.336  0.00  0.00    +0.000 C 
ATOM     12  C   UNL     1       4.151   2.850  18.978  0.00  0.00    +0.000 C 
ATOM     13  N   UNL     1       3.627   3.945  18.135  0.00  0.00    +0.000 NA
ATOM     14  C   UNL     1       2.163   3.763  18.041  0.00  0.00    +0.000 C 
ATOM     15  C   UNL     1       1.420   3.616  19.388  0.00  0.00    +0.000 C 
ENDBRANCH   6  13
ENDBRANCH   5   6
ENDBRANCH   1   5
BRANCH   2  16
ATOM     16  C   UNL     1       1.736   9.650  18.033  0.00  0.00    +0.000 C 
BRANCH  16  17
ATOM     17  N   UNL     1       0.693  10.482  18.577  0.00  0.00    +0.000 N 
ATOM     18  N   UNL     1       0.995  11.401  19.518  0.00  0.00    +0.000 NA
ATOM     19  N   UNL     1      -0.129  12.032  19.833  0.00  0.00    +0.000 NA
ATOM     20  C   UNL     1      -1.140  11.511  19.066  0.00  0.00    +0.000 A 
ATOM     21  C   UNL     1      -2.504  11.828  19.011  0.00  0.00    +0.000 A 
ATOM     22  C   UNL     1      -3.318  11.126  18.111  0.00  0.00    +0.000 A 
ATOM     23  C   UNL     1      -2.785  10.129  17.289  0.00  0.00    +0.000 A 
ATOM     24  C   UNL     1      -1.425   9.797  17.337  0.00  0.00    +0.000 A 
ATOM     25  C   UNL     1      -0.633  10.514  18.241  0.00  0.00    +0.000 A 
ENDBRANCH  16  17
ENDBRANCH   2  16
TORSDOF 5
ENDMDL
MODEL 4
REMARK VINA RESULT:      -6.8      4.079      7.639
REMARK  Name = 
REMARK  8 active torsions:
REMARK  status: ('A' for Active; 'I' for Inactive)
REMARK    1  A    between atoms: C_1  and  N_2
REMARK    2  A    between atoms: N_5  and  C_6
REMARK    3  A    between atoms: C_6  and  C_7
REMARK    4  A    between atoms: C_6  and  C_8
REMARK    5  A    between atoms: C_6  and  C_9
REMARK    6  A    between atoms: C_9  and  N_10
REMARK    7  A    between atoms: C_11  and  C_13
REMARK    8  A    between atoms: C_13  and  N_14
REMARK                            x       y       z     vdW  Elec       q    Type
REMARK                         _______ _______ _______ _____ _____    ______ ____
ROOT
ATOM      1  N   UNL     1       2.484   6.973  18.537  0.00  0.00    +0.000 N 
ATOM      2  C   UNL     1       1.939   8.153  18.999  0.00  0.00    +0.000 C 
ATOM      3  O   UNL     1       1.611   8.338  20.169  0.00  0.00    +0.000 OA
ATOM      4  H   UNL     1       2.770   6.918  17.566  0.00  0.00    +0.000 HD
ENDROOT
BRANCH   1   5
ATOM      5  C   UNL     1       2.745   5.842  19.419  0.00  0.00    +0.000 C 
BRANCH   5   6
ATOM      6  C   UNL     1       2.497   4.420  18.787  0.00  0.00    +0.000 C 
ATOM      7  C   UNL     1       1.458   4.568  17.656  0.00  0.00    +0.000 C 
ATOM      8  C   UNL     1       1.857   3.534  19.892  0.00  0.00    +0.000 C 
BRANCH   6  13
ATOM      9  C   UNL     1       6.692   6.815  17.337  0.00  0.00    +0.000 C 
ATOM     10  N   UNL     1       6.159   5.470  17.566  0.00  0.00    +0.000 NA
ATOM     11  C   UNL     1       5.041   5.201  16.646  0.00  0.00    +0.000 C 
ATOM     12  C   UNL     1       4.232   3.925  16.984  0.00  0.00    +0.000 C 
ATOM     13  N   UNL     1       3.791   3.784  18.387  0.00  0.00    +0.000 NA
ATOM     14  C   UNL     1       4.976   4.004  19.243  0.00  0.00    +0.000 C 
ATOM     15  C   UNL     1       5.761   5.308  18.974  0.00  0.00    +0.000 C 
ENDBRANCH   6  13
ENDBRANCH   5   6
ENDBRANCH   1   5
BRANCH   2  16
ATOM     16  C   UNL     1       1.775   9.222  17.949  0.00  0.00    +0.000 C 
BRANCH  16  17
ATOM     17  N   UNL     1       0.894  10.260  18.419  0.00  0.00    +0.000 N 
ATOM     18  N   UNL     1       1.393  11.278  19.152  0.00  0.00    +0.000 NA
ATOM     19  N   UNL     1       0.386  12.092  19.441  0.00  0.00    +0.000 NA
ATOM     20  C   UNL     1      -0.751  11.585  18.866  0.00  0.00    +0.000 A 
ATOM     21  C   UNL     1      -2.069  12.061  18.868  0.00  0.00    +0.000 A 
ATOM     22  C   UNL     1      -3.046  11.329  18.179  0.00  0.00    +0.000 A 
ATOM     23  C   UNL     1      -2.716  10.148  17.508  0.00  0.00    +0.000 A 
ATOM     24  C   UNL     1      -1.405   9.656  17.501  0.00  0.00    +0.000 A 
ATOM     25  C   UNL     1      -0.448  10.406  18.193  0.00  0.00    +0.000 A 
ENDBRANCH  16  17
ENDBRANCH   2  16
TORSDOF 5
ENDMDL
MODEL 5
REMARK VINA RESULT:      -6.7      3.918      8.304
REMARK  Name = 
REMARK  8 active torsions:
REMARK  status: ('A' for Active; 'I' for Inactive)
REMARK    1  A    between atoms: C_1  and  N_2
REMARK    2  A    between atoms: N_5  and  C_6
REMARK    3  A    between atoms: C_6  and  C_7
REMARK    4  A    between atoms: C_6  and  C_8
REMARK    5  A    between atoms: C_6  and  C_9
REMARK    6  A    between atoms: C_9  and  N_10
REMARK    7  A    between atoms: C_11  and  C_13
REMARK    8  A    between atoms: C_13  and  N_14
REMARK                            x       y       z     vdW  Elec       q    Type
REMARK                         _______ _______ _______ _____ _____    ______ ____
ROOT
ATOM      1  N   UNL     1       1.658   7.954  18.161  0.00  0.00    +0.000 N 
ATOM      2  C   UNL     1       1.443   9.295  17.917  0.00  0.00    +0.000 C 
ATOM      3  O   UNL     1       2.342  10.091  17.655  0.00  0.00    +0.000 OA
ATOM      4  H   UNL     1       0.857   7.356  18.326  0.00  0.00    +0.000 HD
ENDROOT
BRANCH   1   5
ATOM      5  C   UNL     1       2.988   7.360  18.101  0.00  0.00    +0.000 C 
BRANCH   5   6
ATOM      6  C   UNL     1       3.087   5.871  18.609  0.00  0.00    +0.000 C 
ATOM      7  C   UNL     1       2.086   5.018  17.803  0.00  0.00    +0.000 C 
ATOM      8  C   UNL     1       2.616   5.861  20.090  0.00  0.00    +0.000 C 
BRANCH   6  13
ATOM      9  C   UNL     1       5.648   4.346  14.541  0.00  0.00    +0.000 C 
ATOM     10  N   UNL     1       5.797   4.542  15.984  0.00  0.00    +0.000 NA
ATOM     11  C   UNL     1       4.875   3.660  16.718  0.00  0.00    +0.000 C 
ATOM     12  C   UNL     1       4.754   3.979  18.228  0.00  0.00    +0.000 C 
ATOM     13  N   UNL     1       4.504   5.393  18.578  0.00  0.00    +0.000 NA
ATOM     14  C   UNL     1       5.505   6.206  17.856  0.00  0.00    +0.000 C 
ATOM     15  C   UNL     1       5.596   5.958  16.334  0.00  0.00    +0.000 C 
ENDBRANCH   6  13
ENDBRANCH   5   6
ENDBRANCH   1   5
BRANCH   2  16
ATOM     16  C   UNL     1      -0.001   9.722  17.990  0.00  0.00    +0.000 C 
BRANCH  16  17
ATOM     17  N   UNL     1      -0.225  10.548  19.149  0.00  0.00    +0.000 N 
ATOM     18  N   UNL     1      -0.409  11.876  18.996  0.00  0.00    +0.000 NA
ATOM     19  N   UNL     1      -0.606  12.392  20.202  0.00  0.00    +0.000 NA
ATOM     20  C   UNL     1      -0.561  11.371  21.116  0.00  0.00    +0.000 A 
ATOM     21  C   UNL     1      -0.711  11.380  22.509  0.00  0.00    +0.000 A 
ATOM     22  C   UNL     1      -0.623  10.164  23.200  0.00  0.00    +0.000 A 
ATOM     23  C   UNL     1      -0.387   8.967  22.518  0.00  0.00    +0.000 A 
ATOM     24  C   UNL     1      -0.229   8.941  21.127  0.00  0.00    +0.000 A 
ATOM     25  C   UNL     1      -0.324  10.168  20.460  0.00  0.00    +0.000 A 
ENDBRANCH  16  17
ENDBRANCH   2  16
TORSDOF 5
ENDMDL
MODEL 6
REMARK VINA RESULT:      -6.7      3.860      7.702
REMARK  Name = 
REMARK  8 active torsions:
REMARK  status: ('A' for Active; 'I' for Inactive)
REMARK    1  A    between atoms: C_1  and  N_2
REMARK    2  A    between atoms: N_5  and  C_6
REMARK    3  A    between atoms: C_6  and  C_7
REMARK    4  A    between atoms: C_6  and  C_8
REMARK    5  A    between atoms: C_6  and  C_9
REMARK    6  A    between atoms: C_9  and  N_10
REMARK    7  A    between atoms: C_11  and  C_13
REMARK    8  A    between atoms: C_13  and  N_14
REMARK                            x       y       z     vdW  Elec       q    Type
REMARK                         _______ _______ _______ _____ _____    ______ ____
ROOT
ATOM      1  N   UNL     1       1.704   6.285  20.891  0.00  0.00    +0.000 N 
ATOM      2  C   UNL     1       1.517   7.599  20.515  0.00  0.00    +0.000 C 
ATOM      3  O   UNL     1       2.084   8.120  19.558  0.00  0.00    +0.000 OA
ATOM      4  H   UNL     1       1.162   5.920  21.666  0.00  0.00    +0.000 HD
ENDROOT
BRANCH   1   5
ATOM      5  C   UNL     1       2.586   5.388  20.155  0.00  0.00    +0.000 C 
BRANCH   5   6
ATOM      6  C   UNL     1       2.208   3.859  20.227  0.00  0.00    +0.000 C 
ATOM      7  C   UNL     1       0.711   3.715  19.881  0.00  0.00    +0.000 C 
ATOM      8  C   UNL     1       2.386   3.413  21.705  0.00  0.00    +0.000 C 
BRANCH   6  13
ATOM      9  C   UNL     1       5.444   5.602  16.774  0.00  0.00    +0.000 C 
ATOM     10  N   UNL     1       4.986   4.356  17.392  0.00  0.00    +0.000 NA
ATOM     11  C   UNL     1       3.559   4.137  17.103  0.00  0.00    +0.000 C 
ATOM     12  C   UNL     1       2.909   3.001  17.929  0.00  0.00    +0.000 C 
ATOM     13  N   UNL     1       3.139   3.042  19.389  0.00  0.00    +0.000 NA
ATOM     14  C   UNL     1       4.594   3.199  19.598  0.00  0.00    +0.000 C 
ATOM     15  C   UNL     1       5.256   4.371  18.840  0.00  0.00    +0.000 C 
ENDBRANCH   6  13
ENDBRANCH   5   6
ENDBRANCH   1   5
BRANCH   2  16
ATOM     16  C   UNL     1       0.542   8.364  21.374  0.00  0.00    +0.000 C 
BRANCH  16  17
ATOM     17  N   UNL     1       0.566   9.765  21.039  0.00  0.00    +0.000 N 
ATOM     18  N   UNL     1       1.352  10.607  21.744  0.00  0.00    +0.000 NA
ATOM     19  N   UNL     1       1.199  11.819  21.229  0.00  0.00    +0.000 NA
ATOM     20  C   UNL     1       0.320  11.730  20.180  0.00  0.00    +0.000 A 
ATOM     21  C   UNL     1      -0.170  12.713  19.309  0.00  0.00    +0.000 A 
ATOM     22  C   UNL     1      -1.069  12.328  18.305  0.00  0.00    +0.000 A 
ATOM     23  C   UNL     1      -1.472  10.996  18.174  0.00  0.00    +0.000 A 
ATOM     24  C   UNL     1      -0.995  10.004  19.039  0.00  0.00    +0.000 A 
ATOM     25  C   UNL     1      -0.097  10.412  20.031  0.00  0.00    +0.000 A 
ENDBRANCH  16  17
ENDBRANCH   2  16
TORSDOF 5
ENDMDL
MODEL 7
REMARK VINA RESULT:      -6.7      3.117      7.197
REMARK  Name = 
REMARK  8 active torsions:
REMARK  status: ('A' for Active; 'I' for Inactive)
REMARK    1  A    between atoms: C_1  and  N_2
REMARK    2  A    between atoms: N_5  and  C_6
REMARK    3  A    between atoms: C_6  and  C_7
REMARK    4  A    between atoms: C_6  and  C_8
REMARK    5  A    between atoms: C_6  and  C_9
REMARK    6  A    between atoms: C_9  and  N_10
REMARK    7  A    between atoms: C_11  and  C_13
REMARK    8  A    between atoms: C_13  and  N_14
REMARK                            x       y       z     vdW  Elec       q    Type
REMARK                         _______ _______ _______ _____ _____    ______ ____
ROOT
ATOM      1  N   UNL     1       1.992   5.773  20.039  0.00  0.00    +0.000 N 
ATOM      2  C   UNL     1       2.741   6.726  19.382  0.00  0.00    +0.000 C 
ATOM      3  O   UNL     1       3.967   6.688  19.296  0.00  0.00    +0.000 OA
ATOM      4  H   UNL     1       0.982   5.855  20.025  0.00  0.00    +0.000 HD
ENDROOT
BRANCH   1   5
ATOM      5  C   UNL     1       2.602   4.610  20.672  0.00  0.00    +0.000 C 
BRANCH   5   6
ATOM      6  C   UNL     1       1.877   3.236  20.404  0.00  0.00    +0.000 C 
ATOM      7  C   UNL     1       0.463   3.533  19.862  0.00  0.00    +0.000 C 
ATOM      8  C   UNL     1       1.707   2.533  21.780  0.00  0.00    +0.000 C 
BRANCH   6  13
ATOM      9  C   UNL     1       4.839   4.702  16.596  0.00  0.00    +0.000 C 
ATOM     10  N   UNL     1       4.413   3.504  17.323  0.00  0.00    +0.000 NA
ATOM     11  C   UNL     1       2.963   3.301  17.167  0.00  0.00    +0.000 C 
ATOM     12  C   UNL     1       2.365   2.230  18.111  0.00  0.00    +0.000 C 
ATOM     13  N   UNL     1       2.719   2.350  19.541  0.00  0.00    +0.000 NA
ATOM     14  C   UNL     1       4.189   2.486  19.619  0.00  0.00    +0.000 C 
ATOM     15  C   UNL     1       4.805   3.597  18.739  0.00  0.00    +0.000 C 
ENDBRANCH   6  13
ENDBRANCH   5   6
ENDBRANCH   1   5
BRANCH   2  16
ATOM     16  C   UNL     1       1.936   7.838  18.760  0.00  0.00    +0.000 C 
BRANCH  16  17
ATOM     17  N   UNL     1       1.318   8.646  19.780  0.00  0.00    +0.000 N 
ATOM     18  N   UNL     1       1.662   8.467  21.072  0.00  0.00    +0.000 NA
ATOM     19  N   UNL     1       0.965   9.336  21.794  0.00  0.00    +0.000 NA
ATOM     20  C   UNL     1       0.190  10.076  20.939  0.00  0.00    +0.000 A 
ATOM     21  C   UNL     1      -0.715  11.116  21.190  0.00  0.00    +0.000 A 
ATOM     22  C   UNL     1      -1.374  11.707  20.104  0.00  0.00    +0.000 A 
ATOM     23  C   UNL     1      -1.139  11.268  18.798  0.00  0.00    +0.000 A 
ATOM     24  C   UNL     1      -0.242  10.227  18.530  0.00  0.00    +0.000 A 
ATOM     25  C   UNL     1       0.406   9.655  19.631  0.00  0.00    +0.000 A 
ENDBRANCH  16  17
ENDBRANCH   2  16
TORSDOF 5
ENDMDL
MODEL 8
REMARK VINA RESULT:      -6.6      5.983      8.585
REMARK  Name = 
REMARK  8 active torsions:
REMARK  status: ('A' for Active; 'I' for Inactive)
REMARK    1  A    between atoms: C_1  and  N_2
REMARK    2  A    between atoms: N_5  and  C_6
REMARK    3  A    between atoms: C_6  and  C_7
REMARK    4  A    between atoms: C_6  and  C_8
REMARK    5  A    between atoms: C_6  and  C_9
REMARK    6  A    between atoms: C_9  and  N_10
REMARK    7  A    between atoms: C_11  and  C_13
REMARK    8  A    between atoms: C_13  and  N_14
REMARK                            x       y       z     vdW  Elec       q    Type
REMARK                         _______ _______ _______ _____ _____    ______ ____
ROOT
ATOM      1  N   UNL     1       8.838   8.925  18.786  0.00  0.00    +0.000 N 
ATOM      2  C   UNL     1       8.037   7.994  18.160  0.00  0.00    +0.000 C 
ATOM      3  O   UNL     1       7.305   8.256  17.208  0.00  0.00    +0.000 OA
ATOM      4  H   UNL     1       9.448   8.616  19.535  0.00  0.00    +0.000 HD
ENDROOT
BRANCH   1   5
ATOM      5  C   UNL     1       8.901  10.314  18.346  0.00  0.00    +0.000 C 
BRANCH   5   6
ATOM      6  C   UNL     1       9.628  11.304  19.334  0.00  0.00    +0.000 C 
ATOM      7  C   UNL     1       9.292  10.880  20.778  0.00  0.00    +0.000 C 
ATOM      8  C   UNL     1       9.006  12.711  19.108  0.00  0.00    +0.000 C 
BRANCH   6  13
ATOM      9  C   UNL     1      12.133  15.445  17.915  0.00  0.00    +0.000 C 
ATOM     10  N   UNL     1      12.333  14.021  18.195  0.00  0.00    +0.000 NA
ATOM     11  C   UNL     1      11.557  13.201  17.250  0.00  0.00    +0.000 C 
ATOM     12  C   UNL     1      11.479  11.701  17.625  0.00  0.00    +0.000 C 
ATOM     13  N   UNL     1      11.087  11.395  19.017  0.00  0.00    +0.000 NA
ATOM     14  C   UNL     1      11.949  12.206  19.903  0.00  0.00    +0.000 C 
ATOM     15  C   UNL     1      11.989  13.720  19.595  0.00  0.00    +0.000 C 
ENDBRANCH   6  13
ENDBRANCH   5   6
ENDBRANCH   1   5
BRANCH   2  16
ATOM     16  C   UNL     1       8.129   6.602  18.731  0.00  0.00    +0.000 C 
BRANCH  16  17
ATOM     17  N   UNL     1       6.964   5.833  18.378  0.00  0.00    +0.000 N 
ATOM     18  N   UNL     1       5.982   5.653  19.287  0.00  0.00    +0.000 NA
ATOM     19  N   UNL     1       5.032   4.930  18.709  0.00  0.00    +0.000 NA
ATOM     20  C   UNL     1       5.418   4.670  17.419  0.00  0.00    +0.000 A 
ATOM     21  C   UNL     1       4.777   3.957  16.397  0.00  0.00    +0.000 A 
ATOM     22  C   UNL     1       5.413   3.856  15.151  0.00  0.00    +0.000 A 
ATOM     23  C   UNL     1       6.659   4.450  14.933  0.00  0.00    +0.000 A 
ATOM     24  C   UNL     1       7.315   5.161  15.945  0.00  0.00    +0.000 A 
ATOM     25  C   UNL     1       6.659   5.250  17.178  0.00  0.00    +0.000 A 
ENDBRANCH  16  17
ENDBRANCH   2  16
TORSDOF 5
ENDMDL
MODEL 9
REMARK VINA RESULT:      -6.6      1.065      1.646
REMARK  Name = 
REMARK  8 active torsions:
REMARK  status: ('A' for Active; 'I' for Inactive)
REMARK    1  A    between atoms: C_1  and  N_2
REMARK    2  A    between atoms: N_5  and  C_6
REMARK    3  A    between atoms: C_6  and  C_7
REMARK    4  A    between atoms: C_6  and  C_8
REMARK    5  A    between atoms: C_6  and  C_9
REMARK    6  A    between atoms: C_9  and  N_10
REMARK    7  A    between atoms: C_11  and  C_13
REMARK    8  A    between atoms: C_13  and  N_14
REMARK                            x       y       z     vdW  Elec       q    Type
REMARK                         _______ _______ _______ _____ _____    ______ ____
ROOT
ATOM      1  N   UNL     1       4.176   5.002  17.959  0.00  0.00    +0.000 N 
ATOM      2  C   UNL     1       5.289   4.192  17.876  0.00  0.00    +0.000 C 
ATOM      3  O   UNL     1       6.090   4.040  18.795  0.00  0.00    +0.000 OA
ATOM      4  H   UNL     1       3.541   5.035  17.170  0.00  0.00    +0.000 HD
ENDROOT
BRANCH   1   5
ATOM      5  C   UNL     1       3.841   5.735  19.173  0.00  0.00    +0.000 C 
BRANCH   5   6
ATOM      6  C   UNL     1       2.307   6.028  19.385  0.00  0.00    +0.000 C 
ATOM      7  C   UNL     1       1.712   6.491  18.039  0.00  0.00    +0.000 C 
ATOM      8  C   UNL     1       2.202   7.223  20.373  0.00  0.00    +0.000 C 
BRANCH   6  13
ATOM      9  C   UNL     1       3.576   1.177  18.847  0.00  0.00    +0.000 C 
ATOM     10  N   UNL     1       2.607   2.041  19.524  0.00  0.00    +0.000 NA
ATOM     11  C   UNL     1       1.787   2.761  18.536  0.00  0.00    +0.000 C 
ATOM     12  C   UNL     1       0.924   3.899  19.133  0.00  0.00    +0.000 C 
ATOM     13  N   UNL     1       1.625   4.855  20.016  0.00  0.00    +0.000 NA
ATOM     14  C   UNL     1       2.371   4.062  21.015  0.00  0.00    +0.000 C 
ATOM     15  C   UNL     1       3.296   2.965  20.442  0.00  0.00    +0.000 C 
ENDBRANCH   6  13
ENDBRANCH   5   6
ENDBRANCH   1   5
BRANCH   2  16
ATOM     16  C   UNL     1       5.454   3.486  16.554  0.00  0.00    +0.000 C 
BRANCH  16  17
ATOM     17  N   UNL     1       6.297   4.253  15.673  0.00  0.00    +0.000 N 
ATOM     18  N   UNL     1       7.093   5.217  16.183  0.00  0.00    +0.000 NA
ATOM     19  N   UNL     1       7.765   5.754  15.173  0.00  0.00    +0.000 NA
ATOM     20  C   UNL     1       7.396   5.106  14.023  0.00  0.00    +0.000 A 
ATOM     21  C   UNL     1       7.811   5.287  12.696  0.00  0.00    +0.000 A 
ATOM     22  C   UNL     1       7.262   4.462  11.705  0.00  0.00    +0.000 A 
ATOM     23  C   UNL     1       6.319   3.482  12.029  0.00  0.00    +0.000 A 
ATOM     24  C   UNL     1       5.890   3.293  13.348  0.00  0.00    +0.000 A 
ATOM     25  C   UNL     1       6.455   4.127  14.320  0.00  0.00    +0.000 A 
ENDBRANCH  16  17
ENDBRANCH   2  16
TORSDOF 5
ENDMDL
