MODEL 1
REMARK VINA RESULT:      -7.0      0.000      0.000
REMARK  Name = 
REMARK  3 active torsions:
REMARK  status: ('A' for Active; 'I' for Inactive)
REMARK    1  A    between atoms: N_3  and  C_4
REMARK    2  A    between atoms: C_7  and  C_8
REMARK    3  A    between atoms: C_8  and  O_10
REMARK                            x       y       z     vdW  Elec       q    Type
REMARK                         _______ _______ _______ _____ _____    ______ ____
ROOT
ATOM      1  O   UNL     1       6.839   6.045  17.565  0.00  0.00    +0.000 OA
ATOM      2  C   UNL     1       6.479   5.343  16.620  0.00  0.00    +0.000 C 
ATOM      3  N   UNL     1       5.449   4.438  16.644  0.00  0.00    +0.000 N 
ATOM      4  N   UNL     1       7.167   5.479  15.453  0.00  0.00    +0.000 N 
ATOM      5  C   UNL     1       6.940   4.812  14.290  0.00  0.00    +0.000 A 
ATOM      6  N   UNL     1       6.079   3.848  14.066  0.00  0.00    +0.000 NA
ATOM      7  C   UNL     1       6.178   3.474  12.737  0.00  0.00    +0.000 A 
ATOM      8  C   UNL     1       7.106   4.168  11.988  0.00  0.00    +0.000 A 
ATOM      9  S   UNL     1       7.909   5.311  12.983  0.00  0.00    +0.000 S 
ATOM     10  H   UNL     1       5.392   3.826  15.833  0.00  0.00    +0.000 HD
ATOM     11  H   UNL     1       7.899   6.175  15.465  0.00  0.00    +0.000 HD
ENDROOT
BRANCH   3  12
ATOM     12  C   UNL     1       4.556   4.202  17.708  0.00  0.00    +0.000 A 
ATOM     13  C   UNL     1       4.908   3.479  18.851  0.00  0.00    +0.000 A 
ATOM     14  C   UNL     1       3.981   3.260  19.872  0.00  0.00    +0.000 A 
ATOM     15  C   UNL     1       2.680   3.758  19.763  0.00  0.00    +0.000 A 
ATOM     16  C   UNL     1       2.326   4.516  18.639  0.00  0.00    +0.000 A 
ATOM     17  C   UNL     1       3.266   4.739  17.621  0.00  0.00    +0.000 A 
BRANCH  15  18
ATOM     18  C   UNL     1       1.745   3.494  20.888  0.00  0.00    +0.000 C 
ATOM     19  O   UNL     1       2.119   3.360  22.041  0.00  0.00    +0.000 OA
BRANCH  18  20
ATOM     20  O   UNL     1       0.456   3.375  20.514  0.00  0.00    +0.000 OA
ATOM     21  H   UNL     1      -0.151   3.090  21.222  0.00  0.00    +0.000 HD
ENDBRANCH  18  20
ENDBRANCH  15  18
ENDBRANCH   3  12
TORSDOF 3
ENDMDL
MODEL 2
REMARK VINA RESULT:      -7.0      0.116      1.142
REMARK  Name = 
REMARK  3 active torsions:
REMARK  status: ('A' for Active; 'I' for Inactive)
REMARK    1  A    between atoms: N_3  and  C_4
REMARK    2  A    between atoms: C_7  and  C_8
REMARK    3  A    between atoms: C_8  and  O_10
REMARK                            x       y       z     vdW  Elec       q    Type
REMARK                         _______ _______ _______ _____ _____    ______ ____
ROOT
ATOM      1  O   UNL     1       6.755   6.134  17.475  0.00  0.00    +0.000 OA
ATOM      2  C   UNL     1       6.415   5.405  16.543  0.00  0.00    +0.000 C 
ATOM      3  N   UNL     1       5.391   4.494  16.574  0.00  0.00    +0.000 N 
ATOM      4  N   UNL     1       7.121   5.518  15.383  0.00  0.00    +0.000 N 
ATOM      5  C   UNL     1       6.918   4.819  14.235  0.00  0.00    +0.000 A 
ATOM      6  N   UNL     1       6.068   3.843  14.022  0.00  0.00    +0.000 NA
ATOM      7  C   UNL     1       6.191   3.436  12.705  0.00  0.00    +0.000 A 
ATOM      8  C   UNL     1       7.126   4.118  11.952  0.00  0.00    +0.000 A 
ATOM      9  S   UNL     1       7.904   5.292  12.931  0.00  0.00    +0.000 S 
ATOM     10  H   UNL     1       5.352   3.861  15.777  0.00  0.00    +0.000 HD
ATOM     11  H   UNL     1       7.847   6.219  15.389  0.00  0.00    +0.000 HD
ENDROOT
BRANCH   3  12
ATOM     12  C   UNL     1       4.484   4.277  17.629  0.00  0.00    +0.000 A 
ATOM     13  C   UNL     1       3.175   4.763  17.619  0.00  0.00    +0.000 A 
ATOM     14  C   UNL     1       2.318   4.532  18.698  0.00  0.00    +0.000 A 
ATOM     15  C   UNL     1       2.762   3.814  19.810  0.00  0.00    +0.000 A 
ATOM     16  C   UNL     1       4.061   3.289  19.816  0.00  0.00    +0.000 A 
ATOM     17  C   UNL     1       4.913   3.518  18.725  0.00  0.00    +0.000 A 
BRANCH  15  18
ATOM     18  C   UNL     1       1.798   3.599  20.921  0.00  0.00    +0.000 C 
ATOM     19  O   UNL     1       2.149   3.350  22.062  0.00  0.00    +0.000 OA
BRANCH  18  20
ATOM     20  O   UNL     1       0.505   3.661  20.546  0.00  0.00    +0.000 OA
ATOM     21  H   UNL     1       0.321   3.328  19.649  0.00  0.00    +0.000 HD
ENDBRANCH  18  20
ENDBRANCH  15  18
ENDBRANCH   3  12
TORSDOF 3
ENDMDL
MODEL 3
REMARK VINA RESULT:      -6.5      4.612      7.489
REMARK  Name = 
REMARK  3 active torsions:
REMARK  status: ('A' for Active; 'I' for Inactive)
REMARK    1  A    between atoms: N_3  and  C_4
REMARK    2  A    between atoms: C_7  and  C_8
REMARK    3  A    between atoms: C_8  and  O_10
REMARK                            x       y       z     vdW  Elec       q    Type
REMARK                         _______ _______ _______ _____ _____    ______ ____
ROOT
ATOM      1  O   UNL     1       3.054   5.026  20.320  0.00  0.00    +0.000 OA
ATOM      2  C   UNL     1       2.693   6.133  19.922  0.00  0.00    +0.000 C 
ATOM      3  N   UNL     1       3.117   6.745  18.771  0.00  0.00    +0.000 N 
ATOM      4  N   UNL     1       1.797   6.805  20.697  0.00  0.00    +0.000 N 
ATOM      5  C   UNL     1       1.264   8.031  20.450  0.00  0.00    +0.000 A 
ATOM      6  N   UNL     1       1.554   8.857  19.473  0.00  0.00    +0.000 NA
ATOM      7  C   UNL     1       0.758   9.982  19.601  0.00  0.00    +0.000 A 
ATOM      8  C   UNL     1      -0.118   9.978  20.668  0.00  0.00    +0.000 A 
ATOM      9  S   UNL     1       0.077   8.528  21.564  0.00  0.00    +0.000 S 
ATOM     10  H   UNL     1       2.848   7.723  18.677  0.00  0.00    +0.000 HD
ATOM     11  H   UNL     1       1.486   6.310  21.520  0.00  0.00    +0.000 HD
ENDROOT
BRANCH   3  12
ATOM     12  C   UNL     1       3.965   6.201  17.786  0.00  0.00    +0.000 A 
ATOM     13  C   UNL     1       3.879   4.876  17.355  0.00  0.00    +0.000 A 
ATOM     14  C   UNL     1       4.753   4.380  16.386  0.00  0.00    +0.000 A 
ATOM     15  C   UNL     1       5.736   5.206  15.834  0.00  0.00    +0.000 A 
ATOM     16  C   UNL     1       5.808   6.548  16.230  0.00  0.00    +0.000 A 
ATOM     17  C   UNL     1       4.921   7.040  17.200  0.00  0.00    +0.000 A 
BRANCH  15  18
ATOM     18  C   UNL     1       6.630   4.618  14.802  0.00  0.00    +0.000 C 
ATOM     19  O   UNL     1       7.598   5.209  14.352  0.00  0.00    +0.000 OA
BRANCH  18  20
ATOM     20  O   UNL     1       6.252   3.396  14.380  0.00  0.00    +0.000 OA
ATOM     21  H   UNL     1       6.931   2.907  13.879  0.00  0.00    +0.000 HD
ENDBRANCH  18  20
ENDBRANCH  15  18
ENDBRANCH   3  12
TORSDOF 3
ENDMDL
MODEL 4
REMARK VINA RESULT:      -6.4      4.606      7.495
REMARK  Name = 
REMARK  3 active torsions:
REMARK  status: ('A' for Active; 'I' for Inactive)
REMARK    1  A    between atoms: N_3  and  C_4
REMARK    2  A    between atoms: C_7  and  C_8
REMARK    3  A    between atoms: C_8  and  O_10
REMARK                            x       y       z     vdW  Elec       q    Type
REMARK                         _______ _______ _______ _____ _____    ______ ____
ROOT
ATOM      1  O   UNL     1       3.094   5.042  20.309  0.00  0.00    +0.000 OA
ATOM      2  C   UNL     1       2.723   6.148  19.917  0.00  0.00    +0.000 C 
ATOM      3  N   UNL     1       3.156   6.779  18.779  0.00  0.00    +0.000 N 
ATOM      4  N   UNL     1       1.803   6.797  20.684  0.00  0.00    +0.000 N 
ATOM      5  C   UNL     1       1.254   8.017  20.440  0.00  0.00    +0.000 A 
ATOM      6  N   UNL     1       1.548   8.858  19.477  0.00  0.00    +0.000 NA
ATOM      7  C   UNL     1       0.732   9.969  19.604  0.00  0.00    +0.000 A 
ATOM      8  C   UNL     1      -0.161   9.940  20.655  0.00  0.00    +0.000 A 
ATOM      9  S   UNL     1       0.042   8.484  21.540  0.00  0.00    +0.000 S 
ATOM     10  H   UNL     1       2.873   7.754  18.692  0.00  0.00    +0.000 HD
ATOM     11  H   UNL     1       1.487   6.289  21.496  0.00  0.00    +0.000 HD
ENDROOT
BRANCH   3  12
ATOM     12  C   UNL     1       4.028   6.259  17.804  0.00  0.00    +0.000 A 
ATOM     13  C   UNL     1       5.121   6.970  17.302  0.00  0.00    +0.000 A 
ATOM     14  C   UNL     1       5.948   6.414  16.324  0.00  0.00    +0.000 A 
ATOM     15  C   UNL     1       5.691   5.134  15.827  0.00  0.00    +0.000 A 
ATOM     16  C   UNL     1       4.621   4.396  16.349  0.00  0.00    +0.000 A 
ATOM     17  C   UNL     1       3.798   4.958  17.337  0.00  0.00    +0.000 A 
BRANCH  15  18
ATOM     18  C   UNL     1       6.614   4.599  14.792  0.00  0.00    +0.000 C 
ATOM     19  O   UNL     1       7.579   5.221  14.381  0.00  0.00    +0.000 OA
BRANCH  18  20
ATOM     20  O   UNL     1       6.265   3.386  14.319  0.00  0.00    +0.000 OA
ATOM     21  H   UNL     1       6.835   3.045  13.605  0.00  0.00    +0.000 HD
ENDBRANCH  18  20
ENDBRANCH  15  18
ENDBRANCH   3  12
TORSDOF 3
ENDMDL
MODEL 5
REMARK VINA RESULT:      -6.4      1.032      1.056
REMARK  Name = 
REMARK  3 active torsions:
REMARK  status: ('A' for Active; 'I' for Inactive)
REMARK    1  A    between atoms: N_3  and  C_4
REMARK    2  A    between atoms: C_7  and  C_8
REMARK    3  A    between atoms: C_8  and  O_10
REMARK                            x       y       z     vdW  Elec       q    Type
REMARK                         _______ _______ _______ _____ _____    ______ ____
ROOT
ATOM      1  O   UNL     1       7.243   6.338  17.151  0.00  0.00    +0.000 OA
ATOM      2  C   UNL     1       6.748   5.609  16.291  0.00  0.00    +0.000 C 
ATOM      3  N   UNL     1       5.606   4.865  16.435  0.00  0.00    +0.000 N 
ATOM      4  N   UNL     1       7.397   5.538  15.095  0.00  0.00    +0.000 N 
ATOM      5  C   UNL     1       7.029   4.805  14.011  0.00  0.00    +0.000 A 
ATOM      6  N   UNL     1       6.035   3.956  13.909  0.00  0.00    +0.000 NA
ATOM      7  C   UNL     1       6.023   3.450  12.620  0.00  0.00    +0.000 A 
ATOM      8  C   UNL     1       7.003   3.933  11.778  0.00  0.00    +0.000 A 
ATOM      9  S   UNL     1       7.999   5.039  12.632  0.00  0.00    +0.000 S 
ATOM     10  H   UNL     1       5.430   4.195  15.689  0.00  0.00    +0.000 HD
ATOM     11  H   UNL     1       8.217   6.122  15.017  0.00  0.00    +0.000 HD
ENDROOT
BRANCH   3  12
ATOM     12  C   UNL     1       4.737   4.856  17.544  0.00  0.00    +0.000 A 
ATOM     13  C   UNL     1       4.829   3.920  18.575  0.00  0.00    +0.000 A 
ATOM     14  C   UNL     1       3.933   3.946  19.647  0.00  0.00    +0.000 A 
ATOM     15  C   UNL     1       2.924   4.910  19.699  0.00  0.00    +0.000 A 
ATOM     16  C   UNL     1       2.844   5.878  18.690  0.00  0.00    +0.000 A 
ATOM     17  C   UNL     1       3.753   5.850  17.621  0.00  0.00    +0.000 A 
BRANCH  15  18
ATOM     18  C   UNL     1       2.008   4.885  20.870  0.00  0.00    +0.000 C 
ATOM     19  O   UNL     1       1.634   3.850  21.395  0.00  0.00    +0.000 OA
BRANCH  18  20
ATOM     20  O   UNL     1       1.596   6.104  21.271  0.00  0.00    +0.000 OA
ATOM     21  H   UNL     1       0.645   6.277  21.146  0.00  0.00    +0.000 HD
ENDBRANCH  18  20
ENDBRANCH  15  18
ENDBRANCH   3  12
TORSDOF 3
ENDMDL
MODEL 6
REMARK VINA RESULT:      -6.3      5.550      7.627
REMARK  Name = 
REMARK  3 active torsions:
REMARK  status: ('A' for Active; 'I' for Inactive)
REMARK    1  A    between atoms: N_3  and  C_4
REMARK    2  A    between atoms: C_7  and  C_8
REMARK    3  A    between atoms: C_8  and  O_10
REMARK                            x       y       z     vdW  Elec       q    Type
REMARK                         _______ _______ _______ _____ _____    ______ ____
ROOT
ATOM      1  O   UNL     1       2.326   8.237  18.289  0.00  0.00    +0.000 OA
ATOM      2  C   UNL     1       1.802   8.249  19.403  0.00  0.00    +0.000 C 
ATOM      3  N   UNL     1       1.792   7.206  20.292  0.00  0.00    +0.000 N 
ATOM      4  N   UNL     1       1.179   9.401  19.779  0.00  0.00    +0.000 N 
ATOM      5  C   UNL     1       0.544   9.635  20.958  0.00  0.00    +0.000 A 
ATOM      6  N   UNL     1       0.321   8.793  21.938  0.00  0.00    +0.000 NA
ATOM      7  C   UNL     1      -0.346   9.464  22.948  0.00  0.00    +0.000 A 
ATOM      8  C   UNL     1      -0.606  10.798  22.710  0.00  0.00    +0.000 A 
ATOM      9  S   UNL     1      -0.025  11.228  21.155  0.00  0.00    +0.000 S 
ATOM     10  H   UNL     1       1.177   7.327  21.094  0.00  0.00    +0.000 HD
ATOM     11  H   UNL     1       1.233  10.155  19.111  0.00  0.00    +0.000 HD
ENDROOT
BRANCH   3  12
ATOM     12  C   UNL     1       2.445   5.965  20.148  0.00  0.00    +0.000 A 
ATOM     13  C   UNL     1       3.652   5.815  19.463  0.00  0.00    +0.000 A 
ATOM     14  C   UNL     1       4.251   4.560  19.336  0.00  0.00    +0.000 A 
ATOM     15  C   UNL     1       3.645   3.430  19.890  0.00  0.00    +0.000 A 
ATOM     16  C   UNL     1       2.453   3.573  20.612  0.00  0.00    +0.000 A 
ATOM     17  C   UNL     1       1.861   4.839  20.741  0.00  0.00    +0.000 A 
BRANCH  15  18
ATOM     18  C   UNL     1       4.339   2.126  19.724  0.00  0.00    +0.000 C 
ATOM     19  O   UNL     1       5.126   1.686  20.544  0.00  0.00    +0.000 OA
BRANCH  18  20
ATOM     20  O   UNL     1       4.051   1.494  18.568  0.00  0.00    +0.000 OA
ATOM     21  H   UNL     1       3.320   1.886  18.057  0.00  0.00    +0.000 HD
ENDBRANCH  18  20
ENDBRANCH  15  18
ENDBRANCH   3  12
TORSDOF 3
ENDMDL
MODEL 7
REMARK VINA RESULT:      -6.3      3.514      7.137
REMARK  Name = 
REMARK  3 active torsions:
REMARK  status: ('A' for Active; 'I' for Inactive)
REMARK    1  A    between atoms: N_3  and  C_4
REMARK    2  A    between atoms: C_7  and  C_8
REMARK    3  A    between atoms: C_8  and  O_10
REMARK                            x       y       z     vdW  Elec       q    Type
REMARK                         _______ _______ _______ _____ _____    ______ ____
ROOT
ATOM      1  O   UNL     1       6.338   4.415  19.359  0.00  0.00    +0.000 OA
ATOM      2  C   UNL     1       5.196   4.164  18.973  0.00  0.00    +0.000 C 
ATOM      3  N   UNL     1       4.764   4.211  17.674  0.00  0.00    +0.000 N 
ATOM      4  N   UNL     1       4.288   3.811  19.925  0.00  0.00    +0.000 N 
ATOM      5  C   UNL     1       2.982   3.491  19.726  0.00  0.00    +0.000 A 
ATOM      6  N   UNL     1       2.301   3.532  18.605  0.00  0.00    +0.000 NA
ATOM      7  C   UNL     1       1.010   3.106  18.862  0.00  0.00    +0.000 A 
ATOM      8  C   UNL     1       0.747   2.747  20.169  0.00  0.00    +0.000 A 
ATOM      9  S   UNL     1       2.154   2.978  21.122  0.00  0.00    +0.000 S 
ATOM     10  H   UNL     1       3.756   4.136  17.551  0.00  0.00    +0.000 HD
ATOM     11  H   UNL     1       4.651   3.760  20.866  0.00  0.00    +0.000 HD
ENDROOT
BRANCH   3  12
ATOM     12  C   UNL     1       5.548   4.463  16.530  0.00  0.00    +0.000 A 
ATOM     13  C   UNL     1       6.552   5.432  16.495  0.00  0.00    +0.000 A 
ATOM     14  C   UNL     1       7.292   5.654  15.331  0.00  0.00    +0.000 A 
ATOM     15  C   UNL     1       7.032   4.908  14.178  0.00  0.00    +0.000 A 
ATOM     16  C   UNL     1       6.053   3.907  14.212  0.00  0.00    +0.000 A 
ATOM     17  C   UNL     1       5.319   3.686  15.388  0.00  0.00    +0.000 A 
BRANCH  15  18
ATOM     18  C   UNL     1       7.860   5.190  12.976  0.00  0.00    +0.000 C 
ATOM     19  O   UNL     1       8.792   5.976  12.983  0.00  0.00    +0.000 OA
BRANCH  18  20
ATOM     20  O   UNL     1       7.463   4.531  11.869  0.00  0.00    +0.000 OA
ATOM     21  H   UNL     1       6.565   4.751  11.561  0.00  0.00    +0.000 HD
ENDBRANCH  18  20
ENDBRANCH  15  18
ENDBRANCH   3  12
TORSDOF 3
ENDMDL
MODEL 8
REMARK VINA RESULT:      -6.2      3.539      7.168
REMARK  Name = 
REMARK  3 active torsions:
REMARK  status: ('A' for Active; 'I' for Inactive)
REMARK    1  A    between atoms: N_3  and  C_4
REMARK    2  A    between atoms: C_7  and  C_8
REMARK    3  A    between atoms: C_8  and  O_10
REMARK                            x       y       z     vdW  Elec       q    Type
REMARK                         _______ _______ _______ _____ _____    ______ ____
ROOT
ATOM      1  O   UNL     1       6.346   4.473  19.356  0.00  0.00    +0.000 OA
ATOM      2  C   UNL     1       5.197   4.195  19.014  0.00  0.00    +0.000 C 
ATOM      3  N   UNL     1       4.723   4.199  17.728  0.00  0.00    +0.000 N 
ATOM      4  N   UNL     1       4.324   3.857  20.004  0.00  0.00    +0.000 N 
ATOM      5  C   UNL     1       3.018   3.512  19.855  0.00  0.00    +0.000 A 
ATOM      6  N   UNL     1       2.302   3.512  18.756  0.00  0.00    +0.000 NA
ATOM      7  C   UNL     1       1.025   3.075  19.066  0.00  0.00    +0.000 A 
ATOM      8  C   UNL     1       0.809   2.751  20.390  0.00  0.00    +0.000 A 
ATOM      9  S   UNL     1       2.242   3.028  21.291  0.00  0.00    +0.000 S 
ATOM     10  H   UNL     1       3.713   4.106  17.639  0.00  0.00    +0.000 HD
ATOM     11  H   UNL     1       4.717   3.837  20.934  0.00  0.00    +0.000 HD
ENDROOT
BRANCH   3  12
ATOM     12  C   UNL     1       5.467   4.429  16.554  0.00  0.00    +0.000 A 
ATOM     13  C   UNL     1       5.163   3.829  15.330  0.00  0.00    +0.000 A 
ATOM     14  C   UNL     1       5.941   4.080  14.197  0.00  0.00    +0.000 A 
ATOM     15  C   UNL     1       7.042   4.936  14.274  0.00  0.00    +0.000 A 
ATOM     16  C   UNL     1       7.335   5.574  15.486  0.00  0.00    +0.000 A 
ATOM     17  C   UNL     1       6.544   5.322  16.618  0.00  0.00    +0.000 A 
BRANCH  15  18
ATOM     18  C   UNL     1       7.824   5.165  13.030  0.00  0.00    +0.000 C 
ATOM     19  O   UNL     1       8.739   5.969  12.963  0.00  0.00    +0.000 OA
BRANCH  18  20
ATOM     20  O   UNL     1       7.404   4.438  11.975  0.00  0.00    +0.000 OA
ATOM     21  H   UNL     1       6.793   4.903  11.375  0.00  0.00    +0.000 HD
ENDBRANCH  18  20
ENDBRANCH  15  18
ENDBRANCH   3  12
TORSDOF 3
ENDMDL
MODEL 9
REMARK VINA RESULT:      -6.1      5.607      7.703
REMARK  Name = 
REMARK  3 active torsions:
REMARK  status: ('A' for Active; 'I' for Inactive)
REMARK    1  A    between atoms: N_3  and  C_4
REMARK    2  A    between atoms: C_7  and  C_8
REMARK    3  A    between atoms: C_8  and  O_10
REMARK                            x       y       z     vdW  Elec       q    Type
REMARK                         _______ _______ _______ _____ _____    ______ ____
ROOT
ATOM      1  O   UNL     1       2.216   8.240  18.367  0.00  0.00    +0.000 OA
ATOM      2  C   UNL     1       1.702   8.256  19.486  0.00  0.00    +0.000 C 
ATOM      3  N   UNL     1       1.681   7.210  20.371  0.00  0.00    +0.000 N 
ATOM      4  N   UNL     1       1.102   9.417  19.871  0.00  0.00    +0.000 N 
ATOM      5  C   UNL     1       0.480   9.658  21.056  0.00  0.00    +0.000 A 
ATOM      6  N   UNL     1       0.251   8.815  22.035  0.00  0.00    +0.000 NA
ATOM      7  C   UNL     1      -0.396   9.494  23.053  0.00  0.00    +0.000 A 
ATOM      8  C   UNL     1      -0.635  10.834  22.822  0.00  0.00    +0.000 A 
ATOM      9  S   UNL     1      -0.059  11.259  21.264  0.00  0.00    +0.000 S 
ATOM     10  H   UNL     1       1.073   7.338  21.178  0.00  0.00    +0.000 HD
ATOM     11  H   UNL     1       1.164  10.173  19.206  0.00  0.00    +0.000 HD
ENDROOT
BRANCH   3  12
ATOM     12  C   UNL     1       2.310   5.959  20.216  0.00  0.00    +0.000 A 
ATOM     13  C   UNL     1       1.761   4.766  20.692  0.00  0.00    +0.000 A 
ATOM     14  C   UNL     1       2.432   3.553  20.525  0.00  0.00    +0.000 A 
ATOM     15  C   UNL     1       3.671   3.515  19.881  0.00  0.00    +0.000 A 
ATOM     16  C   UNL     1       4.215   4.699  19.365  0.00  0.00    +0.000 A 
ATOM     17  C   UNL     1       3.530   5.913  19.530  0.00  0.00    +0.000 A 
BRANCH  15  18
ATOM     18  C   UNL     1       4.329   2.190  19.731  0.00  0.00    +0.000 C 
ATOM     19  O   UNL     1       5.110   1.743  20.554  0.00  0.00    +0.000 OA
BRANCH  18  20
ATOM     20  O   UNL     1       4.019   1.549  18.587  0.00  0.00    +0.000 OA
ATOM     21  H   UNL     1       3.981   0.578  18.659  0.00  0.00    +0.000 HD
ENDBRANCH  18  20
ENDBRANCH  15  18
ENDBRANCH   3  12
TORSDOF 3
ENDMDL
