MODEL 1
REMARK VINA RESULT:      -7.9      0.000      0.000
REMARK  Name = 
REMARK  11 active torsions:
REMARK  status: ('A' for Active; 'I' for Inactive)
REMARK    1  A    between atoms: C_1  and  C_2
REMARK    2  A    between atoms: C_5  and  C_6
REMARK    3  A    between atoms: C_7  and  C_8
REMARK    4  A    between atoms: C_17  and  O_18
REMARK    5  A    between atoms: O_18  and  C_19
REMARK    6  A    between atoms: C_19  and  C_20
REMARK    7  A    between atoms: C_20  and  N_21
REMARK    8  A    between atoms: N_22  and  C_23
REMARK    9  A    between atoms: C_23  and  C_24
REMARK   10  A    between atoms: C_23  and  C_25
REMARK   11  A    between atoms: N_33  and  C_34
REMARK                            x       y       z     vdW  Elec       q    Type
REMARK                         _______ _______ _______ _____ _____    ______ ____
ROOT
ATOM      1  C   UNL     1       0.906   9.226  19.218  0.00  0.00    +0.000 A 
ATOM      2  C   UNL     1       0.937   8.079  20.043  0.00  0.00    +0.000 A 
ATOM      3  C   UNL     1       1.808   7.017  19.879  0.00  0.00    +0.000 A 
ATOM      4  N   UNL     1       1.640   5.975  20.713  0.00  0.00    +0.000 NA
ATOM      5  C   UNL     1       2.462   4.915  20.597  0.00  0.00    +0.000 A 
ATOM      6  C   UNL     1       3.473   4.904  19.674  0.00  0.00    +0.000 A 
ATOM      7  C   UNL     1       3.671   5.969  18.800  0.00  0.00    +0.000 A 
ATOM      8  C   UNL     1       2.793   7.075  18.869  0.00  0.00    +0.000 A 
ATOM      9  C   UNL     1       2.779   8.223  18.049  0.00  0.00    +0.000 A 
ATOM     10  C   UNL     1       1.886   9.309  18.212  0.00  0.00    +0.000 A 
ATOM     11  N   UNL     1       4.827   5.635  18.022  0.00  0.00    +0.000 N 
ATOM     12  C   UNL     1       5.326   4.382  18.469  0.00  0.00    +0.000 A 
ATOM     13  O   UNL     1       6.337   3.814  18.095  0.00  0.00    +0.000 OA
ATOM     14  N   UNL     1       4.450   3.931  19.459  0.00  0.00    +0.000 N 
ATOM     15  C   UNL     1       4.571   2.709  20.206  0.00  0.00    +0.000 C 
ENDROOT
BRANCH   1  22
ATOM     16  C   UNL     1       0.223  11.160  21.922  0.00  0.00    +0.000 C 
ATOM     17  C   UNL     1      -0.463  11.029  20.622  0.00  0.00    +0.000 A 
ATOM     18  N   UNL     1      -1.584  11.738  20.439  0.00  0.00    +0.000 NA
ATOM     19  O   UNL     1      -2.050  11.394  19.198  0.00  0.00    +0.000 OA
ATOM     20  C   UNL     1      -1.214  10.492  18.625  0.00  0.00    +0.000 A 
ATOM     21  C   UNL     1      -1.661  10.042  17.286  0.00  0.00    +0.000 C 
ATOM     22  C   UNL     1      -0.155  10.213  19.488  0.00  0.00    +0.000 A 
ENDBRANCH   1  22
BRANCH  11  23
ATOM     23  C   UNL     1       5.549   6.438  17.044  0.00  0.00    +0.000 C 
ATOM     24  C   UNL     1       6.782   7.142  17.633  0.00  0.00    +0.000 C 
BRANCH  23  25
ATOM     25  C   UNL     1       5.869   5.708  15.736  0.00  0.00    +0.000 A 
ATOM     26  C   UNL     1       4.918   4.929  15.073  0.00  0.00    +0.000 A 
ATOM     27  C   UNL     1       5.310   4.128  14.003  0.00  0.00    +0.000 A 
ATOM     28  C   UNL     1       6.635   4.145  13.592  0.00  0.00    +0.000 A 
ATOM     29  C   UNL     1       7.511   4.983  14.260  0.00  0.00    +0.000 A 
ATOM     30  N   UNL     1       7.165   5.752  15.320  0.00  0.00    +0.000 NA
ENDBRANCH  23  25
ENDBRANCH  11  23
BRANCH  10  31
ATOM     31  O   UNL     1       1.966  10.420  17.390  0.00  0.00    +0.000 OA
BRANCH  31  32
ATOM     32  C   UNL     1       2.824  11.483  17.865  0.00  0.00    +0.000 C 
BRANCH  32  33
ATOM     33  C   UNL     1       2.079  12.789  18.166  0.00  0.00    +0.000 C 
BRANCH  33  34
ATOM     34  N   UNL     1       2.845  13.979  17.800  0.00  0.00    +0.000 NA
ATOM     35  H   UNL     1       3.298  14.353  18.630  0.00  0.00    +0.000 HD
ATOM     36  H   UNL     1       2.202  14.704  17.480  0.00  0.00    +0.000 HD
ENDBRANCH  33  34
ENDBRANCH  32  33
ENDBRANCH  31  32
ENDBRANCH  10  31
TORSDOF 7
ENDMDL
MODEL 2
REMARK VINA RESULT:      -7.8      0.357      1.392
REMARK  Name = 
REMARK  11 active torsions:
REMARK  status: ('A' for Active; 'I' for Inactive)
REMARK    1  A    between atoms: C_1  and  C_2
REMARK    2  A    between atoms: C_5  and  C_6
REMARK    3  A    between atoms: C_7  and  C_8
REMARK    4  A    between atoms: C_17  and  O_18
REMARK    5  A    between atoms: O_18  and  C_19
REMARK    6  A    between atoms: C_19  and  C_20
REMARK    7  A    between atoms: C_20  and  N_21
REMARK    8  A    between atoms: N_22  and  C_23
REMARK    9  A    between atoms: C_23  and  C_24
REMARK   10  A    between atoms: C_23  and  C_25
REMARK   11  A    between atoms: N_33  and  C_34
REMARK                            x       y       z     vdW  Elec       q    Type
REMARK                         _______ _______ _______ _____ _____    ______ ____
ROOT
ATOM      1  C   UNL     1       0.900   9.194  19.151  0.00  0.00    +0.000 A 
ATOM      2  C   UNL     1       0.929   8.051  19.984  0.00  0.00    +0.000 A 
ATOM      3  C   UNL     1       1.809   6.995  19.838  0.00  0.00    +0.000 A 
ATOM      4  N   UNL     1       1.638   5.958  20.677  0.00  0.00    +0.000 NA
ATOM      5  C   UNL     1       2.469   4.903  20.578  0.00  0.00    +0.000 A 
ATOM      6  C   UNL     1       3.492   4.893  19.668  0.00  0.00    +0.000 A 
ATOM      7  C   UNL     1       3.693   5.953  18.790  0.00  0.00    +0.000 A 
ATOM      8  C   UNL     1       2.807   7.054  18.841  0.00  0.00    +0.000 A 
ATOM      9  C   UNL     1       2.795   8.196  18.012  0.00  0.00    +0.000 A 
ATOM     10  C   UNL     1       1.892   9.277  18.157  0.00  0.00    +0.000 A 
ATOM     11  N   UNL     1       4.861   5.623  18.029  0.00  0.00    +0.000 N 
ATOM     12  C   UNL     1       5.364   4.377  18.490  0.00  0.00    +0.000 A 
ATOM     13  O   UNL     1       6.384   3.813  18.133  0.00  0.00    +0.000 OA
ATOM     14  N   UNL     1       4.478   3.926  19.473  0.00  0.00    +0.000 N 
ATOM     15  C   UNL     1       4.599   2.710  20.229  0.00  0.00    +0.000 C 
ENDROOT
BRANCH   1  22
ATOM     16  C   UNL     1      -1.854  10.065  17.371  0.00  0.00    +0.000 C 
ATOM     17  C   UNL     1      -1.332  10.560  18.659  0.00  0.00    +0.000 A 
ATOM     18  N   UNL     1      -1.995  11.561  19.251  0.00  0.00    +0.000 NA
ATOM     19  O   UNL     1      -1.282  11.871  20.378  0.00  0.00    +0.000 OA
ATOM     20  C   UNL     1      -0.201  11.058  20.478  0.00  0.00    +0.000 A 
ATOM     21  C   UNL     1       0.646  11.346  21.660  0.00  0.00    +0.000 C 
ATOM     22  C   UNL     1      -0.171  10.174  19.401  0.00  0.00    +0.000 A 
ENDBRANCH   1  22
BRANCH  11  23
ATOM     23  C   UNL     1       5.590   6.425  17.054  0.00  0.00    +0.000 C 
ATOM     24  C   UNL     1       6.831   7.112  17.646  0.00  0.00    +0.000 C 
BRANCH  23  25
ATOM     25  C   UNL     1       5.901   5.699  15.742  0.00  0.00    +0.000 A 
ATOM     26  C   UNL     1       4.947   4.919  15.085  0.00  0.00    +0.000 A 
ATOM     27  C   UNL     1       5.332   4.122  14.009  0.00  0.00    +0.000 A 
ATOM     28  C   UNL     1       6.654   4.145  13.587  0.00  0.00    +0.000 A 
ATOM     29  C   UNL     1       7.532   4.984  14.250  0.00  0.00    +0.000 A 
ATOM     30  N   UNL     1       7.193   5.749  15.314  0.00  0.00    +0.000 NA
ENDBRANCH  23  25
ENDBRANCH  11  23
BRANCH  10  31
ATOM     31  O   UNL     1       1.975  10.383  17.328  0.00  0.00    +0.000 OA
BRANCH  31  32
ATOM     32  C   UNL     1       2.846  11.440  17.790  0.00  0.00    +0.000 C 
BRANCH  32  33
ATOM     33  C   UNL     1       2.113  12.749  18.109  0.00  0.00    +0.000 C 
BRANCH  33  34
ATOM     34  N   UNL     1       2.886  13.937  17.752  0.00  0.00    +0.000 NA
ATOM     35  H   UNL     1       2.292  14.580  17.234  0.00  0.00    +0.000 HD
ATOM     36  H   UNL     1       3.634  13.667  17.112  0.00  0.00    +0.000 HD
ENDBRANCH  33  34
ENDBRANCH  32  33
ENDBRANCH  31  32
ENDBRANCH  10  31
TORSDOF 7
ENDMDL
MODEL 3
REMARK VINA RESULT:      -6.6      1.923      7.971
REMARK  Name = 
REMARK  11 active torsions:
REMARK  status: ('A' for Active; 'I' for Inactive)
REMARK    1  A    between atoms: C_1  and  C_2
REMARK    2  A    between atoms: C_5  and  C_6
REMARK    3  A    between atoms: C_7  and  C_8
REMARK    4  A    between atoms: C_17  and  O_18
REMARK    5  A    between atoms: O_18  and  C_19
REMARK    6  A    between atoms: C_19  and  C_20
REMARK    7  A    between atoms: C_20  and  N_21
REMARK    8  A    between atoms: N_22  and  C_23
REMARK    9  A    between atoms: C_23  and  C_24
REMARK   10  A    between atoms: C_23  and  C_25
REMARK   11  A    between atoms: N_33  and  C_34
REMARK                            x       y       z     vdW  Elec       q    Type
REMARK                         _______ _______ _______ _____ _____    ______ ____
ROOT
ATOM      1  C   UNL     1       2.511   6.600  19.150  0.00  0.00    +0.000 A 
ATOM      2  C   UNL     1       1.865   6.768  20.396  0.00  0.00    +0.000 A 
ATOM      3  C   UNL     1       1.254   7.936  20.813  0.00  0.00    +0.000 A 
ATOM      4  N   UNL     1       0.757   7.934  22.063  0.00  0.00    +0.000 NA
ATOM      5  C   UNL     1       0.151   9.048  22.518  0.00  0.00    +0.000 A 
ATOM      6  C   UNL     1       0.009  10.151  21.721  0.00  0.00    +0.000 A 
ATOM      7  C   UNL     1       0.512  10.179  20.423  0.00  0.00    +0.000 A 
ATOM      8  C   UNL     1       1.194   9.041  19.935  0.00  0.00    +0.000 A 
ATOM      9  C   UNL     1       1.825   8.878  18.684  0.00  0.00    +0.000 A 
ATOM     10  C   UNL     1       2.454   7.685  18.256  0.00  0.00    +0.000 A 
ATOM     11  N   UNL     1       0.145  11.454  19.882  0.00  0.00    +0.000 N 
ATOM     12  C   UNL     1      -0.607  12.160  20.859  0.00  0.00    +0.000 A 
ATOM     13  O   UNL     1      -1.151  13.244  20.733  0.00  0.00    +0.000 OA
ATOM     14  N   UNL     1      -0.641  11.353  22.000  0.00  0.00    +0.000 N 
ATOM     15  C   UNL     1      -1.308  11.660  23.235  0.00  0.00    +0.000 C 
ENDROOT
BRANCH   1  22
ATOM     16  C   UNL     1       5.744   5.629  19.496  0.00  0.00    +0.000 C 
ATOM     17  C   UNL     1       4.549   4.887  19.050  0.00  0.00    +0.000 A 
ATOM     18  N   UNL     1       4.718   3.619  18.656  0.00  0.00    +0.000 NA
ATOM     19  O   UNL     1       3.488   3.186  18.238  0.00  0.00    +0.000 OA
ATOM     20  C   UNL     1       2.574   4.178  18.389  0.00  0.00    +0.000 A 
ATOM     21  C   UNL     1       1.216   3.802  17.932  0.00  0.00    +0.000 C 
ATOM     22  C   UNL     1       3.189   5.312  18.919  0.00  0.00    +0.000 A 
ENDBRANCH   1  22
BRANCH  11  23
ATOM     23  C   UNL     1       0.309  11.968  18.528  0.00  0.00    +0.000 C 
ATOM     24  C   UNL     1      -1.027  12.287  17.838  0.00  0.00    +0.000 C 
BRANCH  23  25
ATOM     25  C   UNL     1       1.313  13.118  18.404  0.00  0.00    +0.000 A 
ATOM     26  C   UNL     1       2.682  12.889  18.251  0.00  0.00    +0.000 A 
ATOM     27  C   UNL     1       3.573  13.957  18.343  0.00  0.00    +0.000 A 
ATOM     28  C   UNL     1       3.078  15.236  18.551  0.00  0.00    +0.000 A 
ATOM     29  C   UNL     1       1.707  15.395  18.640  0.00  0.00    +0.000 A 
ATOM     30  N   UNL     1       0.819  14.375  18.581  0.00  0.00    +0.000 NA
ENDBRANCH  23  25
ENDBRANCH  11  23
BRANCH  10  31
ATOM     31  O   UNL     1       3.014   7.594  16.993  0.00  0.00    +0.000 OA
BRANCH  31  32
ATOM     32  C   UNL     1       4.458   7.632  16.951  0.00  0.00    +0.000 C 
BRANCH  32  33
ATOM     33  C   UNL     1       5.074   6.635  15.961  0.00  0.00    +0.000 C 
BRANCH  33  34
ATOM     34  N   UNL     1       6.519   6.488  16.127  0.00  0.00    +0.000 NA
ATOM     35  H   UNL     1       6.995   7.121  15.489  0.00  0.00    +0.000 HD
ATOM     36  H   UNL     1       6.792   5.546  15.844  0.00  0.00    +0.000 HD
ENDBRANCH  33  34
ENDBRANCH  32  33
ENDBRANCH  31  32
ENDBRANCH  10  31
TORSDOF 7
ENDMDL
MODEL 4
REMARK VINA RESULT:      -6.5      5.378     10.941
REMARK  Name = 
REMARK  11 active torsions:
REMARK  status: ('A' for Active; 'I' for Inactive)
REMARK    1  A    between atoms: C_1  and  C_2
REMARK    2  A    between atoms: C_5  and  C_6
REMARK    3  A    between atoms: C_7  and  C_8
REMARK    4  A    between atoms: C_17  and  O_18
REMARK    5  A    between atoms: O_18  and  C_19
REMARK    6  A    between atoms: C_19  and  C_20
REMARK    7  A    between atoms: C_20  and  N_21
REMARK    8  A    between atoms: N_22  and  C_23
REMARK    9  A    between atoms: C_23  and  C_24
REMARK   10  A    between atoms: C_23  and  C_25
REMARK   11  A    between atoms: N_33  and  C_34
REMARK                            x       y       z     vdW  Elec       q    Type
REMARK                         _______ _______ _______ _____ _____    ______ ____
ROOT
ATOM      1  C   UNL     1      -0.619  12.293  19.399  0.00  0.00    +0.000 A 
ATOM      2  C   UNL     1      -0.810  12.566  20.773  0.00  0.00    +0.000 A 
ATOM      3  C   UNL     1      -2.044  12.700  21.383  0.00  0.00    +0.000 A 
ATOM      4  N   UNL     1      -2.031  13.036  22.685  0.00  0.00    +0.000 NA
ATOM      5  C   UNL     1      -3.206  13.179  23.327  0.00  0.00    +0.000 A 
ATOM      6  C   UNL     1      -4.394  12.957  22.685  0.00  0.00    +0.000 A 
ATOM      7  C   UNL     1      -4.437  12.606  21.338  0.00  0.00    +0.000 A 
ATOM      8  C   UNL     1      -3.219  12.494  20.628  0.00  0.00    +0.000 A 
ATOM      9  C   UNL     1      -3.039  12.209  19.257  0.00  0.00    +0.000 A 
ATOM     10  C   UNL     1      -1.777  12.074  18.631  0.00  0.00    +0.000 A 
ATOM     11  N   UNL     1      -5.820  12.412  21.021  0.00  0.00    +0.000 N 
ATOM     12  C   UNL     1      -6.586  12.617  22.200  0.00  0.00    +0.000 A 
ATOM     13  O   UNL     1      -7.788  12.466  22.336  0.00  0.00    +0.000 OA
ATOM     14  N   UNL     1      -5.688  12.993  23.203  0.00  0.00    +0.000 N 
ATOM     15  C   UNL     1      -6.019  13.287  24.570  0.00  0.00    +0.000 C 
ENDROOT
BRANCH   1  22
ATOM     16  C   UNL     1       1.580  14.781  18.699  0.00  0.00    +0.000 C 
ATOM     17  C   UNL     1       1.708  13.314  18.601  0.00  0.00    +0.000 A 
ATOM     18  N   UNL     1       2.854  12.824  18.112  0.00  0.00    +0.000 NA
ATOM     19  O   UNL     1       2.694  11.465  18.067  0.00  0.00    +0.000 OA
ATOM     20  C   UNL     1       1.466  11.129  18.536  0.00  0.00    +0.000 A 
ATOM     21  C   UNL     1       1.198   9.671  18.495  0.00  0.00    +0.000 C 
ATOM     22  C   UNL     1       0.771  12.278  18.910  0.00  0.00    +0.000 A 
ENDBRANCH   1  22
BRANCH  11  23
ATOM     23  C   UNL     1      -6.430  11.922  19.792  0.00  0.00    +0.000 C 
ATOM     24  C   UNL     1      -7.568  10.920  20.040  0.00  0.00    +0.000 C 
BRANCH  23  25
ATOM     25  C   UNL     1      -6.832  13.020  18.803  0.00  0.00    +0.000 A 
ATOM     26  C   UNL     1      -6.928  12.779  17.430  0.00  0.00    +0.000 A 
ATOM     27  C   UNL     1      -7.100  13.849  16.555  0.00  0.00    +0.000 A 
ATOM     28  C   UNL     1      -7.209  15.134  17.066  0.00  0.00    +0.000 A 
ATOM     29  C   UNL     1      -7.160  15.292  18.440  0.00  0.00    +0.000 A 
ATOM     30  N   UNL     1      -6.967  14.276  19.314  0.00  0.00    +0.000 NA
ENDBRANCH  23  25
ENDBRANCH  11  23
BRANCH  10  31
ATOM     31  O   UNL     1      -1.686  11.750  17.287  0.00  0.00    +0.000 OA
BRANCH  31  32
ATOM     32  C   UNL     1      -1.983  10.373  16.961  0.00  0.00    +0.000 C 
BRANCH  32  33
ATOM     33  C   UNL     1      -3.223  10.202  16.074  0.00  0.00    +0.000 C 
BRANCH  33  34
ATOM     34  N   UNL     1      -3.406  11.304  15.132  0.00  0.00    +0.000 NA
ATOM     35  H   UNL     1      -4.362  11.293  14.785  0.00  0.00    +0.000 HD
ATOM     36  H   UNL     1      -2.810  11.150  14.318  0.00  0.00    +0.000 HD
ENDBRANCH  33  34
ENDBRANCH  32  33
ENDBRANCH  31  32
ENDBRANCH  10  31
TORSDOF 7
ENDMDL
MODEL 5
REMARK VINA RESULT:      -6.5      7.689     10.980
REMARK  Name = 
REMARK  11 active torsions:
REMARK  status: ('A' for Active; 'I' for Inactive)
REMARK    1  A    between atoms: C_1  and  C_2
REMARK    2  A    between atoms: C_5  and  C_6
REMARK    3  A    between atoms: C_7  and  C_8
REMARK    4  A    between atoms: C_17  and  O_18
REMARK    5  A    between atoms: O_18  and  C_19
REMARK    6  A    between atoms: C_19  and  C_20
REMARK    7  A    between atoms: C_20  and  N_21
REMARK    8  A    between atoms: N_22  and  C_23
REMARK    9  A    between atoms: C_23  and  C_24
REMARK   10  A    between atoms: C_23  and  C_25
REMARK   11  A    between atoms: N_33  and  C_34
REMARK                            x       y       z     vdW  Elec       q    Type
REMARK                         _______ _______ _______ _____ _____    ______ ____
ROOT
ATOM      1  C   UNL     1       8.904  12.866  20.436  0.00  0.00    +0.000 A 
ATOM      2  C   UNL     1       8.704  11.950  21.495  0.00  0.00    +0.000 A 
ATOM      3  C   UNL     1       8.028  12.239  22.666  0.00  0.00    +0.000 A 
ATOM      4  N   UNL     1       8.003  11.265  23.594  0.00  0.00    +0.000 NA
ATOM      5  C   UNL     1       7.357  11.494  24.753  0.00  0.00    +0.000 A 
ATOM      6  C   UNL     1       6.707  12.678  24.978  0.00  0.00    +0.000 A 
ATOM      7  C   UNL     1       6.715  13.701  24.034  0.00  0.00    +0.000 A 
ATOM      8  C   UNL     1       7.424  13.505  22.827  0.00  0.00    +0.000 A 
ATOM      9  C   UNL     1       7.607  14.423  21.770  0.00  0.00    +0.000 A 
ATOM     10  C   UNL     1       8.302  14.131  20.572  0.00  0.00    +0.000 A 
ATOM     11  N   UNL     1       5.908  14.752  24.580  0.00  0.00    +0.000 N 
ATOM     12  C   UNL     1       5.400  14.324  25.836  0.00  0.00    +0.000 A 
ATOM     13  O   UNL     1       4.618  14.918  26.558  0.00  0.00    +0.000 OA
ATOM     14  N   UNL     1       5.940  13.059  26.079  0.00  0.00    +0.000 N 
ATOM     15  C   UNL     1       5.687  12.235  27.229  0.00  0.00    +0.000 C 
ENDROOT
BRANCH   1  22
ATOM     16  C   UNL     1      12.189  12.052  20.197  0.00  0.00    +0.000 C 
ATOM     17  C   UNL     1      11.116  12.071  19.185  0.00  0.00    +0.000 A 
ATOM     18  N   UNL     1      11.449  11.767  17.924  0.00  0.00    +0.000 NA
ATOM     19  O   UNL     1      10.306  11.918  17.185  0.00  0.00    +0.000 OA
ATOM     20  C   UNL     1       9.282  12.297  17.991  0.00  0.00    +0.000 A 
ATOM     21  C   UNL     1       8.008  12.511  17.264  0.00  0.00    +0.000 C 
ATOM     22  C   UNL     1       9.731  12.409  19.306  0.00  0.00    +0.000 A 
ENDBRANCH   1  22
BRANCH  11  23
ATOM     23  C   UNL     1       5.479  16.003  23.970  0.00  0.00    +0.000 C 
ATOM     24  C   UNL     1       6.635  16.992  23.745  0.00  0.00    +0.000 C 
BRANCH  23  25
ATOM     25  C   UNL     1       4.612  15.834  22.719  0.00  0.00    +0.000 A 
ATOM     26  C   UNL     1       4.764  16.654  21.599  0.00  0.00    +0.000 A 
ATOM     27  C   UNL     1       3.826  16.594  20.570  0.00  0.00    +0.000 A 
ATOM     28  C   UNL     1       2.775  15.693  20.662  0.00  0.00    +0.000 A 
ATOM     29  C   UNL     1       2.718  14.873  21.776  0.00  0.00    +0.000 A 
ATOM     30  N   UNL     1       3.599  14.927  22.803  0.00  0.00    +0.000 NA
ENDBRANCH  23  25
ENDBRANCH  11  23
BRANCH  10  31
ATOM     31  O   UNL     1       8.400  15.075  19.564  0.00  0.00    +0.000 OA
BRANCH  31  32
ATOM     32  C   UNL     1       9.521  15.982  19.671  0.00  0.00    +0.000 C 
BRANCH  32  33
ATOM     33  C   UNL     1      10.531  15.853  18.524  0.00  0.00    +0.000 C 
BRANCH  33  34
ATOM     34  N   UNL     1       9.895  15.788  17.210  0.00  0.00    +0.000 NA
ATOM     35  H   UNL     1      10.492  15.262  16.575  0.00  0.00    +0.000 HD
ATOM     36  H   UNL     1       9.834  16.730  16.822  0.00  0.00    +0.000 HD
ENDBRANCH  33  34
ENDBRANCH  32  33
ENDBRANCH  31  32
ENDBRANCH  10  31
TORSDOF 7
ENDMDL
MODEL 6
REMARK VINA RESULT:      -6.5      6.224      9.547
REMARK  Name = 
REMARK  11 active torsions:
REMARK  status: ('A' for Active; 'I' for Inactive)
REMARK    1  A    between atoms: C_1  and  C_2
REMARK    2  A    between atoms: C_5  and  C_6
REMARK    3  A    between atoms: C_7  and  C_8
REMARK    4  A    between atoms: C_17  and  O_18
REMARK    5  A    between atoms: O_18  and  C_19
REMARK    6  A    between atoms: C_19  and  C_20
REMARK    7  A    between atoms: C_20  and  N_21
REMARK    8  A    between atoms: N_22  and  C_23
REMARK    9  A    between atoms: C_23  and  C_24
REMARK   10  A    between atoms: C_23  and  C_25
REMARK   11  A    between atoms: N_33  and  C_34
REMARK                            x       y       z     vdW  Elec       q    Type
REMARK                         _______ _______ _______ _____ _____    ______ ____
ROOT
ATOM      1  C   UNL     1      -5.379  14.251  21.397  0.00  0.00    +0.000 A 
ATOM      2  C   UNL     1      -5.919  13.492  20.334  0.00  0.00    +0.000 A 
ATOM      3  C   UNL     1      -5.172  12.723  19.460  0.00  0.00    +0.000 A 
ATOM      4  N   UNL     1      -5.851  12.129  18.462  0.00  0.00    +0.000 NA
ATOM      5  C   UNL     1      -5.171  11.368  17.582  0.00  0.00    +0.000 A 
ATOM      6  C   UNL     1      -3.823  11.169  17.714  0.00  0.00    +0.000 A 
ATOM      7  C   UNL     1      -3.097  11.769  18.739  0.00  0.00    +0.000 A 
ATOM      8  C   UNL     1      -3.777  12.611  19.649  0.00  0.00    +0.000 A 
ATOM      9  C   UNL     1      -3.231  13.356  20.715  0.00  0.00    +0.000 A 
ATOM     10  C   UNL     1      -3.992  14.146  21.609  0.00  0.00    +0.000 A 
ATOM     11  N   UNL     1      -1.749  11.308  18.594  0.00  0.00    +0.000 N 
ATOM     12  C   UNL     1      -1.696  10.405  17.498  0.00  0.00    +0.000 A 
ATOM     13  O   UNL     1      -0.735   9.756  17.120  0.00  0.00    +0.000 OA
ATOM     14  N   UNL     1      -2.979  10.368  16.945  0.00  0.00    +0.000 N 
ATOM     15  C   UNL     1      -3.395   9.574  15.823  0.00  0.00    +0.000 C 
ENDROOT
BRANCH   1  22
ATOM     16  C   UNL     1      -7.366  13.580  24.064  0.00  0.00    +0.000 C 
ATOM     17  C   UNL     1      -7.171  14.817  23.284  0.00  0.00    +0.000 A 
ATOM     18  N   UNL     1      -7.917  15.879  23.613  0.00  0.00    +0.000 NA
ATOM     19  O   UNL     1      -7.594  16.859  22.712  0.00  0.00    +0.000 OA
ATOM     20  C   UNL     1      -6.650  16.402  21.851  0.00  0.00    +0.000 A 
ATOM     21  C   UNL     1      -6.263  17.394  20.820  0.00  0.00    +0.000 C 
ATOM     22  C   UNL     1      -6.320  15.085  22.166  0.00  0.00    +0.000 A 
ENDBRANCH   1  22
BRANCH  11  23
ATOM     23  C   UNL     1      -0.597  11.523  19.461  0.00  0.00    +0.000 C 
ATOM     24  C   UNL     1      -0.258  13.010  19.654  0.00  0.00    +0.000 C 
BRANCH  23  25
ATOM     25  C   UNL     1      -0.655  10.766  20.791  0.00  0.00    +0.000 A 
ATOM     26  C   UNL     1      -0.988  11.402  21.989  0.00  0.00    +0.000 A 
ATOM     27  C   UNL     1      -0.833  10.722  23.195  0.00  0.00    +0.000 A 
ATOM     28  C   UNL     1      -0.383   9.410  23.181  0.00  0.00    +0.000 A 
ATOM     29  C   UNL     1      -0.124   8.826  21.954  0.00  0.00    +0.000 A 
ATOM     30  N   UNL     1      -0.239   9.469  20.768  0.00  0.00    +0.000 NA
ENDBRANCH  23  25
ENDBRANCH  11  23
BRANCH  10  31
ATOM     31  O   UNL     1      -3.382  14.814  22.658  0.00  0.00    +0.000 OA
BRANCH  31  32
ATOM     32  C   UNL     1      -3.291  14.071  23.895  0.00  0.00    +0.000 C 
BRANCH  32  33
ATOM     33  C   UNL     1      -3.245  14.958  25.146  0.00  0.00    +0.000 C 
BRANCH  33  34
ATOM     34  N   UNL     1      -4.217  16.048  25.108  0.00  0.00    +0.000 NA
ATOM     35  H   UNL     1      -4.121  16.611  25.949  0.00  0.00    +0.000 HD
ATOM     36  H   UNL     1      -5.159  15.655  25.139  0.00  0.00    +0.000 HD
ENDBRANCH  33  34
ENDBRANCH  32  33
ENDBRANCH  31  32
ENDBRANCH  10  31
TORSDOF 7
ENDMDL
MODEL 7
REMARK VINA RESULT:      -6.4      7.099     10.981
REMARK  Name = 
REMARK  11 active torsions:
REMARK  status: ('A' for Active; 'I' for Inactive)
REMARK    1  A    between atoms: C_1  and  C_2
REMARK    2  A    between atoms: C_5  and  C_6
REMARK    3  A    between atoms: C_7  and  C_8
REMARK    4  A    between atoms: C_17  and  O_18
REMARK    5  A    between atoms: O_18  and  C_19
REMARK    6  A    between atoms: C_19  and  C_20
REMARK    7  A    between atoms: C_20  and  N_21
REMARK    8  A    between atoms: N_22  and  C_23
REMARK    9  A    between atoms: C_23  and  C_24
REMARK   10  A    between atoms: C_23  and  C_25
REMARK   11  A    between atoms: N_33  and  C_34
REMARK                            x       y       z     vdW  Elec       q    Type
REMARK                         _______ _______ _______ _____ _____    ______ ____
ROOT
ATOM      1  C   UNL     1       9.002  12.853  20.476  0.00  0.00    +0.000 A 
ATOM      2  C   UNL     1       8.814  11.963  21.558  0.00  0.00    +0.000 A 
ATOM      3  C   UNL     1       8.092  12.257  22.701  0.00  0.00    +0.000 A 
ATOM      4  N   UNL     1       8.085  11.313  23.659  0.00  0.00    +0.000 NA
ATOM      5  C   UNL     1       7.396  11.548  24.792  0.00  0.00    +0.000 A 
ATOM      6  C   UNL     1       6.686  12.707  24.959  0.00  0.00    +0.000 A 
ATOM      7  C   UNL     1       6.674  13.699  23.983  0.00  0.00    +0.000 A 
ATOM      8  C   UNL     1       7.427  13.498  22.803  0.00  0.00    +0.000 A 
ATOM      9  C   UNL     1       7.598  14.389  21.722  0.00  0.00    +0.000 A 
ATOM     10  C   UNL     1       8.340  14.092  20.554  0.00  0.00    +0.000 A 
ATOM     11  N   UNL     1       5.806  14.728  24.472  0.00  0.00    +0.000 N 
ATOM     12  C   UNL     1       5.281  14.317  25.727  0.00  0.00    +0.000 A 
ATOM     13  O   UNL     1       4.452  14.897  26.407  0.00  0.00    +0.000 OA
ATOM     14  N   UNL     1       5.871  13.087  26.026  0.00  0.00    +0.000 N 
ATOM     15  C   UNL     1       5.622  12.289  27.195  0.00  0.00    +0.000 C 
ENDROOT
BRANCH   1  22
ATOM     16  C   UNL     1       8.799  10.241  18.320  0.00  0.00    +0.000 C 
ATOM     17  C   UNL     1       9.817  11.298  18.474  0.00  0.00    +0.000 A 
ATOM     18  N   UNL     1      10.895  11.239  17.681  0.00  0.00    +0.000 NA
ATOM     19  O   UNL     1      11.700  12.279  18.062  0.00  0.00    +0.000 OA
ATOM     20  C   UNL     1      11.112  12.973  19.069  0.00  0.00    +0.000 A 
ATOM     21  C   UNL     1      11.933  14.104  19.563  0.00  0.00    +0.000 C 
ATOM     22  C   UNL     1       9.882  12.399  19.385  0.00  0.00    +0.000 A 
ENDBRANCH   1  22
BRANCH  11  23
ATOM     23  C   UNL     1       5.338  15.938  23.809  0.00  0.00    +0.000 C 
ATOM     24  C   UNL     1       6.453  16.971  23.582  0.00  0.00    +0.000 C 
BRANCH  23  25
ATOM     25  C   UNL     1       4.514  15.689  22.542  0.00  0.00    +0.000 A 
ATOM     26  C   UNL     1       4.674  16.467  21.393  0.00  0.00    +0.000 A 
ATOM     27  C   UNL     1       3.770  16.333  20.341  0.00  0.00    +0.000 A 
ATOM     28  C   UNL     1       2.745  15.404  20.441  0.00  0.00    +0.000 A 
ATOM     29  C   UNL     1       2.681  14.630  21.586  0.00  0.00    +0.000 A 
ATOM     30  N   UNL     1       3.528  14.754  22.635  0.00  0.00    +0.000 NA
ENDBRANCH  23  25
ENDBRANCH  11  23
BRANCH  10  31
ATOM     31  O   UNL     1       8.424  15.007  19.518  0.00  0.00    +0.000 OA
BRANCH  31  32
ATOM     32  C   UNL     1       8.675  16.374  19.917  0.00  0.00    +0.000 C 
BRANCH  32  33
ATOM     33  C   UNL     1       7.998  17.415  19.017  0.00  0.00    +0.000 C 
BRANCH  33  34
ATOM     34  N   UNL     1       7.251  18.419  19.771  0.00  0.00    +0.000 NA
ATOM     35  H   UNL     1       7.791  19.280  19.808  0.00  0.00    +0.000 HD
ATOM     36  H   UNL     1       7.154  18.107  20.738  0.00  0.00    +0.000 HD
ENDBRANCH  33  34
ENDBRANCH  32  33
ENDBRANCH  31  32
ENDBRANCH  10  31
TORSDOF 7
ENDMDL
MODEL 8
REMARK VINA RESULT:      -6.4      6.277      9.441
REMARK  Name = 
REMARK  11 active torsions:
REMARK  status: ('A' for Active; 'I' for Inactive)
REMARK    1  A    between atoms: C_1  and  C_2
REMARK    2  A    between atoms: C_5  and  C_6
REMARK    3  A    between atoms: C_7  and  C_8
REMARK    4  A    between atoms: C_17  and  O_18
REMARK    5  A    between atoms: O_18  and  C_19
REMARK    6  A    between atoms: C_19  and  C_20
REMARK    7  A    between atoms: C_20  and  N_21
REMARK    8  A    between atoms: N_22  and  C_23
REMARK    9  A    between atoms: C_23  and  C_24
REMARK   10  A    between atoms: C_23  and  C_25
REMARK   11  A    between atoms: N_33  and  C_34
REMARK                            x       y       z     vdW  Elec       q    Type
REMARK                         _______ _______ _______ _____ _____    ______ ____
ROOT
ATOM      1  C   UNL     1      -5.319  14.234  21.446  0.00  0.00    +0.000 A 
ATOM      2  C   UNL     1      -5.811  13.381  20.432  0.00  0.00    +0.000 A 
ATOM      3  C   UNL     1      -5.019  12.618  19.594  0.00  0.00    +0.000 A 
ATOM      4  N   UNL     1      -5.661  11.924  18.637  0.00  0.00    +0.000 NA
ATOM      5  C   UNL     1      -4.936  11.164  17.794  0.00  0.00    +0.000 A 
ATOM      6  C   UNL     1      -3.577  11.067  17.923  0.00  0.00    +0.000 A 
ATOM      7  C   UNL     1      -2.887  11.772  18.905  0.00  0.00    +0.000 A 
ATOM      8  C   UNL     1      -3.618  12.614  19.775  0.00  0.00    +0.000 A 
ATOM      9  C   UNL     1      -3.118  13.453  20.793  0.00  0.00    +0.000 A 
ATOM     10  C   UNL     1      -3.927  14.237  21.649  0.00  0.00    +0.000 A 
ATOM     11  N   UNL     1      -1.511  11.397  18.772  0.00  0.00    +0.000 N 
ATOM     12  C   UNL     1      -1.402  10.441  17.727  0.00  0.00    +0.000 A 
ATOM     13  O   UNL     1      -0.402   9.840  17.376  0.00  0.00    +0.000 OA
ATOM     14  N   UNL     1      -2.683  10.285  17.191  0.00  0.00    +0.000 N 
ATOM     15  C   UNL     1      -3.051   9.402  16.118  0.00  0.00    +0.000 C 
ENDROOT
BRANCH   1  22
ATOM     16  C   UNL     1      -5.975  17.564  21.474  0.00  0.00    +0.000 C 
ATOM     17  C   UNL     1      -6.595  16.444  22.209  0.00  0.00    +0.000 A 
ATOM     18  N   UNL     1      -7.559  16.740  23.090  0.00  0.00    +0.000 NA
ATOM     19  O   UNL     1      -7.916  15.553  23.672  0.00  0.00    +0.000 OA
ATOM     20  C   UNL     1      -7.185  14.541  23.141  0.00  0.00    +0.000 A 
ATOM     21  C   UNL     1      -7.489  13.218  23.738  0.00  0.00    +0.000 C 
ATOM     22  C   UNL     1      -6.311  15.042  22.178  0.00  0.00    +0.000 A 
ENDBRANCH   1  22
BRANCH  11  23
ATOM     23  C   UNL     1      -0.372  11.739  19.614  0.00  0.00    +0.000 C 
ATOM     24  C   UNL     1      -0.254  13.248  19.885  0.00  0.00    +0.000 C 
BRANCH  23  25
ATOM     25  C   UNL     1      -0.261  10.911  20.898  0.00  0.00    +0.000 A 
ATOM     26  C   UNL     1       0.260   9.615  20.897  0.00  0.00    +0.000 A 
ATOM     27  C   UNL     1       0.157   8.832  22.045  0.00  0.00    +0.000 A 
ATOM     28  C   UNL     1      -0.431   9.368  23.181  0.00  0.00    +0.000 A 
ATOM     29  C   UNL     1      -0.875  10.678  23.126  0.00  0.00    +0.000 A 
ATOM     30  N   UNL     1      -0.813  11.453  22.018  0.00  0.00    +0.000 NA
ENDBRANCH  23  25
ENDBRANCH  11  23
BRANCH  10  31
ATOM     31  O   UNL     1      -3.358  15.002  22.654  0.00  0.00    +0.000 OA
BRANCH  31  32
ATOM     32  C   UNL     1      -2.652  14.260  23.674  0.00  0.00    +0.000 C 
BRANCH  32  33
ATOM     33  C   UNL     1      -3.443  14.095  24.977  0.00  0.00    +0.000 C 
BRANCH  33  34
ATOM     34  N   UNL     1      -4.190  12.840  25.035  0.00  0.00    +0.000 NA
ATOM     35  H   UNL     1      -5.150  13.034  25.308  0.00  0.00    +0.000 HD
ATOM     36  H   UNL     1      -3.800  12.254  25.775  0.00  0.00    +0.000 HD
ENDBRANCH  33  34
ENDBRANCH  32  33
ENDBRANCH  31  32
ENDBRANCH  10  31
TORSDOF 7
ENDMDL
MODEL 9
REMARK VINA RESULT:      -6.3      5.863     11.562
REMARK  Name = 
REMARK  11 active torsions:
REMARK  status: ('A' for Active; 'I' for Inactive)
REMARK    1  A    between atoms: C_1  and  C_2
REMARK    2  A    between atoms: C_5  and  C_6
REMARK    3  A    between atoms: C_7  and  C_8
REMARK    4  A    between atoms: C_17  and  O_18
REMARK    5  A    between atoms: O_18  and  C_19
REMARK    6  A    between atoms: C_19  and  C_20
REMARK    7  A    between atoms: C_20  and  N_21
REMARK    8  A    between atoms: N_22  and  C_23
REMARK    9  A    between atoms: C_23  and  C_24
REMARK   10  A    between atoms: C_23  and  C_25
REMARK   11  A    between atoms: N_33  and  C_34
REMARK                            x       y       z     vdW  Elec       q    Type
REMARK                         _______ _______ _______ _____ _____    ______ ____
ROOT
ATOM      1  C   UNL     1      -1.724  11.558  20.589  0.00  0.00    +0.000 A 
ATOM      2  C   UNL     1      -1.759  12.355  21.756  0.00  0.00    +0.000 A 
ATOM      3  C   UNL     1      -2.773  13.242  22.071  0.00  0.00    +0.000 A 
ATOM      4  N   UNL     1      -2.599  13.972  23.186  0.00  0.00    +0.000 NA
ATOM      5  C   UNL     1      -3.557  14.851  23.539  0.00  0.00    +0.000 A 
ATOM      6  C   UNL     1      -4.703  14.980  22.802  0.00  0.00    +0.000 A 
ATOM      7  C   UNL     1      -4.910  14.235  21.645  0.00  0.00    +0.000 A 
ATOM      8  C   UNL     1      -3.900  13.338  21.225  0.00  0.00    +0.000 A 
ATOM      9  C   UNL     1      -3.880  12.536  20.064  0.00  0.00    +0.000 A 
ATOM     10  C   UNL     1      -2.842  11.631  19.738  0.00  0.00    +0.000 A 
ATOM     11  N   UNL     1      -6.214  14.591  21.170  0.00  0.00    +0.000 N 
ATOM     12  C   UNL     1      -6.785  15.525  22.076  0.00  0.00    +0.000 A 
ATOM     13  O   UNL     1      -7.909  15.995  22.042  0.00  0.00    +0.000 OA
ATOM     14  N   UNL     1      -5.817  15.781  23.051  0.00  0.00    +0.000 N 
ATOM     15  C   UNL     1      -5.964  16.656  24.181  0.00  0.00    +0.000 C 
ENDROOT
BRANCH   1  22
ATOM     16  C   UNL     1      -0.571   8.751  22.109  0.00  0.00    +0.000 C 
ATOM     17  C   UNL     1      -0.010   9.563  21.011  0.00  0.00    +0.000 A 
ATOM     18  N   UNL     1       1.183   9.203  20.523  0.00  0.00    +0.000 NA
ATOM     19  O   UNL     1       1.501  10.140  19.576  0.00  0.00    +0.000 OA
ATOM     20  C   UNL     1       0.504  11.055  19.479  0.00  0.00    +0.000 A 
ATOM     21  C   UNL     1       0.781  12.126  18.493  0.00  0.00    +0.000 C 
ATOM     22  C   UNL     1      -0.516  10.741  20.376  0.00  0.00    +0.000 A 
ENDBRANCH   1  22
BRANCH  11  23
ATOM     23  C   UNL     1      -6.984  14.031  20.067  0.00  0.00    +0.000 C 
ATOM     24  C   UNL     1      -6.389  14.360  18.688  0.00  0.00    +0.000 C 
BRANCH  23  25
ATOM     25  C   UNL     1      -7.312  12.542  20.215  0.00  0.00    +0.000 A 
ATOM     26  C   UNL     1      -7.823  12.013  21.402  0.00  0.00    +0.000 A 
ATOM     27  C   UNL     1      -7.917  10.631  21.555  0.00  0.00    +0.000 A 
ATOM     28  C   UNL     1      -7.532   9.805  20.509  0.00  0.00    +0.000 A 
ATOM     29  C   UNL     1      -7.087  10.400  19.342  0.00  0.00    +0.000 A 
ATOM     30  N   UNL     1      -6.960  11.738  19.173  0.00  0.00    +0.000 NA
ENDBRANCH  23  25
ENDBRANCH  11  23
BRANCH  10  31
ATOM     31  O   UNL     1      -2.919  10.848  18.599  0.00  0.00    +0.000 OA
BRANCH  31  32
ATOM     32  C   UNL     1      -2.997  11.574  17.351  0.00  0.00    +0.000 C 
BRANCH  32  33
ATOM     33  C   UNL     1      -4.110  11.082  16.418  0.00  0.00    +0.000 C 
BRANCH  33  34
ATOM     34  N   UNL     1      -5.353  11.835  16.566  0.00  0.00    +0.000 NA
ATOM     35  H   UNL     1      -6.143  11.208  16.432  0.00  0.00    +0.000 HD
ATOM     36  H   UNL     1      -5.414  12.528  15.819  0.00  0.00    +0.000 HD
ENDBRANCH  33  34
ENDBRANCH  32  33
ENDBRANCH  31  32
ENDBRANCH  10  31
TORSDOF 7
ENDMDL
