MODEL 1
REMARK VINA RESULT:      -7.7      0.000      0.000
REMARK  Name = 
REMARK  5 active torsions:
REMARK  status: ('A' for Active; 'I' for Inactive)
REMARK    1  A    between atoms: C_1  and  N_2
REMARK    2  A    between atoms: C_6  and  C_7
REMARK    3  A    between atoms: C_7  and  N_8
REMARK    4  A    between atoms: N_15  and  C_16
REMARK    5  A    between atoms: C_16  and  C_17
REMARK                            x       y       z     vdW  Elec       q    Type
REMARK                         _______ _______ _______ _____ _____    ______ ____
ROOT
ATOM      1  N   UNL     1       5.778   4.134  16.864  0.00  0.00    +0.000 NA
ATOM      2  C   UNL     1       4.807   4.967  16.190  0.00  0.00    +0.000 C 
ATOM      3  C   UNL     1       3.568   5.009  17.067  0.00  0.00    +0.000 C 
ATOM      4  C   UNL     1       3.783   4.010  18.220  0.00  0.00    +0.000 C 
ATOM      5  C   UNL     1       2.817   2.812  18.119  0.00  0.00    +0.000 C 
ATOM      6  C   UNL     1       1.363   3.232  18.337  0.00  0.00    +0.000 C 
ATOM      7  C   UNL     1       1.216   4.027  19.624  0.00  0.00    +0.000 C 
ATOM      8  N   UNL     1       2.204   5.092  19.746  0.00  0.00    +0.000 N 
ATOM      9  C   UNL     1       3.539   4.753  19.543  0.00  0.00    +0.000 C 
ATOM     10  O   UNL     1       4.440   5.125  20.288  0.00  0.00    +0.000 OA
ATOM     11  C   UNL     1       5.254   3.583  18.102  0.00  0.00    +0.000 C 
ENDROOT
BRANCH   1  12
ATOM     12  C   UNL     1       7.166   4.599  16.859  0.00  0.00    +0.000 C 
BRANCH  12  18
ATOM     13  C   UNL     1       7.977   5.413  19.797  0.00  0.00    +0.000 C 
ATOM     14  N   UNL     1       7.858   6.297  18.661  0.00  0.00    +0.000 N 
ATOM     15  C   UNL     1       8.209   7.623  18.689  0.00  0.00    +0.000 A 
ATOM     16  C   UNL     1       7.950   8.088  17.425  0.00  0.00    +0.000 A 
ATOM     17  N   UNL     1       7.483   7.078  16.631  0.00  0.00    +0.000 NA
ATOM     18  C   UNL     1       7.452   5.987  17.384  0.00  0.00    +0.000 A 
ENDBRANCH  12  18
ENDBRANCH   1  12
BRANCH   8  19
ATOM     19  C   UNL     1       1.897   6.218  20.623  0.00  0.00    +0.000 C 
BRANCH  19  20
ATOM     20  C   UNL     1       1.792   7.499  19.831  0.00  0.00    +0.000 A 
ATOM     21  C   UNL     1       2.267   7.574  18.513  0.00  0.00    +0.000 A 
ATOM     22  C   UNL     1       2.118   8.748  17.767  0.00  0.00    +0.000 A 
ATOM     23  C   UNL     1       1.478   9.856  18.322  0.00  0.00    +0.000 A 
ATOM     24  C   UNL     1       1.001   9.792  19.630  0.00  0.00    +0.000 A 
ATOM     25  C   UNL     1       1.171   8.626  20.374  0.00  0.00    +0.000 A 
ATOM     26  F   UNL     1       0.712   8.597  21.632  0.00  0.00    +0.000 F 
ENDBRANCH  19  20
ENDBRANCH   8  19
TORSDOF 4
ENDMDL
MODEL 2
REMARK VINA RESULT:      -7.4      0.960      1.432
REMARK  Name = 
REMARK  5 active torsions:
REMARK  status: ('A' for Active; 'I' for Inactive)
REMARK    1  A    between atoms: C_1  and  N_2
REMARK    2  A    between atoms: C_6  and  C_7
REMARK    3  A    between atoms: C_7  and  N_8
REMARK    4  A    between atoms: N_15  and  C_16
REMARK    5  A    between atoms: C_16  and  C_17
REMARK                            x       y       z     vdW  Elec       q    Type
REMARK                         _______ _______ _______ _____ _____    ______ ____
ROOT
ATOM      1  N   UNL     1       4.804   3.498  16.855  0.00  0.00    +0.000 NA
ATOM      2  C   UNL     1       3.696   4.224  16.276  0.00  0.00    +0.000 C 
ATOM      3  C   UNL     1       2.709   4.502  17.394  0.00  0.00    +0.000 C 
ATOM      4  C   UNL     1       3.201   3.748  18.645  0.00  0.00    +0.000 C 
ATOM      5  C   UNL     1       2.242   2.602  19.029  0.00  0.00    +0.000 C 
ATOM      6  C   UNL     1       0.885   3.129  19.497  0.00  0.00    +0.000 C 
ATOM      7  C   UNL     1       1.055   4.173  20.587  0.00  0.00    +0.000 C 
ATOM      8  N   UNL     1       2.041   5.192  20.245  0.00  0.00    +0.000 N 
ATOM      9  C   UNL     1       3.286   4.754  19.803  0.00  0.00    +0.000 C 
ATOM     10  O   UNL     1       4.341   5.224  20.217  0.00  0.00    +0.000 OA
ATOM     11  C   UNL     1       4.600   3.234  18.269  0.00  0.00    +0.000 C 
ENDROOT
BRANCH   1  12
ATOM     12  C   UNL     1       6.147   3.884  16.421  0.00  0.00    +0.000 C 
BRANCH  12  18
ATOM     13  C   UNL     1       5.800   6.999  16.777  0.00  0.00    +0.000 C 
ATOM     14  N   UNL     1       6.728   6.151  17.486  0.00  0.00    +0.000 N 
ATOM     15  C   UNL     1       7.518   6.585  18.521  0.00  0.00    +0.000 A 
ATOM     16  C   UNL     1       8.234   5.482  18.911  0.00  0.00    +0.000 A 
ATOM     17  N   UNL     1       7.880   4.394  18.164  0.00  0.00    +0.000 NA
ATOM     18  C   UNL     1       6.946   4.804  17.316  0.00  0.00    +0.000 A 
ENDBRANCH  12  18
ENDBRANCH   1  12
BRANCH   8  19
ATOM     19  C   UNL     1       1.954   6.486  20.916  0.00  0.00    +0.000 C 
BRANCH  19  20
ATOM     20  C   UNL     1       1.826   7.603  19.908  0.00  0.00    +0.000 A 
ATOM     21  C   UNL     1       2.433   7.510  18.646  0.00  0.00    +0.000 A 
ATOM     22  C   UNL     1       2.265   8.525  17.698  0.00  0.00    +0.000 A 
ATOM     23  C   UNL     1       1.476   9.636  17.993  0.00  0.00    +0.000 A 
ATOM     24  C   UNL     1       0.868   9.739  19.243  0.00  0.00    +0.000 A 
ATOM     25  C   UNL     1       1.056   8.733  20.189  0.00  0.00    +0.000 A 
ATOM     26  F   UNL     1       0.468   8.862  21.386  0.00  0.00    +0.000 F 
ENDBRANCH  19  20
ENDBRANCH   8  19
TORSDOF 4
ENDMDL
MODEL 3
REMARK VINA RESULT:      -7.0      3.343      7.208
REMARK  Name = 
REMARK  5 active torsions:
REMARK  status: ('A' for Active; 'I' for Inactive)
REMARK    1  A    between atoms: C_1  and  N_2
REMARK    2  A    between atoms: C_6  and  C_7
REMARK    3  A    between atoms: C_7  and  N_8
REMARK    4  A    between atoms: N_15  and  C_16
REMARK    5  A    between atoms: C_16  and  C_17
REMARK                            x       y       z     vdW  Elec       q    Type
REMARK                         _______ _______ _______ _____ _____    ______ ____
ROOT
ATOM      1  N   UNL     1       3.205   6.278  19.588  0.00  0.00    +0.000 NA
ATOM      2  C   UNL     1       3.271   7.103  18.402  0.00  0.00    +0.000 C 
ATOM      3  C   UNL     1       4.396   6.561  17.540  0.00  0.00    +0.000 C 
ATOM      4  C   UNL     1       5.121   5.472  18.356  0.00  0.00    +0.000 C 
ATOM      5  C   UNL     1       6.554   5.904  18.728  0.00  0.00    +0.000 C 
ATOM      6  C   UNL     1       7.452   6.020  17.496  0.00  0.00    +0.000 C 
ATOM      7  C   UNL     1       7.395   4.752  16.662  0.00  0.00    +0.000 C 
ATOM      8  N   UNL     1       6.031   4.304  16.407  0.00  0.00    +0.000 N 
ATOM      9  C   UNL     1       5.178   4.197  17.501  0.00  0.00    +0.000 C 
ATOM     10  O   UNL     1       4.452   3.225  17.684  0.00  0.00    +0.000 OA
ATOM     11  C   UNL     1       4.238   5.256  19.595  0.00  0.00    +0.000 C 
ENDROOT
BRANCH   1  12
ATOM     12  C   UNL     1       1.872   5.902  20.060  0.00  0.00    +0.000 C 
BRANCH  12  18
ATOM     13  C   UNL     1       1.117   3.650  17.984  0.00  0.00    +0.000 C 
ATOM     14  N   UNL     1       1.331   3.476  19.402  0.00  0.00    +0.000 N 
ATOM     15  C   UNL     1       1.350   2.254  20.025  0.00  0.00    +0.000 A 
ATOM     16  C   UNL     1       1.585   2.531  21.347  0.00  0.00    +0.000 A 
ATOM     17  N   UNL     1       1.736   3.876  21.535  0.00  0.00    +0.000 NA
ATOM     18  C   UNL     1       1.603   4.442  20.342  0.00  0.00    +0.000 A 
ENDBRANCH  12  18
ENDBRANCH   1  12
BRANCH   8  19
ATOM     19  C   UNL     1       5.794   3.445  15.250  0.00  0.00    +0.000 C 
BRANCH  19  20
ATOM     20  C   UNL     1       6.426   4.031  14.010  0.00  0.00    +0.000 A 
ATOM     21  C   UNL     1       7.319   5.110  14.096  0.00  0.00    +0.000 A 
ATOM     22  C   UNL     1       7.941   5.613  12.949  0.00  0.00    +0.000 A 
ATOM     23  C   UNL     1       7.692   5.035  11.704  0.00  0.00    +0.000 A 
ATOM     24  C   UNL     1       6.806   3.963  11.607  0.00  0.00    +0.000 A 
ATOM     25  C   UNL     1       6.175   3.480  12.752  0.00  0.00    +0.000 A 
ATOM     26  F   UNL     1       5.321   2.455  12.628  0.00  0.00    +0.000 F 
ENDBRANCH  19  20
ENDBRANCH   8  19
TORSDOF 4
ENDMDL
MODEL 4
REMARK VINA RESULT:      -6.9      2.449      3.874
REMARK  Name = 
REMARK  5 active torsions:
REMARK  status: ('A' for Active; 'I' for Inactive)
REMARK    1  A    between atoms: C_1  and  N_2
REMARK    2  A    between atoms: C_6  and  C_7
REMARK    3  A    between atoms: C_7  and  N_8
REMARK    4  A    between atoms: N_15  and  C_16
REMARK    5  A    between atoms: C_16  and  C_17
REMARK                            x       y       z     vdW  Elec       q    Type
REMARK                         _______ _______ _______ _____ _____    ______ ____
ROOT
ATOM      1  N   UNL     1       8.280   7.877  18.199  0.00  0.00    +0.000 NA
ATOM      2  C   UNL     1       7.262   8.418  17.326  0.00  0.00    +0.000 C 
ATOM      3  C   UNL     1       6.268   7.304  17.054  0.00  0.00    +0.000 C 
ATOM      4  C   UNL     1       6.839   6.012  17.668  0.00  0.00    +0.000 C 
ATOM      5  C   UNL     1       7.221   4.987  16.580  0.00  0.00    +0.000 C 
ATOM      6  C   UNL     1       5.992   4.462  15.838  0.00  0.00    +0.000 C 
ATOM      7  C   UNL     1       4.945   3.953  16.814  0.00  0.00    +0.000 C 
ATOM      8  N   UNL     1       4.672   4.896  17.892  0.00  0.00    +0.000 N 
ATOM      9  C   UNL     1       5.765   5.407  18.586  0.00  0.00    +0.000 C 
ATOM     10  O   UNL     1       5.801   5.478  19.811  0.00  0.00    +0.000 OA
ATOM     11  C   UNL     1       8.056   6.471  18.487  0.00  0.00    +0.000 C 
ENDROOT
BRANCH   1  12
ATOM     12  C   UNL     1       8.734   8.733  19.295  0.00  0.00    +0.000 C 
BRANCH  12  18
ATOM     13  C   UNL     1       9.076  11.153  21.290  0.00  0.00    +0.000 C 
ATOM     14  N   UNL     1       9.351  11.162  19.872  0.00  0.00    +0.000 N 
ATOM     15  C   UNL     1       9.925  12.220  19.214  0.00  0.00    +0.000 A 
ATOM     16  C   UNL     1      10.014  11.821  17.905  0.00  0.00    +0.000 A 
ATOM     17  N   UNL     1       9.539  10.548  17.760  0.00  0.00    +0.000 NA
ATOM     18  C   UNL     1       9.159  10.146  18.965  0.00  0.00    +0.000 A 
ENDBRANCH  12  18
ENDBRANCH   1  12
BRANCH   8  19
ATOM     19  C   UNL     1       3.390   4.797  18.585  0.00  0.00    +0.000 C 
BRANCH  19  20
ATOM     20  C   UNL     1       2.817   6.170  18.845  0.00  0.00    +0.000 A 
ATOM     21  C   UNL     1       2.809   7.151  17.842  0.00  0.00    +0.000 A 
ATOM     22  C   UNL     1       2.228   8.402  18.074  0.00  0.00    +0.000 A 
ATOM     23  C   UNL     1       1.632   8.683  19.303  0.00  0.00    +0.000 A 
ATOM     24  C   UNL     1       1.634   7.715  20.306  0.00  0.00    +0.000 A 
ATOM     25  C   UNL     1       2.233   6.478  20.075  0.00  0.00    +0.000 A 
ATOM     26  F   UNL     1       2.228   5.570  21.061  0.00  0.00    +0.000 F 
ENDBRANCH  19  20
ENDBRANCH   8  19
TORSDOF 4
ENDMDL
MODEL 5
REMARK VINA RESULT:      -6.9      3.292      5.436
REMARK  Name = 
REMARK  5 active torsions:
REMARK  status: ('A' for Active; 'I' for Inactive)
REMARK    1  A    between atoms: C_1  and  N_2
REMARK    2  A    between atoms: C_6  and  C_7
REMARK    3  A    between atoms: C_7  and  N_8
REMARK    4  A    between atoms: N_15  and  C_16
REMARK    5  A    between atoms: C_16  and  C_17
REMARK                            x       y       z     vdW  Elec       q    Type
REMARK                         _______ _______ _______ _____ _____    ______ ____
ROOT
ATOM      1  N   UNL     1       6.877   4.384  14.419  0.00  0.00    +0.000 NA
ATOM      2  C   UNL     1       6.213   3.288  15.090  0.00  0.00    +0.000 C 
ATOM      3  C   UNL     1       5.664   3.830  16.397  0.00  0.00    +0.000 C 
ATOM      4  C   UNL     1       6.189   5.269  16.560  0.00  0.00    +0.000 C 
ATOM      5  C   UNL     1       7.179   5.382  17.737  0.00  0.00    +0.000 C 
ATOM      6  C   UNL     1       6.491   5.148  19.082  0.00  0.00    +0.000 C 
ATOM      7  C   UNL     1       5.267   6.035  19.228  0.00  0.00    +0.000 C 
ATOM      8  N   UNL     1       4.395   5.991  18.060  0.00  0.00    +0.000 N 
ATOM      9  C   UNL     1       4.984   6.188  16.815  0.00  0.00    +0.000 C 
ATOM     10  O   UNL     1       4.506   6.932  15.963  0.00  0.00    +0.000 OA
ATOM     11  C   UNL     1       6.848   5.601  15.212  0.00  0.00    +0.000 C 
ENDROOT
BRANCH   1  12
ATOM     12  C   UNL     1       6.663   4.504  12.977  0.00  0.00    +0.000 C 
BRANCH  12  18
ATOM     13  C   UNL     1       4.004   3.304  11.778  0.00  0.00    +0.000 C 
ATOM     14  N   UNL     1       5.336   2.771  11.618  0.00  0.00    +0.000 N 
ATOM     15  C   UNL     1       5.639   1.711  10.802  0.00  0.00    +0.000 A 
ATOM     16  C   UNL     1       6.993   1.534  10.934  0.00  0.00    +0.000 A 
ATOM     17  N   UNL     1       7.517   2.471  11.779  0.00  0.00    +0.000 NA
ATOM     18  C   UNL     1       6.506   3.234  12.173  0.00  0.00    +0.000 A 
ENDBRANCH  12  18
ENDBRANCH   1  12
BRANCH   8  19
ATOM     19  C   UNL     1       2.992   6.358  18.235  0.00  0.00    +0.000 C 
BRANCH  19  20
ATOM     20  C   UNL     1       2.188   5.177  18.723  0.00  0.00    +0.000 A 
ATOM     21  C   UNL     1       1.929   4.083  17.884  0.00  0.00    +0.000 A 
ATOM     22  C   UNL     1       1.230   2.969  18.360  0.00  0.00    +0.000 A 
ATOM     23  C   UNL     1       0.794   2.928  19.684  0.00  0.00    +0.000 A 
ATOM     24  C   UNL     1       1.046   4.009  20.527  0.00  0.00    +0.000 A 
ATOM     25  C   UNL     1       1.726   5.124  20.040  0.00  0.00    +0.000 A 
ATOM     26  F   UNL     1       1.946   6.153  20.869  0.00  0.00    +0.000 F 
ENDBRANCH  19  20
ENDBRANCH   8  19
TORSDOF 4
ENDMDL
MODEL 6
REMARK VINA RESULT:      -6.9      2.044      3.364
REMARK  Name = 
REMARK  5 active torsions:
REMARK  status: ('A' for Active; 'I' for Inactive)
REMARK    1  A    between atoms: C_1  and  N_2
REMARK    2  A    between atoms: C_6  and  C_7
REMARK    3  A    between atoms: C_7  and  N_8
REMARK    4  A    between atoms: N_15  and  C_16
REMARK    5  A    between atoms: C_16  and  C_17
REMARK                            x       y       z     vdW  Elec       q    Type
REMARK                         _______ _______ _______ _____ _____    ______ ____
ROOT
ATOM      1  N   UNL     1       3.754   3.648  18.083  0.00  0.00    +0.000 NA
ATOM      2  C   UNL     1       2.369   3.725  17.672  0.00  0.00    +0.000 C 
ATOM      3  C   UNL     1       1.842   5.074  18.125  0.00  0.00    +0.000 C 
ATOM      4  C   UNL     1       2.936   5.733  18.989  0.00  0.00    +0.000 C 
ATOM      5  C   UNL     1       2.498   5.851  20.463  0.00  0.00    +0.000 C 
ATOM      6  C   UNL     1       1.335   6.827  20.636  0.00  0.00    +0.000 C 
ATOM      7  C   UNL     1       1.648   8.164  19.984  0.00  0.00    +0.000 C 
ATOM      8  N   UNL     1       2.155   8.024  18.624  0.00  0.00    +0.000 N 
ATOM      9  C   UNL     1       3.207   7.135  18.423  0.00  0.00    +0.000 C 
ATOM     10  O   UNL     1       4.194   7.415  17.749  0.00  0.00    +0.000 OA
ATOM     11  C   UNL     1       4.168   4.831  18.817  0.00  0.00    +0.000 C 
ENDROOT
BRANCH   1  12
ATOM     12  C   UNL     1       4.698   3.077  17.122  0.00  0.00    +0.000 C 
BRANCH  12  18
ATOM     13  C   UNL     1       7.483   4.450  17.679  0.00  0.00    +0.000 C 
ATOM     14  N   UNL     1       6.696   4.561  16.474  0.00  0.00    +0.000 N 
ATOM     15  C   UNL     1       7.127   5.200  15.339  0.00  0.00    +0.000 A 
ATOM     16  C   UNL     1       6.096   5.072  14.443  0.00  0.00    +0.000 A 
ATOM     17  N   UNL     1       5.073   4.352  14.992  0.00  0.00    +0.000 NA
ATOM     18  C   UNL     1       5.455   4.025  16.220  0.00  0.00    +0.000 A 
ENDBRANCH  12  18
ENDBRANCH   1  12
BRANCH   8  19
ATOM     19  C   UNL     1       2.020   9.162  17.719  0.00  0.00    +0.000 C 
BRANCH  19  20
ATOM     20  C   UNL     1       0.777   9.956  18.041  0.00  0.00    +0.000 A 
ATOM     21  C   UNL     1      -0.494   9.489  17.674  0.00  0.00    +0.000 A 
ATOM     22  C   UNL     1      -1.645  10.203  18.022  0.00  0.00    +0.000 A 
ATOM     23  C   UNL     1      -1.542  11.384  18.757  0.00  0.00    +0.000 A 
ATOM     24  C   UNL     1      -0.285  11.858  19.128  0.00  0.00    +0.000 A 
ATOM     25  C   UNL     1       0.859  11.151  18.760  0.00  0.00    +0.000 A 
ATOM     26  F   UNL     1       2.055  11.635  19.121  0.00  0.00    +0.000 F 
ENDBRANCH  19  20
ENDBRANCH   8  19
TORSDOF 4
ENDMDL
MODEL 7
REMARK VINA RESULT:      -6.8      3.185      5.338
REMARK  Name = 
REMARK  5 active torsions:
REMARK  status: ('A' for Active; 'I' for Inactive)
REMARK    1  A    between atoms: C_1  and  N_2
REMARK    2  A    between atoms: C_6  and  C_7
REMARK    3  A    between atoms: C_7  and  N_8
REMARK    4  A    between atoms: N_15  and  C_16
REMARK    5  A    between atoms: C_16  and  C_17
REMARK                            x       y       z     vdW  Elec       q    Type
REMARK                         _______ _______ _______ _____ _____    ______ ____
ROOT
ATOM      1  N   UNL     1       7.042   4.402  14.414  0.00  0.00    +0.000 NA
ATOM      2  C   UNL     1       6.300   3.290  14.965  0.00  0.00    +0.000 C 
ATOM      3  C   UNL     1       5.704   3.756  16.280  0.00  0.00    +0.000 C 
ATOM      4  C   UNL     1       6.276   5.156  16.578  0.00  0.00    +0.000 C 
ATOM      5  C   UNL     1       7.206   5.138  17.809  0.00  0.00    +0.000 C 
ATOM      6  C   UNL     1       6.439   4.834  19.096  0.00  0.00    +0.000 C 
ATOM      7  C   UNL     1       5.245   5.761  19.248  0.00  0.00    +0.000 C 
ATOM      8  N   UNL     1       4.435   5.841  18.038  0.00  0.00    +0.000 N 
ATOM      9  C   UNL     1       5.097   6.104  16.842  0.00  0.00    +0.000 C 
ATOM     10  O   UNL     1       4.694   6.929  16.027  0.00  0.00    +0.000 OA
ATOM     11  C   UNL     1       7.019   5.558  15.294  0.00  0.00    +0.000 C 
ENDROOT
BRANCH   1  12
ATOM     12  C   UNL     1       6.909   4.638  12.976  0.00  0.00    +0.000 C 
BRANCH  12  18
ATOM     13  C   UNL     1       7.659   2.033  11.363  0.00  0.00    +0.000 C 
ATOM     14  N   UNL     1       6.335   2.581  11.545  0.00  0.00    +0.000 N 
ATOM     15  C   UNL     1       5.189   1.954  11.128  0.00  0.00    +0.000 A 
ATOM     16  C   UNL     1       4.169   2.795  11.494  0.00  0.00    +0.000 A 
ATOM     17  N   UNL     1       4.663   3.891  12.143  0.00  0.00    +0.000 NA
ATOM     18  C   UNL     1       5.980   3.742  12.191  0.00  0.00    +0.000 A 
ENDBRANCH  12  18
ENDBRANCH   1  12
BRANCH   8  19
ATOM     19  C   UNL     1       3.041   6.255  18.170  0.00  0.00    +0.000 C 
BRANCH  19  20
ATOM     20  C   UNL     1       2.193   5.118  18.689  0.00  0.00    +0.000 A 
ATOM     21  C   UNL     1       1.929   3.992  17.895  0.00  0.00    +0.000 A 
ATOM     22  C   UNL     1       1.188   2.920  18.402  0.00  0.00    +0.000 A 
ATOM     23  C   UNL     1       0.717   2.951  19.714  0.00  0.00    +0.000 A 
ATOM     24  C   UNL     1       0.974   4.063  20.513  0.00  0.00    +0.000 A 
ATOM     25  C   UNL     1       1.696   5.137  19.994  0.00  0.00    +0.000 A 
ATOM     26  F   UNL     1       1.920   6.198  20.781  0.00  0.00    +0.000 F 
ENDBRANCH  19  20
ENDBRANCH   8  19
TORSDOF 4
ENDMDL
MODEL 8
REMARK VINA RESULT:      -6.7      3.503      5.648
REMARK  Name = 
REMARK  5 active torsions:
REMARK  status: ('A' for Active; 'I' for Inactive)
REMARK    1  A    between atoms: C_1  and  N_2
REMARK    2  A    between atoms: C_6  and  C_7
REMARK    3  A    between atoms: C_7  and  N_8
REMARK    4  A    between atoms: N_15  and  C_16
REMARK    5  A    between atoms: C_16  and  C_17
REMARK                            x       y       z     vdW  Elec       q    Type
REMARK                         _______ _______ _______ _____ _____    ______ ____
ROOT
ATOM      1  N   UNL     1       6.831   4.367  14.437  0.00  0.00    +0.000 NA
ATOM      2  C   UNL     1       6.199   3.259  15.119  0.00  0.00    +0.000 C 
ATOM      3  C   UNL     1       5.681   3.786  16.444  0.00  0.00    +0.000 C 
ATOM      4  C   UNL     1       6.195   5.230  16.602  0.00  0.00    +0.000 C 
ATOM      5  C   UNL     1       7.216   5.347  17.752  0.00  0.00    +0.000 C 
ATOM      6  C   UNL     1       6.570   5.096  19.114  0.00  0.00    +0.000 C 
ATOM      7  C   UNL     1       5.341   5.969  19.300  0.00  0.00    +0.000 C 
ATOM      8  N   UNL     1       4.436   5.922  18.158  0.00  0.00    +0.000 N 
ATOM      9  C   UNL     1       4.987   6.133  16.897  0.00  0.00    +0.000 C 
ATOM     10  O   UNL     1       4.477   6.877  16.065  0.00  0.00    +0.000 OA
ATOM     11  C   UNL     1       6.811   5.578  15.238  0.00  0.00    +0.000 C 
ENDROOT
BRANCH   1  12
ATOM     12  C   UNL     1       6.575   4.494  13.002  0.00  0.00    +0.000 C 
BRANCH  12  18
ATOM     13  C   UNL     1       3.979   3.268  11.696  0.00  0.00    +0.000 C 
ATOM     14  N   UNL     1       5.323   2.753  11.583  0.00  0.00    +0.000 N 
ATOM     15  C   UNL     1       5.671   1.703  10.772  0.00  0.00    +0.000 A 
ATOM     16  C   UNL     1       7.021   1.542  10.953  0.00  0.00    +0.000 A 
ATOM     17  N   UNL     1       7.500   2.480  11.824  0.00  0.00    +0.000 NA
ATOM     18  C   UNL     1       6.465   3.227  12.185  0.00  0.00    +0.000 A 
ENDBRANCH  12  18
ENDBRANCH   1  12
BRANCH   8  19
ATOM     19  C   UNL     1       3.035   6.272  18.374  0.00  0.00    +0.000 C 
BRANCH  19  20
ATOM     20  C   UNL     1       2.270   5.095  18.930  0.00  0.00    +0.000 A 
ATOM     21  C   UNL     1       1.853   5.072  20.270  0.00  0.00    +0.000 A 
ATOM     22  C   UNL     1       1.098   4.003  20.764  0.00  0.00    +0.000 A 
ATOM     23  C   UNL     1       0.737   2.951  19.922  0.00  0.00    +0.000 A 
ATOM     24  C   UNL     1       1.145   2.964  18.589  0.00  0.00    +0.000 A 
ATOM     25  C   UNL     1       1.914   4.023  18.110  0.00  0.00    +0.000 A 
ATOM     26  F   UNL     1       2.301   4.004  16.827  0.00  0.00    +0.000 F 
ENDBRANCH  19  20
ENDBRANCH   8  19
TORSDOF 4
ENDMDL
MODEL 9
REMARK VINA RESULT:      -6.7      3.432      5.580
REMARK  Name = 
REMARK  5 active torsions:
REMARK  status: ('A' for Active; 'I' for Inactive)
REMARK    1  A    between atoms: C_1  and  N_2
REMARK    2  A    between atoms: C_6  and  C_7
REMARK    3  A    between atoms: C_7  and  N_8
REMARK    4  A    between atoms: N_15  and  C_16
REMARK    5  A    between atoms: C_16  and  C_17
REMARK                            x       y       z     vdW  Elec       q    Type
REMARK                         _______ _______ _______ _____ _____    ______ ____
ROOT
ATOM      1  N   UNL     1       7.043   4.423  14.364  0.00  0.00    +0.000 NA
ATOM      2  C   UNL     1       6.334   3.294  14.923  0.00  0.00    +0.000 C 
ATOM      3  C   UNL     1       5.755   3.742  16.252  0.00  0.00    +0.000 C 
ATOM      4  C   UNL     1       6.305   5.152  16.546  0.00  0.00    +0.000 C 
ATOM      5  C   UNL     1       7.258   5.146  17.758  0.00  0.00    +0.000 C 
ATOM      6  C   UNL     1       6.523   4.822  19.059  0.00  0.00    +0.000 C 
ATOM      7  C   UNL     1       5.314   5.725  19.238  0.00  0.00    +0.000 C 
ATOM      8  N   UNL     1       4.479   5.795  18.044  0.00  0.00    +0.000 N 
ATOM      9  C   UNL     1       5.113   6.075  16.837  0.00  0.00    +0.000 C 
ATOM     10  O   UNL     1       4.678   6.896  16.034  0.00  0.00    +0.000 OA
ATOM     11  C   UNL     1       7.015   5.574  15.250  0.00  0.00    +0.000 C 
ENDROOT
BRANCH   1  12
ATOM     12  C   UNL     1       6.879   4.663  12.930  0.00  0.00    +0.000 C 
BRANCH  12  18
ATOM     13  C   UNL     1       7.660   2.035  11.369  0.00  0.00    +0.000 C 
ATOM     14  N   UNL     1       6.331   2.575  11.533  0.00  0.00    +0.000 N 
ATOM     15  C   UNL     1       5.191   1.931  11.121  0.00  0.00    +0.000 A 
ATOM     16  C   UNL     1       4.162   2.770  11.466  0.00  0.00    +0.000 A 
ATOM     17  N   UNL     1       4.643   3.882  12.098  0.00  0.00    +0.000 NA
ATOM     18  C   UNL     1       5.962   3.744  12.156  0.00  0.00    +0.000 A 
ENDBRANCH  12  18
ENDBRANCH   1  12
BRANCH   8  19
ATOM     19  C   UNL     1       3.080   6.180  18.204  0.00  0.00    +0.000 C 
BRANCH  19  20
ATOM     20  C   UNL     1       2.280   5.050  18.806  0.00  0.00    +0.000 A 
ATOM     21  C   UNL     1       1.809   5.121  20.127  0.00  0.00    +0.000 A 
ATOM     22  C   UNL     1       1.024   4.094  20.660  0.00  0.00    +0.000 A 
ATOM     23  C   UNL     1       0.684   2.992  19.876  0.00  0.00    +0.000 A 
ATOM     24  C   UNL     1       1.145   2.911  18.563  0.00  0.00    +0.000 A 
ATOM     25  C   UNL     1       1.944   3.929  18.046  0.00  0.00    +0.000 A 
ATOM     26  F   UNL     1       2.382   3.819  16.784  0.00  0.00    +0.000 F 
ENDBRANCH  19  20
ENDBRANCH   8  19
TORSDOF 4
ENDMDL
