MODEL 1
REMARK VINA RESULT:      -7.0      0.000      0.000
REMARK  Name = 
REMARK  5 active torsions:
REMARK  status: ('A' for Active; 'I' for Inactive)
REMARK    1  A    between atoms: C_4  and  C_5
REMARK    2  A    between atoms: C_5  and  N_6
REMARK    3  A    between atoms: N_6  and  C_7
REMARK    4  A    between atoms: C_7  and  C_8
REMARK    5  A    between atoms: C_16  and  O_17
REMARK                            x       y       z     vdW  Elec       q    Type
REMARK                         _______ _______ _______ _____ _____    ______ ____
ROOT
ATOM      1  C   UNL     1       4.744   4.193  16.607  0.00  0.00    +0.000 C 
ENDROOT
BRANCH   1   5
ATOM      2  O   UNL     1       7.604   5.362  20.346  0.00  0.00    +0.000 OA
ATOM      3  C   UNL     1       7.220   5.599  19.206  0.00  0.00    +0.000 A 
ATOM      4  C   UNL     1       6.202   4.738  18.571  0.00  0.00    +0.000 A 
ATOM      5  C   UNL     1       5.799   5.000  17.318  0.00  0.00    +0.000 A 
ATOM      6  O   UNL     1       6.317   6.049  16.568  0.00  0.00    +0.000 OA
ATOM      7  C   UNL     1       7.245   6.879  17.153  0.00  0.00    +0.000 A 
ATOM      8  C   UNL     1       7.728   6.743  18.393  0.00  0.00    +0.000 A 
BRANCH   8   9
ATOM      9  O   UNL     1       8.663   7.599  18.939  0.00  0.00    +0.000 OA
ATOM     10  H   UNL     1       9.521   7.441  18.515  0.00  0.00    +0.000 HD
ENDBRANCH   8   9
ENDBRANCH   1   5
BRANCH   1  11
ATOM     11  N   UNL     1       4.467   2.975  17.361  0.00  0.00    +0.000 NA
ATOM     12  H   UNL     1       4.811   3.088  18.315  0.00  0.00    +0.000 HD
BRANCH  11  13
ATOM     13  C   UNL     1       3.039   2.667  17.418  0.00  0.00    +0.000 C 
BRANCH  13  14
ATOM     14  C   UNL     1       2.514   2.902  18.816  0.00  0.00    +0.000 A 
ATOM     15  C   UNL     1       1.301   3.571  19.031  0.00  0.00    +0.000 A 
ATOM     16  C   UNL     1       0.845   3.806  20.330  0.00  0.00    +0.000 A 
ATOM     17  C   UNL     1       1.593   3.376  21.426  0.00  0.00    +0.000 A 
ATOM     18  C   UNL     1       2.794   2.700  21.225  0.00  0.00    +0.000 A 
ATOM     19  C   UNL     1       3.249   2.460  19.928  0.00  0.00    +0.000 A 
ENDBRANCH  13  14
ENDBRANCH  11  13
ENDBRANCH   1  11
TORSDOF 5
ENDMDL
MODEL 2
REMARK VINA RESULT:      -7.0      0.533      1.282
REMARK  Name = 
REMARK  5 active torsions:
REMARK  status: ('A' for Active; 'I' for Inactive)
REMARK    1  A    between atoms: C_4  and  C_5
REMARK    2  A    between atoms: C_5  and  N_6
REMARK    3  A    between atoms: N_6  and  C_7
REMARK    4  A    between atoms: C_7  and  C_8
REMARK    5  A    between atoms: C_16  and  O_17
REMARK                            x       y       z     vdW  Elec       q    Type
REMARK                         _______ _______ _______ _____ _____    ______ ____
ROOT
ATOM      1  C   UNL     1       5.454   4.033  16.259  0.00  0.00    +0.000 C 
ENDROOT
BRANCH   1   5
ATOM      2  O   UNL     1       7.782   5.455  20.270  0.00  0.00    +0.000 OA
ATOM      3  C   UNL     1       7.472   5.674  19.105  0.00  0.00    +0.000 A 
ATOM      4  C   UNL     1       6.643   4.705  18.360  0.00  0.00    +0.000 A 
ATOM      5  C   UNL     1       6.321   4.952  17.081  0.00  0.00    +0.000 A 
ATOM      6  O   UNL     1       6.757   6.084  16.403  0.00  0.00    +0.000 OA
ATOM      7  C   UNL     1       7.506   7.012  17.088  0.00  0.00    +0.000 A 
ATOM      8  C   UNL     1       7.891   6.902  18.365  0.00  0.00    +0.000 A 
BRANCH   8   9
ATOM      9  O   UNL     1       8.646   7.857  19.013  0.00  0.00    +0.000 OA
ATOM     10  H   UNL     1       9.410   8.085  18.458  0.00  0.00    +0.000 HD
ENDBRANCH   8   9
ENDBRANCH   1   5
BRANCH   1  11
ATOM     11  N   UNL     1       4.584   3.261  17.139  0.00  0.00    +0.000 NA
ATOM     12  H   UNL     1       5.009   3.210  18.065  0.00  0.00    +0.000 HD
BRANCH  11  13
ATOM     13  C   UNL     1       3.256   3.854  17.271  0.00  0.00    +0.000 C 
BRANCH  13  14
ATOM     14  C   UNL     1       2.702   3.583  18.651  0.00  0.00    +0.000 A 
ATOM     15  C   UNL     1       3.495   2.997  19.648  0.00  0.00    +0.000 A 
ATOM     16  C   UNL     1       2.959   2.725  20.909  0.00  0.00    +0.000 A 
ATOM     17  C   UNL     1       1.628   3.035  21.187  0.00  0.00    +0.000 A 
ATOM     18  C   UNL     1       0.833   3.627  20.209  0.00  0.00    +0.000 A 
ATOM     19  C   UNL     1       1.368   3.904  18.952  0.00  0.00    +0.000 A 
ENDBRANCH  13  14
ENDBRANCH  11  13
ENDBRANCH   1  11
TORSDOF 5
ENDMDL
MODEL 3
REMARK VINA RESULT:      -6.6      2.909      6.168
REMARK  Name = 
REMARK  5 active torsions:
REMARK  status: ('A' for Active; 'I' for Inactive)
REMARK    1  A    between atoms: C_4  and  C_5
REMARK    2  A    between atoms: C_5  and  N_6
REMARK    3  A    between atoms: N_6  and  C_7
REMARK    4  A    between atoms: C_7  and  C_8
REMARK    5  A    between atoms: C_16  and  O_17
REMARK                            x       y       z     vdW  Elec       q    Type
REMARK                         _______ _______ _______ _____ _____    ______ ____
ROOT
ATOM      1  C   UNL     1       4.122   4.344  16.895  0.00  0.00    +0.000 C 
ENDROOT
BRANCH   1   5
ATOM      2  O   UNL     1       0.211   2.107  18.693  0.00  0.00    +0.000 OA
ATOM      3  C   UNL     1       1.244   2.735  18.894  0.00  0.00    +0.000 A 
ATOM      4  C   UNL     1       2.087   3.165  17.760  0.00  0.00    +0.000 A 
ATOM      5  C   UNL     1       3.221   3.842  17.994  0.00  0.00    +0.000 A 
ATOM      6  O   UNL     1       3.661   4.145  19.277  0.00  0.00    +0.000 OA
ATOM      7  C   UNL     1       2.875   3.779  20.344  0.00  0.00    +0.000 A 
ATOM      8  C   UNL     1       1.720   3.112  20.258  0.00  0.00    +0.000 A 
BRANCH   8   9
ATOM      9  O   UNL     1       0.964   2.761  21.359  0.00  0.00    +0.000 OA
ATOM     10  H   UNL     1       0.024   2.851  21.137  0.00  0.00    +0.000 HD
ENDBRANCH   8   9
ENDBRANCH   1   5
BRANCH   1  11
ATOM     11  N   UNL     1       5.271   3.455  16.758  0.00  0.00    +0.000 NA
ATOM     12  H   UNL     1       4.998   2.642  16.206  0.00  0.00    +0.000 HD
BRANCH  11  13
ATOM     13  C   UNL     1       6.403   4.104  16.100  0.00  0.00    +0.000 C 
BRANCH  13  14
ATOM     14  C   UNL     1       7.017   5.133  17.020  0.00  0.00    +0.000 A 
ATOM     15  C   UNL     1       7.511   4.775  18.282  0.00  0.00    +0.000 A 
ATOM     16  C   UNL     1       8.048   5.744  19.132  0.00  0.00    +0.000 A 
ATOM     17  C   UNL     1       8.098   7.079  18.732  0.00  0.00    +0.000 A 
ATOM     18  C   UNL     1       7.621   7.446  17.476  0.00  0.00    +0.000 A 
ATOM     19  C   UNL     1       7.089   6.479  16.624  0.00  0.00    +0.000 A 
ENDBRANCH  13  14
ENDBRANCH  11  13
ENDBRANCH   1  11
TORSDOF 5
ENDMDL
MODEL 4
REMARK VINA RESULT:      -6.6      2.111      3.010
REMARK  Name = 
REMARK  5 active torsions:
REMARK  status: ('A' for Active; 'I' for Inactive)
REMARK    1  A    between atoms: C_4  and  C_5
REMARK    2  A    between atoms: C_5  and  N_6
REMARK    3  A    between atoms: N_6  and  C_7
REMARK    4  A    between atoms: C_7  and  C_8
REMARK    5  A    between atoms: C_16  and  O_17
REMARK                            x       y       z     vdW  Elec       q    Type
REMARK                         _______ _______ _______ _____ _____    ______ ____
ROOT
ATOM      1  C   UNL     1       3.764   7.524  17.398  0.00  0.00    +0.000 C 
ENDROOT
BRANCH   1   5
ATOM      2  O   UNL     1       5.908   3.510  15.719  0.00  0.00    +0.000 OA
ATOM      3  C   UNL     1       5.963   4.510  16.426  0.00  0.00    +0.000 A 
ATOM      4  C   UNL     1       4.818   5.441  16.486  0.00  0.00    +0.000 A 
ATOM      5  C   UNL     1       4.895   6.538  17.255  0.00  0.00    +0.000 A 
ATOM      6  O   UNL     1       6.028   6.858  17.993  0.00  0.00    +0.000 OA
ATOM      7  C   UNL     1       7.093   5.988  17.973  0.00  0.00    +0.000 A 
ATOM      8  C   UNL     1       7.150   4.856  17.262  0.00  0.00    +0.000 A 
BRANCH   8   9
ATOM      9  O   UNL     1       8.242   4.013  17.268  0.00  0.00    +0.000 OA
ATOM     10  H   UNL     1       8.909   4.356  16.653  0.00  0.00    +0.000 HD
ENDBRANCH   8   9
ENDBRANCH   1   5
BRANCH   1  11
ATOM     11  N   UNL     1       2.594   6.850  17.950  0.00  0.00    +0.000 NA
ATOM     12  H   UNL     1       2.376   6.036  17.376  0.00  0.00    +0.000 HD
BRANCH  11  13
ATOM     13  C   UNL     1       2.805   6.403  19.326  0.00  0.00    +0.000 C 
BRANCH  13  14
ATOM     14  C   UNL     1       2.149   5.058  19.539  0.00  0.00    +0.000 A 
ATOM     15  C   UNL     1       1.915   4.562  20.830  0.00  0.00    +0.000 A 
ATOM     16  C   UNL     1       1.336   3.304  21.009  0.00  0.00    +0.000 A 
ATOM     17  C   UNL     1       0.985   2.529  19.904  0.00  0.00    +0.000 A 
ATOM     18  C   UNL     1       1.202   3.015  18.617  0.00  0.00    +0.000 A 
ATOM     19  C   UNL     1       1.776   4.273  18.436  0.00  0.00    +0.000 A 
ENDBRANCH  13  14
ENDBRANCH  11  13
ENDBRANCH   1  11
TORSDOF 5
ENDMDL
MODEL 5
REMARK VINA RESULT:      -6.6      1.718      2.750
REMARK  Name = 
REMARK  5 active torsions:
REMARK  status: ('A' for Active; 'I' for Inactive)
REMARK    1  A    between atoms: C_4  and  C_5
REMARK    2  A    between atoms: C_5  and  N_6
REMARK    3  A    between atoms: N_6  and  C_7
REMARK    4  A    between atoms: C_7  and  C_8
REMARK    5  A    between atoms: C_16  and  O_17
REMARK                            x       y       z     vdW  Elec       q    Type
REMARK                         _______ _______ _______ _____ _____    ______ ____
ROOT
ATOM      1  C   UNL     1       5.045   4.174  19.214  0.00  0.00    +0.000 C 
ENDROOT
BRANCH   1   5
ATOM      2  O   UNL     1       7.822   7.155  16.582  0.00  0.00    +0.000 OA
ATOM      3  C   UNL     1       7.162   6.124  16.649  0.00  0.00    +0.000 A 
ATOM      4  C   UNL     1       6.493   5.750  17.912  0.00  0.00    +0.000 A 
ATOM      5  C   UNL     1       5.783   4.614  17.976  0.00  0.00    +0.000 A 
ATOM      6  O   UNL     1       5.662   3.744  16.900  0.00  0.00    +0.000 OA
ATOM      7  C   UNL     1       6.254   4.089  15.707  0.00  0.00    +0.000 A 
ATOM      8  C   UNL     1       6.980   5.192  15.497  0.00  0.00    +0.000 A 
BRANCH   8   9
ATOM      9  O   UNL     1       7.559   5.497  14.282  0.00  0.00    +0.000 OA
ATOM     10  H   UNL     1       8.509   5.304  14.328  0.00  0.00    +0.000 HD
ENDBRANCH   8   9
ENDBRANCH   1   5
BRANCH   1  11
ATOM     11  N   UNL     1       5.279   2.753  19.446  0.00  0.00    +0.000 NA
ATOM     12  H   UNL     1       6.234   2.623  19.782  0.00  0.00    +0.000 HD
BRANCH  11  13
ATOM     13  C   UNL     1       4.361   2.189  20.434  0.00  0.00    +0.000 C 
BRANCH  13  14
ATOM     14  C   UNL     1       2.938   2.572  20.096  0.00  0.00    +0.000 A 
ATOM     15  C   UNL     1       2.228   3.489  20.883  0.00  0.00    +0.000 A 
ATOM     16  C   UNL     1       0.903   3.808  20.575  0.00  0.00    +0.000 A 
ATOM     17  C   UNL     1       0.276   3.217  19.479  0.00  0.00    +0.000 A 
ATOM     18  C   UNL     1       0.974   2.313  18.683  0.00  0.00    +0.000 A 
ATOM     19  C   UNL     1       2.298   1.996  18.986  0.00  0.00    +0.000 A 
ENDBRANCH  13  14
ENDBRANCH  11  13
ENDBRANCH   1  11
TORSDOF 5
ENDMDL
MODEL 6
REMARK VINA RESULT:      -6.5      1.204      1.871
REMARK  Name = 
REMARK  5 active torsions:
REMARK  status: ('A' for Active; 'I' for Inactive)
REMARK    1  A    between atoms: C_4  and  C_5
REMARK    2  A    between atoms: C_5  and  N_6
REMARK    3  A    between atoms: N_6  and  C_7
REMARK    4  A    between atoms: C_7  and  C_8
REMARK    5  A    between atoms: C_16  and  O_17
REMARK                            x       y       z     vdW  Elec       q    Type
REMARK                         _______ _______ _______ _____ _____    ______ ____
ROOT
ATOM      1  C   UNL     1       5.331   3.785  16.319  0.00  0.00    +0.000 C 
ENDROOT
BRANCH   1   5
ATOM      2  O   UNL     1       7.110   8.255  16.938  0.00  0.00    +0.000 OA
ATOM      3  C   UNL     1       7.058   7.087  17.306  0.00  0.00    +0.000 A 
ATOM      4  C   UNL     1       6.206   6.118  16.589  0.00  0.00    +0.000 A 
ATOM      5  C   UNL     1       6.150   4.845  17.011  0.00  0.00    +0.000 A 
ATOM      6  O   UNL     1       6.850   4.392  18.122  0.00  0.00    +0.000 OA
ATOM      7  C   UNL     1       7.671   5.273  18.785  0.00  0.00    +0.000 A 
ATOM      8  C   UNL     1       7.832   6.563  18.471  0.00  0.00    +0.000 A 
BRANCH   8   9
ATOM      9  O   UNL     1       8.665   7.414  19.168  0.00  0.00    +0.000 OA
ATOM     10  H   UNL     1       9.478   6.938  19.401  0.00  0.00    +0.000 HD
ENDBRANCH   8   9
ENDBRANCH   1   5
BRANCH   1  11
ATOM     11  N   UNL     1       4.540   3.055  17.304  0.00  0.00    +0.000 NA
ATOM     12  H   UNL     1       4.911   3.245  18.236  0.00  0.00    +0.000 HD
BRANCH  11  13
ATOM     13  C   UNL     1       3.130   3.438  17.282  0.00  0.00    +0.000 C 
BRANCH  13  14
ATOM     14  C   UNL     1       2.592   3.517  18.692  0.00  0.00    +0.000 A 
ATOM     15  C   UNL     1       1.959   2.417  19.289  0.00  0.00    +0.000 A 
ATOM     16  C   UNL     1       1.441   2.516  20.582  0.00  0.00    +0.000 A 
ATOM     17  C   UNL     1       1.549   3.712  21.292  0.00  0.00    +0.000 A 
ATOM     18  C   UNL     1       2.185   4.808  20.715  0.00  0.00    +0.000 A 
ATOM     19  C   UNL     1       2.708   4.709  19.425  0.00  0.00    +0.000 A 
ENDBRANCH  13  14
ENDBRANCH  11  13
ENDBRANCH   1  11
TORSDOF 5
ENDMDL
MODEL 7
REMARK VINA RESULT:      -6.5      2.152      2.890
REMARK  Name = 
REMARK  5 active torsions:
REMARK  status: ('A' for Active; 'I' for Inactive)
REMARK    1  A    between atoms: C_4  and  C_5
REMARK    2  A    between atoms: C_5  and  N_6
REMARK    3  A    between atoms: N_6  and  C_7
REMARK    4  A    between atoms: C_7  and  C_8
REMARK    5  A    between atoms: C_16  and  O_17
REMARK                            x       y       z     vdW  Elec       q    Type
REMARK                         _______ _______ _______ _____ _____    ______ ____
ROOT
ATOM      1  C   UNL     1       4.378   5.872  19.423  0.00  0.00    +0.000 C 
ENDROOT
BRANCH   1   5
ATOM      2  O   UNL     1       8.319   4.127  17.197  0.00  0.00    +0.000 OA
ATOM      3  C   UNL     1       7.261   4.741  17.126  0.00  0.00    +0.000 A 
ATOM      4  C   UNL     1       6.431   4.936  18.332  0.00  0.00    +0.000 A 
ATOM      5  C   UNL     1       5.270   5.601  18.238  0.00  0.00    +0.000 A 
ATOM      6  O   UNL     1       4.789   6.104  17.035  0.00  0.00    +0.000 OA
ATOM      7  C   UNL     1       5.561   5.958  15.907  0.00  0.00    +0.000 A 
ATOM      8  C   UNL     1       6.741   5.329  15.856  0.00  0.00    +0.000 A 
BRANCH   8   9
ATOM      9  O   UNL     1       7.481   5.202  14.698  0.00  0.00    +0.000 OA
ATOM     10  H   UNL     1       6.876   5.113  13.945  0.00  0.00    +0.000 HD
ENDBRANCH   8   9
ENDBRANCH   1   5
BRANCH   1  11
ATOM     11  N   UNL     1       3.149   6.517  18.975  0.00  0.00    +0.000 NA
ATOM     12  H   UNL     1       2.927   6.193  18.034  0.00  0.00    +0.000 HD
BRANCH  11  13
ATOM     13  C   UNL     1       2.014   6.222  19.846  0.00  0.00    +0.000 C 
BRANCH  13  14
ATOM     14  C   UNL     1       1.696   4.745  19.801  0.00  0.00    +0.000 A 
ATOM     15  C   UNL     1       1.607   3.986  20.976  0.00  0.00    +0.000 A 
ATOM     16  C   UNL     1       1.343   2.616  20.915  0.00  0.00    +0.000 A 
ATOM     17  C   UNL     1       1.164   1.991  19.681  0.00  0.00    +0.000 A 
ATOM     18  C   UNL     1       1.238   2.735  18.507  0.00  0.00    +0.000 A 
ATOM     19  C   UNL     1       1.498   4.104  18.567  0.00  0.00    +0.000 A 
ENDBRANCH  13  14
ENDBRANCH  11  13
ENDBRANCH   1  11
TORSDOF 5
ENDMDL
MODEL 8
REMARK VINA RESULT:      -6.5      2.490      3.628
REMARK  Name = 
REMARK  5 active torsions:
REMARK  status: ('A' for Active; 'I' for Inactive)
REMARK    1  A    between atoms: C_4  and  C_5
REMARK    2  A    between atoms: C_5  and  N_6
REMARK    3  A    between atoms: N_6  and  C_7
REMARK    4  A    between atoms: C_7  and  C_8
REMARK    5  A    between atoms: C_16  and  O_17
REMARK                            x       y       z     vdW  Elec       q    Type
REMARK                         _______ _______ _______ _____ _____    ______ ____
ROOT
ATOM      1  C   UNL     1       4.991   5.962  18.271  0.00  0.00    +0.000 C 
ENDROOT
BRANCH   1   5
ATOM      2  O   UNL     1       7.958   5.523  14.459  0.00  0.00    +0.000 OA
ATOM      3  C   UNL     1       6.980   5.119  15.078  0.00  0.00    +0.000 A 
ATOM      4  C   UNL     1       6.565   5.784  16.330  0.00  0.00    +0.000 A 
ATOM      5  C   UNL     1       5.500   5.325  17.004  0.00  0.00    +0.000 A 
ATOM      6  O   UNL     1       4.768   4.220  16.587  0.00  0.00    +0.000 OA
ATOM      7  C   UNL     1       5.121   3.605  15.409  0.00  0.00    +0.000 A 
ATOM      8  C   UNL     1       6.150   3.961  14.631  0.00  0.00    +0.000 A 
BRANCH   8   9
ATOM      9  O   UNL     1       6.471   3.312  13.457  0.00  0.00    +0.000 OA
ATOM     10  H   UNL     1       7.352   3.599  13.169  0.00  0.00    +0.000 HD
ENDBRANCH   8   9
ENDBRANCH   1   5
BRANCH   1  11
ATOM     11  N   UNL     1       3.673   6.541  18.034  0.00  0.00    +0.000 NA
ATOM     12  H   UNL     1       3.196   5.999  17.313  0.00  0.00    +0.000 HD
BRANCH  11  13
ATOM     13  C   UNL     1       2.840   6.546  19.235  0.00  0.00    +0.000 C 
BRANCH  13  14
ATOM     14  C   UNL     1       2.172   5.201  19.407  0.00  0.00    +0.000 A 
ATOM     15  C   UNL     1       1.779   4.439  18.297  0.00  0.00    +0.000 A 
ATOM     16  C   UNL     1       1.135   3.213  18.475  0.00  0.00    +0.000 A 
ATOM     17  C   UNL     1       0.877   2.735  19.759  0.00  0.00    +0.000 A 
ATOM     18  C   UNL     1       1.272   3.476  20.870  0.00  0.00    +0.000 A 
ATOM     19  C   UNL     1       1.920   4.699  20.694  0.00  0.00    +0.000 A 
ENDBRANCH  13  14
ENDBRANCH  11  13
ENDBRANCH   1  11
TORSDOF 5
ENDMDL
MODEL 9
REMARK VINA RESULT:      -6.5      1.106      1.220
REMARK  Name = 
REMARK  5 active torsions:
REMARK  status: ('A' for Active; 'I' for Inactive)
REMARK    1  A    between atoms: C_4  and  C_5
REMARK    2  A    between atoms: C_5  and  N_6
REMARK    3  A    between atoms: N_6  and  C_7
REMARK    4  A    between atoms: C_7  and  C_8
REMARK    5  A    between atoms: C_16  and  O_17
REMARK                            x       y       z     vdW  Elec       q    Type
REMARK                         _______ _______ _______ _____ _____    ______ ____
ROOT
ATOM      1  C   UNL     1       4.628   3.780  17.370  0.00  0.00    +0.000 C 
ENDROOT
BRANCH   1   5
ATOM      2  O   UNL     1       7.876   5.475  20.549  0.00  0.00    +0.000 OA
ATOM      3  C   UNL     1       7.336   5.567  19.452  0.00  0.00    +0.000 A 
ATOM      4  C   UNL     1       6.294   4.599  19.053  0.00  0.00    +0.000 A 
ATOM      5  C   UNL     1       5.720   4.704  17.845  0.00  0.00    +0.000 A 
ATOM      6  O   UNL     1       6.079   5.682  16.926  0.00  0.00    +0.000 OA
ATOM      7  C   UNL     1       7.027   6.609  17.291  0.00  0.00    +0.000 A 
ATOM      8  C   UNL     1       7.673   6.632  18.462  0.00  0.00    +0.000 A 
BRANCH   8   9
ATOM      9  O   UNL     1       8.621   7.581  18.785  0.00  0.00    +0.000 OA
ATOM     10  H   UNL     1       9.230   7.685  18.037  0.00  0.00    +0.000 HD
ENDBRANCH   8   9
ENDBRANCH   1   5
BRANCH   1  11
ATOM     11  N   UNL     1       3.474   4.563  16.942  0.00  0.00    +0.000 NA
ATOM     12  H   UNL     1       2.748   3.930  16.606  0.00  0.00    +0.000 HD
BRANCH  11  13
ATOM     13  C   UNL     1       2.917   5.374  18.022  0.00  0.00    +0.000 C 
BRANCH  13  14
ATOM     14  C   UNL     1       2.313   4.481  19.082  0.00  0.00    +0.000 A 
ATOM     15  C   UNL     1       1.361   3.506  18.752  0.00  0.00    +0.000 A 
ATOM     16  C   UNL     1       0.791   2.710  19.748  0.00  0.00    +0.000 A 
ATOM     17  C   UNL     1       1.166   2.878  21.081  0.00  0.00    +0.000 A 
ATOM     18  C   UNL     1       2.119   3.834  21.420  0.00  0.00    +0.000 A 
ATOM     19  C   UNL     1       2.692   4.627  20.426  0.00  0.00    +0.000 A 
ENDBRANCH  13  14
ENDBRANCH  11  13
ENDBRANCH   1  11
TORSDOF 5
ENDMDL
