MODEL 1
REMARK VINA RESULT:      -9.3      0.000      0.000
REMARK  Name = 
REMARK  7 active torsions:
REMARK  status: ('A' for Active; 'I' for Inactive)
REMARK    1  A    between atoms: C_2  and  C_3
REMARK    2  A    between atoms: C_8  and  N_9
REMARK    3  A    between atoms: C_11  and  C_12
REMARK    4  A    between atoms: N_16  and  C_17
REMARK    5  A    between atoms: C_20  and  C_21
REMARK    6  A    between atoms: C_21  and  O_22
REMARK    7  A    between atoms: C_21  and  C_23
REMARK                            x       y       z     vdW  Elec       q    Type
REMARK                         _______ _______ _______ _____ _____    ______ ____
ROOT
ATOM      1  N   UNL     1       4.445   4.321  18.355  0.00  0.00    +0.000 N 
ATOM      2  C   UNL     1       3.874   3.272  19.016  0.00  0.00    +0.000 A 
ATOM      3  C   UNL     1       3.073   3.802  20.008  0.00  0.00    +0.000 A 
ATOM      4  C   UNL     1       3.165   5.212  19.802  0.00  0.00    +0.000 A 
ATOM      5  N   UNL     1       2.512   6.126  20.565  0.00  0.00    +0.000 N 
ATOM      6  N   UNL     1       3.989   5.504  18.784  0.00  0.00    +0.000 NA
ATOM      7  H   UNL     1       1.998   5.777  21.375  0.00  0.00    +0.000 HD
ENDROOT
BRANCH   1  13
ATOM      8  C   UNL     1       5.146   5.257  16.153  0.00  0.00    +0.000 C 
ATOM      9  C   UNL     1       5.232   6.713  16.667  0.00  0.00    +0.000 C 
ATOM     10  C   UNL     1       6.581   6.988  17.346  0.00  0.00    +0.000 C 
ATOM     11  O   UNL     1       6.884   6.028  18.357  0.00  0.00    +0.000 OA
ATOM     12  C   UNL     1       6.865   4.672  17.895  0.00  0.00    +0.000 C 
ATOM     13  C   UNL     1       5.489   4.298  17.317  0.00  0.00    +0.000 C 
BRANCH   8  15
ATOM     14  N   UNL     1       7.063   5.078  14.147  0.00  0.00    +0.000 NA
ATOM     15  C   UNL     1       6.193   5.159  15.057  0.00  0.00    +0.000 C 
ENDBRANCH   8  15
ENDBRANCH   1  13
BRANCH   5  16
ATOM     16  C   UNL     1       1.996   7.370  20.135  0.00  0.00    +0.000 A 
ATOM     17  C   UNL     1       1.250   8.194  20.986  0.00  0.00    +0.000 A 
ATOM     18  C   UNL     1       0.772   9.432  20.558  0.00  0.00    +0.000 A 
ATOM     19  C   UNL     1       1.002   9.873  19.249  0.00  0.00    +0.000 A 
ATOM     20  C   UNL     1       1.708   9.029  18.376  0.00  0.00    +0.000 A 
ATOM     21  C   UNL     1       2.210   7.798  18.821  0.00  0.00    +0.000 A 
BRANCH  19  22
ATOM     22  C   UNL     1       0.522  11.249  18.834  0.00  0.00    +0.000 C 
BRANCH  22  23
ATOM     23  C   UNL     1      -0.946  11.327  18.344  0.00  0.00    +0.000 C 
ATOM     24  F   UNL     1      -1.277  10.343  17.480  0.00  0.00    +0.000 F 
ATOM     25  F   UNL     1      -1.809  11.250  19.388  0.00  0.00    +0.000 F 
ATOM     26  F   UNL     1      -1.186  12.502  17.711  0.00  0.00    +0.000 F 
ENDBRANCH  22  23
BRANCH  22  27
ATOM     27  O   UNL     1       1.478  11.777  17.889  0.00  0.00    +0.000 OA
ATOM     28  H   UNL     1       2.303  11.272  17.998  0.00  0.00    +0.000 HD
ENDBRANCH  22  27
ENDBRANCH  19  22
ENDBRANCH   5  16
BRANCH   3  29
ATOM     29  C   UNL     1       2.300   3.083  20.997  0.00  0.00    +0.000 C 
ATOM     30  N   UNL     1       0.949   3.010  20.768  0.00  0.00    +0.000 N 
ATOM     31  O   UNL     1       2.798   2.548  21.983  0.00  0.00    +0.000 OA
ATOM     32  H   UNL     1       0.503   3.371  19.939  0.00  0.00    +0.000 HD
ATOM     33  H   UNL     1       0.382   2.498  21.432  0.00  0.00    +0.000 HD
ENDBRANCH   3  29
TORSDOF 7
ENDMDL
MODEL 2
REMARK VINA RESULT:      -9.3      0.410      1.205
REMARK  Name = 
REMARK  7 active torsions:
REMARK  status: ('A' for Active; 'I' for Inactive)
REMARK    1  A    between atoms: C_2  and  C_3
REMARK    2  A    between atoms: C_8  and  N_9
REMARK    3  A    between atoms: C_11  and  C_12
REMARK    4  A    between atoms: N_16  and  C_17
REMARK    5  A    between atoms: C_20  and  C_21
REMARK    6  A    between atoms: C_21  and  O_22
REMARK    7  A    between atoms: C_21  and  C_23
REMARK                            x       y       z     vdW  Elec       q    Type
REMARK                         _______ _______ _______ _____ _____    ______ ____
ROOT
ATOM      1  N   UNL     1       4.725   4.294  18.298  0.00  0.00    +0.000 N 
ATOM      2  C   UNL     1       4.152   3.206  18.889  0.00  0.00    +0.000 A 
ATOM      3  C   UNL     1       3.289   3.676  19.860  0.00  0.00    +0.000 A 
ATOM      4  C   UNL     1       3.352   5.095  19.713  0.00  0.00    +0.000 A 
ATOM      5  N   UNL     1       2.638   5.961  20.477  0.00  0.00    +0.000 N 
ATOM      6  N   UNL     1       4.216   5.448  18.749  0.00  0.00    +0.000 NA
ATOM      7  H   UNL     1       2.095   5.567  21.247  0.00  0.00    +0.000 HD
ENDROOT
BRANCH   1  13
ATOM      8  C   UNL     1       5.482   5.294  16.143  0.00  0.00    +0.000 C 
ATOM      9  C   UNL     1       5.466   6.746  16.675  0.00  0.00    +0.000 C 
ATOM     10  C   UNL     1       6.764   7.083  17.423  0.00  0.00    +0.000 C 
ATOM     11  O   UNL     1       7.067   6.127  18.438  0.00  0.00    +0.000 OA
ATOM     12  C   UNL     1       7.143   4.778  17.962  0.00  0.00    +0.000 C 
ATOM     13  C   UNL     1       5.818   4.339  17.312  0.00  0.00    +0.000 C 
BRANCH   8  15
ATOM     14  N   UNL     1       7.502   5.240  14.233  0.00  0.00    +0.000 NA
ATOM     15  C   UNL     1       6.586   5.265  15.099  0.00  0.00    +0.000 C 
ENDBRANCH   8  15
ENDBRANCH   1  13
BRANCH   5  16
ATOM     16  C   UNL     1       2.109   7.207  20.070  0.00  0.00    +0.000 A 
ATOM     17  C   UNL     1       2.338   7.724  18.789  0.00  0.00    +0.000 A 
ATOM     18  C   UNL     1       1.785   8.940  18.391  0.00  0.00    +0.000 A 
ATOM     19  C   UNL     1       1.007   9.696  19.277  0.00  0.00    +0.000 A 
ATOM     20  C   UNL     1       0.815   9.206  20.579  0.00  0.00    +0.000 A 
ATOM     21  C   UNL     1       1.350   7.969  20.964  0.00  0.00    +0.000 A 
BRANCH  19  22
ATOM     22  C   UNL     1       0.371  10.984  18.793  0.00  0.00    +0.000 C 
BRANCH  22  23
ATOM     23  C   UNL     1      -1.041  10.841  18.172  0.00  0.00    +0.000 C 
ATOM     24  F   UNL     1      -1.425  11.919  17.454  0.00  0.00    +0.000 F 
ATOM     25  F   UNL     1      -1.099   9.768  17.345  0.00  0.00    +0.000 F 
ATOM     26  F   UNL     1      -1.980  10.656  19.134  0.00  0.00    +0.000 F 
ENDBRANCH  22  23
BRANCH  22  27
ATOM     27  O   UNL     1       1.322  11.640  17.927  0.00  0.00    +0.000 OA
ATOM     28  H   UNL     1       1.355  12.577  18.189  0.00  0.00    +0.000 HD
ENDBRANCH  22  27
ENDBRANCH  19  22
ENDBRANCH   5  16
BRANCH   3  29
ATOM     29  C   UNL     1       2.489   2.898  20.780  0.00  0.00    +0.000 C 
ATOM     30  N   UNL     1       1.502   2.128  20.218  0.00  0.00    +0.000 N 
ATOM     31  O   UNL     1       2.668   2.898  21.995  0.00  0.00    +0.000 OA
ATOM     32  H   UNL     1       1.362   2.040  19.224  0.00  0.00    +0.000 HD
ATOM     33  H   UNL     1       0.936   1.558  20.833  0.00  0.00    +0.000 HD
ENDBRANCH   3  29
TORSDOF 7
ENDMDL
MODEL 3
REMARK VINA RESULT:      -9.1      4.865      8.301
REMARK  Name = 
REMARK  7 active torsions:
REMARK  status: ('A' for Active; 'I' for Inactive)
REMARK    1  A    between atoms: C_2  and  C_3
REMARK    2  A    between atoms: C_8  and  N_9
REMARK    3  A    between atoms: C_11  and  C_12
REMARK    4  A    between atoms: N_16  and  C_17
REMARK    5  A    between atoms: C_20  and  C_21
REMARK    6  A    between atoms: C_21  and  O_22
REMARK    7  A    between atoms: C_21  and  C_23
REMARK                            x       y       z     vdW  Elec       q    Type
REMARK                         _______ _______ _______ _____ _____    ______ ____
ROOT
ATOM      1  N   UNL     1       5.343   4.546  18.765  0.00  0.00    +0.000 N 
ATOM      2  C   UNL     1       5.950   5.719  19.108  0.00  0.00    +0.000 A 
ATOM      3  C   UNL     1       6.808   6.052  18.079  0.00  0.00    +0.000 A 
ATOM      4  C   UNL     1       6.577   5.036  17.102  0.00  0.00    +0.000 A 
ATOM      5  N   UNL     1       7.217   4.986  15.905  0.00  0.00    +0.000 N 
ATOM      6  N   UNL     1       5.672   4.143  17.531  0.00  0.00    +0.000 NA
ATOM      7  H   UNL     1       7.960   5.669  15.744  0.00  0.00    +0.000 HD
ENDROOT
BRANCH   1  13
ATOM      8  C   UNL     1       3.299   4.512  20.193  0.00  0.00    +0.000 C 
ATOM      9  C   UNL     1       2.356   4.973  19.057  0.00  0.00    +0.000 C 
ATOM     10  C   UNL     1       1.909   3.791  18.185  0.00  0.00    +0.000 C 
ATOM     11  O   UNL     1       3.014   3.024  17.707  0.00  0.00    +0.000 OA
ATOM     12  C   UNL     1       3.875   2.537  18.743  0.00  0.00    +0.000 C 
ATOM     13  C   UNL     1       4.457   3.694  19.575  0.00  0.00    +0.000 C 
BRANCH   8  15
ATOM     14  N   UNL     1       1.734   2.901  21.831  0.00  0.00    +0.000 NA
ATOM     15  C   UNL     1       2.444   3.631  21.088  0.00  0.00    +0.000 C 
ENDBRANCH   8  15
ENDBRANCH   1  13
BRANCH   5  16
ATOM     16  C   UNL     1       6.686   4.517  14.682  0.00  0.00    +0.000 A 
ATOM     17  C   UNL     1       7.430   4.538  13.497  0.00  0.00    +0.000 A 
ATOM     18  C   UNL     1       6.904   4.044  12.304  0.00  0.00    +0.000 A 
ATOM     19  C   UNL     1       5.599   3.538  12.254  0.00  0.00    +0.000 A 
ATOM     20  C   UNL     1       4.831   3.559  13.429  0.00  0.00    +0.000 A 
ATOM     21  C   UNL     1       5.375   4.031  14.632  0.00  0.00    +0.000 A 
BRANCH  19  22
ATOM     22  C   UNL     1       5.080   2.953  10.956  0.00  0.00    +0.000 C 
BRANCH  22  23
ATOM     23  C   UNL     1       3.627   3.339  10.581  0.00  0.00    +0.000 C 
ATOM     24  F   UNL     1       2.694   2.732  11.347  0.00  0.00    +0.000 F 
ATOM     25  F   UNL     1       3.436   4.677  10.703  0.00  0.00    +0.000 F 
ATOM     26  F   UNL     1       3.353   3.012   9.294  0.00  0.00    +0.000 F 
ENDBRANCH  22  23
BRANCH  22  27
ATOM     27  O   UNL     1       5.308   1.527  10.999  0.00  0.00    +0.000 OA
ATOM     28  H   UNL     1       5.875   1.301  10.241  0.00  0.00    +0.000 HD
ENDBRANCH  22  27
ENDBRANCH  19  22
ENDBRANCH   5  16
BRANCH   3  29
ATOM     29  C   UNL     1       7.703   7.186  18.008  0.00  0.00    +0.000 C 
ATOM     30  N   UNL     1       8.532   7.367  19.087  0.00  0.00    +0.000 N 
ATOM     31  O   UNL     1       7.748   7.949  17.047  0.00  0.00    +0.000 OA
ATOM     32  H   UNL     1       8.581   6.729  19.865  0.00  0.00    +0.000 HD
ATOM     33  H   UNL     1       9.183   8.141  19.060  0.00  0.00    +0.000 HD
ENDBRANCH   3  29
TORSDOF 7
ENDMDL
MODEL 4
REMARK VINA RESULT:      -9.0      1.306      1.545
REMARK  Name = 
REMARK  7 active torsions:
REMARK  status: ('A' for Active; 'I' for Inactive)
REMARK    1  A    between atoms: C_2  and  C_3
REMARK    2  A    between atoms: C_8  and  N_9
REMARK    3  A    between atoms: C_11  and  C_12
REMARK    4  A    between atoms: N_16  and  C_17
REMARK    5  A    between atoms: C_20  and  C_21
REMARK    6  A    between atoms: C_21  and  O_22
REMARK    7  A    between atoms: C_21  and  C_23
REMARK                            x       y       z     vdW  Elec       q    Type
REMARK                         _______ _______ _______ _____ _____    ______ ____
ROOT
ATOM      1  N   UNL     1       4.634   4.343  18.375  0.00  0.00    +0.000 N 
ATOM      2  C   UNL     1       4.038   3.289  19.004  0.00  0.00    +0.000 A 
ATOM      3  C   UNL     1       3.176   3.811  19.948  0.00  0.00    +0.000 A 
ATOM      4  C   UNL     1       3.265   5.222  19.746  0.00  0.00    +0.000 A 
ATOM      5  N   UNL     1       2.561   6.129  20.470  0.00  0.00    +0.000 N 
ATOM      6  N   UNL     1       4.142   5.522  18.776  0.00  0.00    +0.000 NA
ATOM      7  H   UNL     1       2.005   5.775  21.251  0.00  0.00    +0.000 HD
ENDROOT
BRANCH   1  13
ATOM      8  C   UNL     1       5.459   5.303  16.226  0.00  0.00    +0.000 C 
ATOM      9  C   UNL     1       5.517   6.753  16.761  0.00  0.00    +0.000 C 
ATOM     10  C   UNL     1       6.826   7.019  17.519  0.00  0.00    +0.000 C 
ATOM     11  O   UNL     1       7.070   6.047  18.534  0.00  0.00    +0.000 OA
ATOM     12  C   UNL     1       7.077   4.697  18.057  0.00  0.00    +0.000 C 
ATOM     13  C   UNL     1       5.735   4.331  17.397  0.00  0.00    +0.000 C 
BRANCH   8  15
ATOM     14  N   UNL     1       7.488   5.145  14.332  0.00  0.00    +0.000 NA
ATOM     15  C   UNL     1       6.568   5.216  15.191  0.00  0.00    +0.000 C 
ENDBRANCH   8  15
ENDBRANCH   1  13
BRANCH   5  16
ATOM     16  C   UNL     1       2.057   7.367  20.011  0.00  0.00    +0.000 A 
ATOM     17  C   UNL     1       1.337   8.228  20.848  0.00  0.00    +0.000 A 
ATOM     18  C   UNL     1       0.872   9.461  20.390  0.00  0.00    +0.000 A 
ATOM     19  C   UNL     1       1.088   9.858  19.064  0.00  0.00    +0.000 A 
ATOM     20  C   UNL     1       1.767   8.977  18.207  0.00  0.00    +0.000 A 
ATOM     21  C   UNL     1       2.257   7.752  18.681  0.00  0.00    +0.000 A 
BRANCH  19  22
ATOM     22  C   UNL     1       0.623  11.229  18.616  0.00  0.00    +0.000 C 
BRANCH  22  23
ATOM     23  C   UNL     1       1.682  12.356  18.701  0.00  0.00    +0.000 C 
ATOM     24  F   UNL     1       2.138  12.572  19.955  0.00  0.00    +0.000 F 
ATOM     25  F   UNL     1       2.758  12.069  17.928  0.00  0.00    +0.000 F 
ATOM     26  F   UNL     1       1.175  13.535  18.261  0.00  0.00    +0.000 F 
ENDBRANCH  22  23
BRANCH  22  27
ATOM     27  O   UNL     1      -0.600  11.526  19.324  0.00  0.00    +0.000 OA
ATOM     28  H   UNL     1      -0.364  11.697  20.253  0.00  0.00    +0.000 HD
ENDBRANCH  22  27
ENDBRANCH  19  22
ENDBRANCH   5  16
BRANCH   3  29
ATOM     29  C   UNL     1       2.356   3.084  20.892  0.00  0.00    +0.000 C 
ATOM     30  N   UNL     1       1.020   3.000  20.588  0.00  0.00    +0.000 N 
ATOM     31  O   UNL     1       2.804   2.553  21.905  0.00  0.00    +0.000 OA
ATOM     32  H   UNL     1       0.618   3.356  19.736  0.00  0.00    +0.000 HD
ATOM     33  H   UNL     1       0.422   2.481  21.219  0.00  0.00    +0.000 HD
ENDBRANCH   3  29
TORSDOF 7
ENDMDL
MODEL 5
REMARK VINA RESULT:      -9.0      1.207      1.682
REMARK  Name = 
REMARK  7 active torsions:
REMARK  status: ('A' for Active; 'I' for Inactive)
REMARK    1  A    between atoms: C_2  and  C_3
REMARK    2  A    between atoms: C_8  and  N_9
REMARK    3  A    between atoms: C_11  and  C_12
REMARK    4  A    between atoms: N_16  and  C_17
REMARK    5  A    between atoms: C_20  and  C_21
REMARK    6  A    between atoms: C_21  and  O_22
REMARK    7  A    between atoms: C_21  and  C_23
REMARK                            x       y       z     vdW  Elec       q    Type
REMARK                         _______ _______ _______ _____ _____    ______ ____
ROOT
ATOM      1  N   UNL     1       4.585   4.355  18.398  0.00  0.00    +0.000 N 
ATOM      2  C   UNL     1       3.985   3.303  19.026  0.00  0.00    +0.000 A 
ATOM      3  C   UNL     1       3.132   3.827  19.977  0.00  0.00    +0.000 A 
ATOM      4  C   UNL     1       3.230   5.238  19.780  0.00  0.00    +0.000 A 
ATOM      5  N   UNL     1       2.535   6.148  20.511  0.00  0.00    +0.000 N 
ATOM      6  N   UNL     1       4.103   5.536  18.806  0.00  0.00    +0.000 NA
ATOM      7  H   UNL     1       1.982   5.795  21.293  0.00  0.00    +0.000 HD
ENDROOT
BRANCH   1  13
ATOM      8  C   UNL     1       5.403   5.315  16.247  0.00  0.00    +0.000 C 
ATOM      9  C   UNL     1       5.472   6.763  16.784  0.00  0.00    +0.000 C 
ATOM     10  C   UNL     1       6.787   7.021  17.535  0.00  0.00    +0.000 C 
ATOM     11  O   UNL     1       7.031   6.045  18.547  0.00  0.00    +0.000 OA
ATOM     12  C   UNL     1       7.028   4.695  18.067  0.00  0.00    +0.000 C 
ATOM     13  C   UNL     1       5.680   4.339  17.414  0.00  0.00    +0.000 C 
BRANCH   8  15
ATOM     14  N   UNL     1       7.420   5.150  14.340  0.00  0.00    +0.000 NA
ATOM     15  C   UNL     1       6.505   5.224  15.205  0.00  0.00    +0.000 C 
ENDBRANCH   8  15
ENDBRANCH   1  13
BRANCH   5  16
ATOM     16  C   UNL     1       2.037   7.391  20.058  0.00  0.00    +0.000 A 
ATOM     17  C   UNL     1       2.215   7.822  18.738  0.00  0.00    +0.000 A 
ATOM     18  C   UNL     1       1.692   9.037  18.297  0.00  0.00    +0.000 A 
ATOM     19  C   UNL     1       0.997   9.877  19.177  0.00  0.00    +0.000 A 
ATOM     20  C   UNL     1       0.858   9.473  20.514  0.00  0.00    +0.000 A 
ATOM     21  C   UNL     1       1.361   8.237  20.944  0.00  0.00    +0.000 A 
BRANCH  19  22
ATOM     22  C   UNL     1       0.390  11.162  18.651  0.00  0.00    +0.000 C 
BRANCH  22  23
ATOM     23  C   UNL     1       1.310  12.407  18.700  0.00  0.00    +0.000 C 
ATOM     24  F   UNL     1       2.474  12.242  18.033  0.00  0.00    +0.000 F 
ATOM     25  F   UNL     1       0.691  13.488  18.163  0.00  0.00    +0.000 F 
ATOM     26  F   UNL     1       1.633  12.724  19.978  0.00  0.00    +0.000 F 
ENDBRANCH  22  23
BRANCH  22  27
ATOM     27  O   UNL     1      -0.877  11.350  19.320  0.00  0.00    +0.000 OA
ATOM     28  H   UNL     1      -0.881  10.771  20.102  0.00  0.00    +0.000 HD
ENDBRANCH  22  27
ENDBRANCH  19  22
ENDBRANCH   5  16
BRANCH   3  29
ATOM     29  C   UNL     1       2.313   3.103  20.923  0.00  0.00    +0.000 C 
ATOM     30  N   UNL     1       0.975   3.024  20.625  0.00  0.00    +0.000 N 
ATOM     31  O   UNL     1       2.762   2.569  21.934  0.00  0.00    +0.000 OA
ATOM     32  H   UNL     1       0.572   3.384  19.774  0.00  0.00    +0.000 HD
ATOM     33  H   UNL     1       0.377   2.508  21.257  0.00  0.00    +0.000 HD
ENDBRANCH   3  29
TORSDOF 7
ENDMDL
MODEL 6
REMARK VINA RESULT:      -8.8      4.817      8.261
REMARK  Name = 
REMARK  7 active torsions:
REMARK  status: ('A' for Active; 'I' for Inactive)
REMARK    1  A    between atoms: C_2  and  C_3
REMARK    2  A    between atoms: C_8  and  N_9
REMARK    3  A    between atoms: C_11  and  C_12
REMARK    4  A    between atoms: N_16  and  C_17
REMARK    5  A    between atoms: C_20  and  C_21
REMARK    6  A    between atoms: C_21  and  O_22
REMARK    7  A    between atoms: C_21  and  C_23
REMARK                            x       y       z     vdW  Elec       q    Type
REMARK                         _______ _______ _______ _____ _____    ______ ____
ROOT
ATOM      1  N   UNL     1       5.327   4.576  18.764  0.00  0.00    +0.000 N 
ATOM      2  C   UNL     1       5.889   5.778  19.079  0.00  0.00    +0.000 A 
ATOM      3  C   UNL     1       6.752   6.107  18.051  0.00  0.00    +0.000 A 
ATOM      4  C   UNL     1       6.569   5.054  17.105  0.00  0.00    +0.000 A 
ATOM      5  N   UNL     1       7.230   4.987  15.920  0.00  0.00    +0.000 N 
ATOM      6  N   UNL     1       5.688   4.145  17.549  0.00  0.00    +0.000 NA
ATOM      7  H   UNL     1       7.952   5.688  15.747  0.00  0.00    +0.000 HD
ENDROOT
BRANCH   1  13
ATOM      8  C   UNL     1       3.269   4.522  20.172  0.00  0.00    +0.000 C 
ATOM      9  C   UNL     1       2.325   4.923  19.015  0.00  0.00    +0.000 C 
ATOM     10  C   UNL     1       1.923   3.705  18.171  0.00  0.00    +0.000 C 
ATOM     11  O   UNL     1       3.054   2.958  17.726  0.00  0.00    +0.000 OA
ATOM     12  C   UNL     1       3.918   2.525  18.784  0.00  0.00    +0.000 C 
ATOM     13  C   UNL     1       4.457   3.721  19.589  0.00  0.00    +0.000 C 
BRANCH   8  15
ATOM     14  N   UNL     1       1.733   2.911  21.839  0.00  0.00    +0.000 NA
ATOM     15  C   UNL     1       2.430   3.641  21.083  0.00  0.00    +0.000 C 
ENDBRANCH   8  15
ENDBRANCH   1  13
BRANCH   5  16
ATOM     16  C   UNL     1       6.734   4.461  14.706  0.00  0.00    +0.000 A 
ATOM     17  C   UNL     1       5.545   3.723  14.651  0.00  0.00    +0.000 A 
ATOM     18  C   UNL     1       5.052   3.235  13.441  0.00  0.00    +0.000 A 
ATOM     19  C   UNL     1       5.752   3.447  12.247  0.00  0.00    +0.000 A 
ATOM     20  C   UNL     1       6.969   4.144  12.302  0.00  0.00    +0.000 A 
ATOM     21  C   UNL     1       7.446   4.656  13.518  0.00  0.00    +0.000 A 
BRANCH  19  22
ATOM     22  C   UNL     1       5.157   2.957  10.942  0.00  0.00    +0.000 C 
BRANCH  22  23
ATOM     23  C   UNL     1       3.717   3.441  10.639  0.00  0.00    +0.000 C 
ATOM     24  F   UNL     1       3.395   3.383   9.328  0.00  0.00    +0.000 F 
ATOM     25  F   UNL     1       2.805   2.693  11.309  0.00  0.00    +0.000 F 
ATOM     26  F   UNL     1       3.544   4.728  11.029  0.00  0.00    +0.000 F 
ENDBRANCH  22  23
BRANCH  22  27
ATOM     27  O   UNL     1       5.306   1.520  10.908  0.00  0.00    +0.000 OA
ATOM     28  H   UNL     1       6.219   1.329  10.629  0.00  0.00    +0.000 HD
ENDBRANCH  22  27
ENDBRANCH  19  22
ENDBRANCH   5  16
BRANCH   3  29
ATOM     29  C   UNL     1       7.609   7.268  17.956  0.00  0.00    +0.000 C 
ATOM     30  N   UNL     1       8.518   7.429  18.972  0.00  0.00    +0.000 N 
ATOM     31  O   UNL     1       7.557   8.070  17.028  0.00  0.00    +0.000 OA
ATOM     32  H   UNL     1       8.647   6.762  19.716  0.00  0.00    +0.000 HD
ATOM     33  H   UNL     1       9.146   8.222  18.926  0.00  0.00    +0.000 HD
ENDBRANCH   3  29
TORSDOF 7
ENDMDL
MODEL 7
REMARK VINA RESULT:      -8.8      0.878      1.485
REMARK  Name = 
REMARK  7 active torsions:
REMARK  status: ('A' for Active; 'I' for Inactive)
REMARK    1  A    between atoms: C_2  and  C_3
REMARK    2  A    between atoms: C_8  and  N_9
REMARK    3  A    between atoms: C_11  and  C_12
REMARK    4  A    between atoms: N_16  and  C_17
REMARK    5  A    between atoms: C_20  and  C_21
REMARK    6  A    between atoms: C_21  and  O_22
REMARK    7  A    between atoms: C_21  and  C_23
REMARK                            x       y       z     vdW  Elec       q    Type
REMARK                         _______ _______ _______ _____ _____    ______ ____
ROOT
ATOM      1  N   UNL     1       4.629   4.322  18.367  0.00  0.00    +0.000 N 
ATOM      2  C   UNL     1       4.048   3.264  19.004  0.00  0.00    +0.000 A 
ATOM      3  C   UNL     1       3.192   3.780  19.957  0.00  0.00    +0.000 A 
ATOM      4  C   UNL     1       3.267   5.192  19.751  0.00  0.00    +0.000 A 
ATOM      5  N   UNL     1       2.563   6.094  20.481  0.00  0.00    +0.000 N 
ATOM      6  N   UNL     1       4.131   5.497  18.771  0.00  0.00    +0.000 NA
ATOM      7  H   UNL     1       2.018   5.737  21.268  0.00  0.00    +0.000 HD
ENDROOT
BRANCH   1  13
ATOM      8  C   UNL     1       5.441   5.315  16.229  0.00  0.00    +0.000 C 
ATOM      9  C   UNL     1       5.520   6.754  16.791  0.00  0.00    +0.000 C 
ATOM     10  C   UNL     1       6.840   6.992  17.540  0.00  0.00    +0.000 C 
ATOM     11  O   UNL     1       7.084   5.997  18.534  0.00  0.00    +0.000 OA
ATOM     12  C   UNL     1       7.071   4.656  18.030  0.00  0.00    +0.000 C 
ATOM     13  C   UNL     1       5.719   4.317  17.377  0.00  0.00    +0.000 C 
BRANCH   8  15
ATOM     14  N   UNL     1       7.447   5.173  14.309  0.00  0.00    +0.000 NA
ATOM     15  C   UNL     1       6.538   5.237  15.180  0.00  0.00    +0.000 C 
ENDBRANCH   8  15
ENDBRANCH   1  13
BRANCH   5  16
ATOM     16  C   UNL     1       2.043   7.327  20.025  0.00  0.00    +0.000 A 
ATOM     17  C   UNL     1       2.258   7.781  18.718  0.00  0.00    +0.000 A 
ATOM     18  C   UNL     1       1.714   8.985  18.272  0.00  0.00    +0.000 A 
ATOM     19  C   UNL     1       0.960   9.791  19.134  0.00  0.00    +0.000 A 
ATOM     20  C   UNL     1       0.782   9.365  20.460  0.00  0.00    +0.000 A 
ATOM     21  C   UNL     1       1.307   8.139  20.894  0.00  0.00    +0.000 A 
BRANCH  19  22
ATOM     22  C   UNL     1       0.332  11.064  18.601  0.00  0.00    +0.000 C 
BRANCH  22  23
ATOM     23  C   UNL     1      -0.209  12.043  19.672  0.00  0.00    +0.000 C 
ATOM     24  F   UNL     1       0.715  12.398  20.593  0.00  0.00    +0.000 F 
ATOM     25  F   UNL     1      -0.661  13.186  19.099  0.00  0.00    +0.000 F 
ATOM     26  F   UNL     1      -1.249  11.497  20.351  0.00  0.00    +0.000 F 
ENDBRANCH  22  23
BRANCH  22  27
ATOM     27  O   UNL     1      -0.650  10.683  17.613  0.00  0.00    +0.000 OA
ATOM     28  H   UNL     1      -1.217  11.458  17.454  0.00  0.00    +0.000 HD
ENDBRANCH  22  27
ENDBRANCH  19  22
ENDBRANCH   5  16
BRANCH   3  29
ATOM     29  C   UNL     1       2.389   3.048  20.911  0.00  0.00    +0.000 C 
ATOM     30  N   UNL     1       1.049   2.958  20.626  0.00  0.00    +0.000 N 
ATOM     31  O   UNL     1       2.853   2.518  21.916  0.00  0.00    +0.000 OA
ATOM     32  H   UNL     1       0.634   3.314  19.779  0.00  0.00    +0.000 HD
ATOM     33  H   UNL     1       0.462   2.436  21.264  0.00  0.00    +0.000 HD
ENDBRANCH   3  29
TORSDOF 7
ENDMDL
MODEL 8
REMARK VINA RESULT:      -8.7      0.846      1.345
REMARK  Name = 
REMARK  7 active torsions:
REMARK  status: ('A' for Active; 'I' for Inactive)
REMARK    1  A    between atoms: C_2  and  C_3
REMARK    2  A    between atoms: C_8  and  N_9
REMARK    3  A    between atoms: C_11  and  C_12
REMARK    4  A    between atoms: N_16  and  C_17
REMARK    5  A    between atoms: C_20  and  C_21
REMARK    6  A    between atoms: C_21  and  O_22
REMARK    7  A    between atoms: C_21  and  C_23
REMARK                            x       y       z     vdW  Elec       q    Type
REMARK                         _______ _______ _______ _____ _____    ______ ____
ROOT
ATOM      1  N   UNL     1       4.437   4.754  19.034  0.00  0.00    +0.000 N 
ATOM      2  C   UNL     1       3.782   3.646  19.486  0.00  0.00    +0.000 A 
ATOM      3  C   UNL     1       2.770   4.082  20.319  0.00  0.00    +0.000 A 
ATOM      4  C   UNL     1       2.848   5.505  20.233  0.00  0.00    +0.000 A 
ATOM      5  N   UNL     1       2.014   6.344  20.900  0.00  0.00    +0.000 N 
ATOM      6  N   UNL     1       3.856   5.891  19.435  0.00  0.00    +0.000 NA
ATOM      7  H   UNL     1       1.355   5.923  21.557  0.00  0.00    +0.000 HD
ENDROOT
BRANCH   1  13
ATOM      8  C   UNL     1       5.462   4.299  16.807  0.00  0.00    +0.000 C 
ATOM      9  C   UNL     1       4.529   5.272  16.048  0.00  0.00    +0.000 C 
ATOM     10  C   UNL     1       5.046   6.716  16.122  0.00  0.00    +0.000 C 
ATOM     11  O   UNL     1       5.302   7.130  17.464  0.00  0.00    +0.000 OA
ATOM     12  C   UNL     1       6.207   6.277  18.173  0.00  0.00    +0.000 C 
ATOM     13  C   UNL     1       5.676   4.834  18.242  0.00  0.00    +0.000 C 
BRANCH   8  15
ATOM     14  N   UNL     1       7.853   4.329  15.389  0.00  0.00    +0.000 NA
ATOM     15  C   UNL     1       6.769   4.316  16.032  0.00  0.00    +0.000 C 
ENDBRANCH   8  15
ENDBRANCH   1  13
BRANCH   5  16
ATOM     16  C   UNL     1       1.552   7.604  20.456  0.00  0.00    +0.000 A 
ATOM     17  C   UNL     1       1.901   8.118  19.201  0.00  0.00    +0.000 A 
ATOM     18  C   UNL     1       1.413   9.349  18.763  0.00  0.00    +0.000 A 
ATOM     19  C   UNL     1       0.581  10.121  19.584  0.00  0.00    +0.000 A 
ATOM     20  C   UNL     1       0.267   9.632  20.862  0.00  0.00    +0.000 A 
ATOM     21  C   UNL     1       0.737   8.381  21.286  0.00  0.00    +0.000 A 
BRANCH  19  22
ATOM     22  C   UNL     1       0.019  11.425  19.054  0.00  0.00    +0.000 C 
BRANCH  22  23
ATOM     23  C   UNL     1      -1.406  11.344  18.451  0.00  0.00    +0.000 C 
ATOM     24  F   UNL     1      -1.670  10.163  17.850  0.00  0.00    +0.000 F 
ATOM     25  F   UNL     1      -2.348  11.524  19.411  0.00  0.00    +0.000 F 
ATOM     26  F   UNL     1      -1.595  12.310  17.518  0.00  0.00    +0.000 F 
ENDBRANCH  22  23
BRANCH  22  27
ATOM     27  O   UNL     1       0.999  11.987  18.154  0.00  0.00    +0.000 OA
ATOM     28  H   UNL     1       0.786  11.670  17.258  0.00  0.00    +0.000 HD
ENDBRANCH  22  27
ENDBRANCH  19  22
ENDBRANCH   5  16
BRANCH   3  29
ATOM     29  C   UNL     1       1.835   3.273  21.069  0.00  0.00    +0.000 C 
ATOM     30  N   UNL     1       0.589   3.122  20.514  0.00  0.00    +0.000 N 
ATOM     31  O   UNL     1       2.116   2.731  22.135  0.00  0.00    +0.000 OA
ATOM     32  H   UNL     1       0.333   3.486  19.610  0.00  0.00    +0.000 HD
ATOM     33  H   UNL     1      -0.083   2.546  21.006  0.00  0.00    +0.000 HD
ENDBRANCH   3  29
TORSDOF 7
ENDMDL
MODEL 9
REMARK VINA RESULT:      -8.6      1.863      4.711
REMARK  Name = 
REMARK  7 active torsions:
REMARK  status: ('A' for Active; 'I' for Inactive)
REMARK    1  A    between atoms: C_2  and  C_3
REMARK    2  A    between atoms: C_8  and  N_9
REMARK    3  A    between atoms: C_11  and  C_12
REMARK    4  A    between atoms: N_16  and  C_17
REMARK    5  A    between atoms: C_20  and  C_21
REMARK    6  A    between atoms: C_21  and  O_22
REMARK    7  A    between atoms: C_21  and  C_23
REMARK                            x       y       z     vdW  Elec       q    Type
REMARK                         _______ _______ _______ _____ _____    ______ ____
ROOT
ATOM      1  N   UNL     1       3.753   4.928  19.152  0.00  0.00    +0.000 N 
ATOM      2  C   UNL     1       4.819   5.024  18.305  0.00  0.00    +0.000 A 
ATOM      3  C   UNL     1       4.620   6.144  17.523  0.00  0.00    +0.000 A 
ATOM      4  C   UNL     1       3.420   6.715  18.046  0.00  0.00    +0.000 A 
ATOM      5  N   UNL     1       2.860   7.855  17.564  0.00  0.00    +0.000 N 
ATOM      6  N   UNL     1       2.920   5.972  19.044  0.00  0.00    +0.000 NA
ATOM      7  H   UNL     1       3.284   8.269  16.732  0.00  0.00    +0.000 HD
ENDROOT
BRANCH   1  13
ATOM      8  C   UNL     1       1.940   3.949  20.556  0.00  0.00    +0.000 C 
ATOM      9  C   UNL     1       1.008   3.657  19.357  0.00  0.00    +0.000 C 
ATOM     10  C   UNL     1       1.365   2.325  18.680  0.00  0.00    +0.000 C 
ATOM     11  O   UNL     1       2.748   2.248  18.336  0.00  0.00    +0.000 OA
ATOM     12  C   UNL     1       3.635   2.460  19.440  0.00  0.00    +0.000 C 
ATOM     13  C   UNL     1       3.408   3.840  20.082  0.00  0.00    +0.000 C 
BRANCH   8  15
ATOM     14  N   UNL     1       1.370   1.966  22.420  0.00  0.00    +0.000 NA
ATOM     15  C   UNL     1       1.629   2.865  21.574  0.00  0.00    +0.000 C 
ENDBRANCH   8  15
ENDBRANCH   1  13
BRANCH   5  16
ATOM     16  C   UNL     1       2.150   8.825  18.308  0.00  0.00    +0.000 A 
ATOM     17  C   UNL     1       2.022  10.147  17.864  0.00  0.00    +0.000 A 
ATOM     18  C   UNL     1       1.293  11.087  18.592  0.00  0.00    +0.000 A 
ATOM     19  C   UNL     1       0.693  10.738  19.808  0.00  0.00    +0.000 A 
ATOM     20  C   UNL     1       0.859   9.427  20.283  0.00  0.00    +0.000 A 
ATOM     21  C   UNL     1       1.569   8.479  19.532  0.00  0.00    +0.000 A 
BRANCH  19  22
ATOM     22  C   UNL     1      -0.143  11.767  20.544  0.00  0.00    +0.000 C 
BRANCH  22  23
ATOM     23  C   UNL     1      -1.466  12.176  19.849  0.00  0.00    +0.000 C 
ATOM     24  F   UNL     1      -1.311  13.158  18.934  0.00  0.00    +0.000 F 
ATOM     25  F   UNL     1      -2.024  11.117  19.210  0.00  0.00    +0.000 F 
ATOM     26  F   UNL     1      -2.373  12.622  20.753  0.00  0.00    +0.000 F 
ENDBRANCH  22  23
BRANCH  22  27
ATOM     27  O   UNL     1       0.718  12.883  20.858  0.00  0.00    +0.000 OA
ATOM     28  H   UNL     1       1.635  12.558  20.835  0.00  0.00    +0.000 HD
ENDBRANCH  22  27
ENDBRANCH  19  22
ENDBRANCH   5  16
BRANCH   3  29
ATOM     29  C   UNL     1       5.459   6.630  16.449  0.00  0.00    +0.000 C 
ATOM     30  N   UNL     1       6.789   6.785  16.748  0.00  0.00    +0.000 N 
ATOM     31  O   UNL     1       5.034   6.885  15.326  0.00  0.00    +0.000 OA
ATOM     32  H   UNL     1       7.197   6.522  17.631  0.00  0.00    +0.000 HD
ATOM     33  H   UNL     1       7.407   7.106  16.013  0.00  0.00    +0.000 HD
ENDBRANCH   3  29
TORSDOF 7
ENDMDL
