MODEL 1
REMARK VINA RESULT:      -6.4      0.000      0.000
REMARK  Name = 
REMARK  8 active torsions:
REMARK  status: ('A' for Active; 'I' for Inactive)
REMARK    1  A    between atoms: C_1  and  N_2
REMARK    2  A    between atoms: N_2  and  C_3
REMARK    3  A    between atoms: N_2  and  C_4
REMARK    4  A    between atoms: C_7  and  C_8
REMARK    5  A    between atoms: N_10  and  C_11
REMARK    6  A    between atoms: C_11  and  C_12
REMARK    7  A    between atoms: C_12  and  C_13
REMARK    8  A    between atoms: C_13  and  N_14
REMARK                            x       y       z     vdW  Elec       q    Type
REMARK                         _______ _______ _______ _____ _____    ______ ____
ROOT
ATOM      1  C   UNL     1       3.184   6.089  18.830  0.00  0.00    +0.000 C 
ATOM      2  O   UNL     1       3.874   5.660  19.743  0.00  0.00    +0.000 OA
ATOM      3  N   UNL     1       3.084   5.439  17.611  0.00  0.00    +0.000 N 
ATOM      4  H   UNL     1       2.459   5.775  16.897  0.00  0.00    +0.000 HD
ENDROOT
BRANCH   1   8
ATOM      5  C   UNL     1       0.950   9.806  19.201  0.00  0.00    +0.000 A 
ATOM      6  C   UNL     1       1.528   9.381  17.999  0.00  0.00    +0.000 A 
ATOM      7  C   UNL     1       2.242   8.179  17.902  0.00  0.00    +0.000 A 
ATOM      8  C   UNL     1       2.399   7.349  19.013  0.00  0.00    +0.000 A 
ATOM      9  C   UNL     1       1.822   7.741  20.221  0.00  0.00    +0.000 A 
ATOM     10  C   UNL     1       1.115   8.952  20.305  0.00  0.00    +0.000 A 
BRANCH   5  12
ATOM     11  C   UNL     1       0.515  11.951  20.366  0.00  0.00    +0.000 C 
ATOM     12  N   UNL     1       0.241  11.000  19.293  0.00  0.00    +0.000 N 
ATOM     13  C   UNL     1      -0.999  11.154  18.545  0.00  0.00    +0.000 C 
ENDBRANCH   5  12
ENDBRANCH   1   8
BRANCH   3  14
ATOM     14  C   UNL     1       3.792   4.197  17.370  0.00  0.00    +0.000 C 
BRANCH  14  15
ATOM     15  C   UNL     1       2.837   3.031  17.141  0.00  0.00    +0.000 C 
BRANCH  15  16
ATOM     16  C   UNL     1       2.972   1.972  18.232  0.00  0.00    +0.000 C 
BRANCH  16  17
ATOM     17  N   UNL     1       2.478   2.438  19.511  0.00  0.00    +0.000 N 
ATOM     18  C   UNL     1       3.185   2.499  20.677  0.00  0.00    +0.000 A 
ATOM     19  C   UNL     1       2.302   3.014  21.596  0.00  0.00    +0.000 A 
ATOM     20  N   UNL     1       1.080   3.249  21.020  0.00  0.00    +0.000 NA
ATOM     21  C   UNL     1       1.216   2.893  19.762  0.00  0.00    +0.000 A 
ENDBRANCH  16  17
ENDBRANCH  15  16
ENDBRANCH  14  15
ENDBRANCH   3  14
TORSDOF 6
ENDMDL
MODEL 2
REMARK VINA RESULT:      -6.4      0.339      1.117
REMARK  Name = 
REMARK  8 active torsions:
REMARK  status: ('A' for Active; 'I' for Inactive)
REMARK    1  A    between atoms: C_1  and  N_2
REMARK    2  A    between atoms: N_2  and  C_3
REMARK    3  A    between atoms: N_2  and  C_4
REMARK    4  A    between atoms: C_7  and  C_8
REMARK    5  A    between atoms: N_10  and  C_11
REMARK    6  A    between atoms: C_11  and  C_12
REMARK    7  A    between atoms: C_12  and  C_13
REMARK    8  A    between atoms: C_13  and  N_14
REMARK                            x       y       z     vdW  Elec       q    Type
REMARK                         _______ _______ _______ _____ _____    ______ ____
ROOT
ATOM      1  C   UNL     1       3.356   5.973  18.745  0.00  0.00    +0.000 C 
ATOM      2  O   UNL     1       4.127   5.609  19.621  0.00  0.00    +0.000 OA
ATOM      3  N   UNL     1       3.176   5.256  17.574  0.00  0.00    +0.000 N 
ATOM      4  H   UNL     1       2.489   5.539  16.896  0.00  0.00    +0.000 HD
ENDROOT
BRANCH   1   8
ATOM      5  C   UNL     1       0.982   9.556  19.425  0.00  0.00    +0.000 A 
ATOM      6  C   UNL     1       1.231   8.607  20.422  0.00  0.00    +0.000 A 
ATOM      7  C   UNL     1       2.001   7.460  20.182  0.00  0.00    +0.000 A 
ATOM      8  C   UNL     1       2.558   7.225  18.924  0.00  0.00    +0.000 A 
ATOM      9  C   UNL     1       2.337   8.161  17.914  0.00  0.00    +0.000 A 
ATOM     10  C   UNL     1       1.558   9.302  18.169  0.00  0.00    +0.000 A 
BRANCH   5  12
ATOM     11  C   UNL     1       0.134  11.263  21.011  0.00  0.00    +0.000 C 
ATOM     12  N   UNL     1       0.219  10.694  19.669  0.00  0.00    +0.000 N 
ATOM     13  C   UNL     1      -0.767  11.119  18.685  0.00  0.00    +0.000 C 
ENDBRANCH   5  12
ENDBRANCH   1   8
BRANCH   3  14
ATOM     14  C   UNL     1       3.893   4.016  17.342  0.00  0.00    +0.000 C 
BRANCH  14  15
ATOM     15  C   UNL     1       2.947   2.827  17.206  0.00  0.00    +0.000 C 
BRANCH  15  16
ATOM     16  C   UNL     1       3.048   1.889  18.406  0.00  0.00    +0.000 C 
BRANCH  16  17
ATOM     17  N   UNL     1       2.487   2.474  19.606  0.00  0.00    +0.000 N 
ATOM     18  C   UNL     1       3.111   2.598  20.814  0.00  0.00    +0.000 A 
ATOM     19  C   UNL     1       2.189   3.218  21.623  0.00  0.00    +0.000 A 
ATOM     20  N   UNL     1       1.023   3.455  20.942  0.00  0.00    +0.000 NA
ATOM     21  C   UNL     1       1.232   2.998  19.727  0.00  0.00    +0.000 A 
ENDBRANCH  16  17
ENDBRANCH  15  16
ENDBRANCH  14  15
ENDBRANCH   3  14
TORSDOF 6
ENDMDL
MODEL 3
REMARK VINA RESULT:      -6.2      0.979      1.358
REMARK  Name = 
REMARK  8 active torsions:
REMARK  status: ('A' for Active; 'I' for Inactive)
REMARK    1  A    between atoms: C_1  and  N_2
REMARK    2  A    between atoms: N_2  and  C_3
REMARK    3  A    between atoms: N_2  and  C_4
REMARK    4  A    between atoms: C_7  and  C_8
REMARK    5  A    between atoms: N_10  and  C_11
REMARK    6  A    between atoms: C_11  and  C_12
REMARK    7  A    between atoms: C_12  and  C_13
REMARK    8  A    between atoms: C_13  and  N_14
REMARK                            x       y       z     vdW  Elec       q    Type
REMARK                         _______ _______ _______ _____ _____    ______ ____
ROOT
ATOM      1  C   UNL     1       3.684   5.876  18.188  0.00  0.00    +0.000 C 
ATOM      2  O   UNL     1       4.880   5.875  18.442  0.00  0.00    +0.000 OA
ATOM      3  N   UNL     1       3.088   4.876  17.438  0.00  0.00    +0.000 N 
ATOM      4  H   UNL     1       2.091   4.862  17.297  0.00  0.00    +0.000 HD
ENDROOT
BRANCH   1   8
ATOM      5  C   UNL     1       1.178   9.166  19.542  0.00  0.00    +0.000 A 
ATOM      6  C   UNL     1       1.717   9.100  18.252  0.00  0.00    +0.000 A 
ATOM      7  C   UNL     1       2.521   8.029  17.836  0.00  0.00    +0.000 A 
ATOM      8  C   UNL     1       2.810   6.974  18.703  0.00  0.00    +0.000 A 
ATOM      9  C   UNL     1       2.276   7.008  19.991  0.00  0.00    +0.000 A 
ATOM     10  C   UNL     1       1.478   8.091  20.396  0.00  0.00    +0.000 A 
BRANCH   5  12
ATOM     11  C   UNL     1       0.082  11.332  19.039  0.00  0.00    +0.000 C 
ATOM     12  N   UNL     1       0.380  10.231  19.950  0.00  0.00    +0.000 N 
ATOM     13  C   UNL     1       0.126  10.431  21.369  0.00  0.00    +0.000 C 
ENDBRANCH   5  12
ENDBRANCH   1   8
BRANCH   3  14
ATOM     14  C   UNL     1       3.865   3.762  16.929  0.00  0.00    +0.000 C 
BRANCH  14  15
ATOM     15  C   UNL     1       3.842   2.569  17.879  0.00  0.00    +0.000 C 
BRANCH  15  16
ATOM     16  C   UNL     1       2.421   2.236  18.327  0.00  0.00    +0.000 C 
BRANCH  16  17
ATOM     17  N   UNL     1       2.221   2.482  19.739  0.00  0.00    +0.000 N 
ATOM     18  C   UNL     1       1.043   2.815  20.343  0.00  0.00    +0.000 A 
ATOM     19  C   UNL     1       1.352   2.930  21.677  0.00  0.00    +0.000 A 
ATOM     20  N   UNL     1       2.686   2.694  21.891  0.00  0.00    +0.000 NA
ATOM     21  C   UNL     1       3.184   2.424  20.705  0.00  0.00    +0.000 A 
ENDBRANCH  16  17
ENDBRANCH  15  16
ENDBRANCH  14  15
ENDBRANCH   3  14
TORSDOF 6
ENDMDL
MODEL 4
REMARK VINA RESULT:      -6.2      1.023      1.635
REMARK  Name = 
REMARK  8 active torsions:
REMARK  status: ('A' for Active; 'I' for Inactive)
REMARK    1  A    between atoms: C_1  and  N_2
REMARK    2  A    between atoms: N_2  and  C_3
REMARK    3  A    between atoms: N_2  and  C_4
REMARK    4  A    between atoms: C_7  and  C_8
REMARK    5  A    between atoms: N_10  and  C_11
REMARK    6  A    between atoms: C_11  and  C_12
REMARK    7  A    between atoms: C_12  and  C_13
REMARK    8  A    between atoms: C_13  and  N_14
REMARK                            x       y       z     vdW  Elec       q    Type
REMARK                         _______ _______ _______ _____ _____    ______ ____
ROOT
ATOM      1  C   UNL     1       3.797   5.956  18.050  0.00  0.00    +0.000 C 
ATOM      2  O   UNL     1       5.002   6.004  18.247  0.00  0.00    +0.000 OA
ATOM      3  N   UNL     1       3.191   4.872  17.438  0.00  0.00    +0.000 N 
ATOM      4  H   UNL     1       2.189   4.825  17.345  0.00  0.00    +0.000 HD
ENDROOT
BRANCH   1   8
ATOM      5  C   UNL     1       1.209   9.153  19.472  0.00  0.00    +0.000 A 
ATOM      6  C   UNL     1       1.561   8.051  20.259  0.00  0.00    +0.000 A 
ATOM      7  C   UNL     1       2.398   7.033  19.782  0.00  0.00    +0.000 A 
ATOM      8  C   UNL     1       2.922   7.087  18.489  0.00  0.00    +0.000 A 
ATOM      9  C   UNL     1       2.598   8.180  17.687  0.00  0.00    +0.000 A 
ATOM     10  C   UNL     1       1.753   9.190  18.177  0.00  0.00    +0.000 A 
BRANCH   5  12
ATOM     11  C   UNL     1       0.263  10.416  21.384  0.00  0.00    +0.000 C 
ATOM     12  N   UNL     1       0.379  10.163  19.951  0.00  0.00    +0.000 N 
ATOM     13  C   UNL     1      -0.632  10.734  19.073  0.00  0.00    +0.000 C 
ENDBRANCH   5  12
ENDBRANCH   1   8
BRANCH   3  14
ATOM     14  C   UNL     1       3.970   3.725  17.013  0.00  0.00    +0.000 C 
BRANCH  14  15
ATOM     15  C   UNL     1       3.552   2.451  17.739  0.00  0.00    +0.000 C 
BRANCH  15  16
ATOM     16  C   UNL     1       4.022   2.452  19.191  0.00  0.00    +0.000 C 
BRANCH  16  17
ATOM     17  N   UNL     1       2.925   2.616  20.121  0.00  0.00    +0.000 N 
ATOM     18  C   UNL     1       1.628   2.895  19.800  0.00  0.00    +0.000 A 
ATOM     19  C   UNL     1       0.970   2.941  21.006  0.00  0.00    +0.000 A 
ATOM     20  N   UNL     1       1.838   2.715  22.043  0.00  0.00    +0.000 NA
ATOM     21  C   UNL     1       3.009   2.520  21.480  0.00  0.00    +0.000 A 
ENDBRANCH  16  17
ENDBRANCH  15  16
ENDBRANCH  14  15
ENDBRANCH   3  14
TORSDOF 6
ENDMDL
MODEL 5
REMARK VINA RESULT:      -6.1      2.403      3.728
REMARK  Name = 
REMARK  8 active torsions:
REMARK  status: ('A' for Active; 'I' for Inactive)
REMARK    1  A    between atoms: C_1  and  N_2
REMARK    2  A    between atoms: N_2  and  C_3
REMARK    3  A    between atoms: N_2  and  C_4
REMARK    4  A    between atoms: C_7  and  C_8
REMARK    5  A    between atoms: N_10  and  C_11
REMARK    6  A    between atoms: C_11  and  C_12
REMARK    7  A    between atoms: C_12  and  C_13
REMARK    8  A    between atoms: C_13  and  N_14
REMARK                            x       y       z     vdW  Elec       q    Type
REMARK                         _______ _______ _______ _____ _____    ______ ____
ROOT
ATOM      1  C   UNL     1       3.673   5.510  18.583  0.00  0.00    +0.000 C 
ATOM      2  O   UNL     1       4.314   4.952  19.461  0.00  0.00    +0.000 OA
ATOM      3  N   UNL     1       3.674   5.067  17.271  0.00  0.00    +0.000 N 
ATOM      4  H   UNL     1       3.087   5.503  16.579  0.00  0.00    +0.000 HD
ENDROOT
BRANCH   1   8
ATOM      5  C   UNL     1       1.301   9.069  19.390  0.00  0.00    +0.000 A 
ATOM      6  C   UNL     1       1.932   8.836  18.163  0.00  0.00    +0.000 A 
ATOM      7  C   UNL     1       2.690   7.682  17.924  0.00  0.00    +0.000 A 
ATOM      8  C   UNL     1       2.839   6.707  18.912  0.00  0.00    +0.000 A 
ATOM      9  C   UNL     1       2.209   6.907  20.140  0.00  0.00    +0.000 A 
ATOM     10  C   UNL     1       1.458   8.072  20.368  0.00  0.00    +0.000 A 
BRANCH   5  12
ATOM     11  C   UNL     1       0.712  10.980  20.856  0.00  0.00    +0.000 C 
ATOM     12  N   UNL     1       0.547  10.216  19.622  0.00  0.00    +0.000 N 
ATOM     13  C   UNL     1      -0.640  10.467  18.818  0.00  0.00    +0.000 C 
ENDBRANCH   5  12
ENDBRANCH   1   8
BRANCH   3  14
ATOM     14  C   UNL     1       4.434   3.895  16.882  0.00  0.00    +0.000 C 
BRANCH  14  15
ATOM     15  C   UNL     1       5.199   4.117  15.581  0.00  0.00    +0.000 C 
BRANCH  15  16
ATOM     16  C   UNL     1       6.708   4.129  15.811  0.00  0.00    +0.000 C 
BRANCH  16  17
ATOM     17  N   UNL     1       7.097   5.070  16.841  0.00  0.00    +0.000 N 
ATOM     18  C   UNL     1       7.584   4.760  18.077  0.00  0.00    +0.000 A 
ATOM     19  C   UNL     1       7.816   5.974  18.678  0.00  0.00    +0.000 A 
ATOM     20  N   UNL     1       7.465   7.005  17.845  0.00  0.00    +0.000 NA
ATOM     21  C   UNL     1       7.037   6.430  16.744  0.00  0.00    +0.000 A 
ENDBRANCH  16  17
ENDBRANCH  15  16
ENDBRANCH  14  15
ENDBRANCH   3  14
TORSDOF 6
ENDMDL
MODEL 6
REMARK VINA RESULT:      -6.0      1.013      1.013
REMARK  Name = 
REMARK  8 active torsions:
REMARK  status: ('A' for Active; 'I' for Inactive)
REMARK    1  A    between atoms: C_1  and  N_2
REMARK    2  A    between atoms: N_2  and  C_3
REMARK    3  A    between atoms: N_2  and  C_4
REMARK    4  A    between atoms: C_7  and  C_8
REMARK    5  A    between atoms: N_10  and  C_11
REMARK    6  A    between atoms: C_11  and  C_12
REMARK    7  A    between atoms: C_12  and  C_13
REMARK    8  A    between atoms: C_13  and  N_14
REMARK                            x       y       z     vdW  Elec       q    Type
REMARK                         _______ _______ _______ _____ _____    ______ ____
ROOT
ATOM      1  C   UNL     1       3.675   6.341  17.959  0.00  0.00    +0.000 C 
ATOM      2  O   UNL     1       4.240   6.492  16.886  0.00  0.00    +0.000 OA
ATOM      3  N   UNL     1       3.840   5.202  18.729  0.00  0.00    +0.000 N 
ATOM      4  H   UNL     1       3.417   5.129  19.639  0.00  0.00    +0.000 HD
ENDROOT
BRANCH   1   8
ATOM      5  C   UNL     1       1.110   9.567  19.360  0.00  0.00    +0.000 A 
ATOM      6  C   UNL     1       1.705   9.562  18.093  0.00  0.00    +0.000 A 
ATOM      7  C   UNL     1       2.526   8.511  17.661  0.00  0.00    +0.000 A 
ATOM      8  C   UNL     1       2.778   7.415  18.489  0.00  0.00    +0.000 A 
ATOM      9  C   UNL     1       2.189   7.388  19.752  0.00  0.00    +0.000 A 
ATOM     10  C   UNL     1       1.373   8.452  20.173  0.00  0.00    +0.000 A 
BRANCH   5  12
ATOM     11  C   UNL     1       0.689  11.461  20.903  0.00  0.00    +0.000 C 
ATOM     12  N   UNL     1       0.294  10.611  19.784  0.00  0.00    +0.000 N 
ATOM     13  C   UNL     1      -1.097  10.650  19.356  0.00  0.00    +0.000 C 
ENDBRANCH   5  12
ENDBRANCH   1   8
BRANCH   3  14
ATOM     14  C   UNL     1       4.717   4.132  18.295  0.00  0.00    +0.000 C 
BRANCH  14  15
ATOM     15  C   UNL     1       3.938   2.963  17.700  0.00  0.00    +0.000 C 
BRANCH  15  16
ATOM     16  C   UNL     1       3.630   1.900  18.751  0.00  0.00    +0.000 C 
BRANCH  16  17
ATOM     17  N   UNL     1       2.675   2.365  19.735  0.00  0.00    +0.000 N 
ATOM     18  C   UNL     1       2.907   2.538  21.068  0.00  0.00    +0.000 A 
ATOM     19  C   UNL     1       1.716   3.000  21.575  0.00  0.00    +0.000 A 
ATOM     20  N   UNL     1       0.769   3.094  20.588  0.00  0.00    +0.000 NA
ATOM     21  C   UNL     1       1.376   2.706  19.488  0.00  0.00    +0.000 A 
ENDBRANCH  16  17
ENDBRANCH  15  16
ENDBRANCH  14  15
ENDBRANCH   3  14
TORSDOF 6
ENDMDL
MODEL 7
REMARK VINA RESULT:      -6.0      2.970      6.151
REMARK  Name = 
REMARK  8 active torsions:
REMARK  status: ('A' for Active; 'I' for Inactive)
REMARK    1  A    between atoms: C_1  and  N_2
REMARK    2  A    between atoms: N_2  and  C_3
REMARK    3  A    between atoms: N_2  and  C_4
REMARK    4  A    between atoms: C_7  and  C_8
REMARK    5  A    between atoms: N_10  and  C_11
REMARK    6  A    between atoms: C_11  and  C_12
REMARK    7  A    between atoms: C_12  and  C_13
REMARK    8  A    between atoms: C_13  and  N_14
REMARK                            x       y       z     vdW  Elec       q    Type
REMARK                         _______ _______ _______ _____ _____    ______ ____
ROOT
ATOM      1  C   UNL     1       4.388   5.571  18.621  0.00  0.00    +0.000 C 
ATOM      2  O   UNL     1       5.091   5.539  19.620  0.00  0.00    +0.000 OA
ATOM      3  N   UNL     1       3.049   5.918  18.670  0.00  0.00    +0.000 N 
ATOM      4  H   UNL     1       2.506   6.001  17.826  0.00  0.00    +0.000 HD
ENDROOT
BRANCH   1   8
ATOM      5  C   UNL     1       6.040   4.770  14.674  0.00  0.00    +0.000 A 
ATOM      6  C   UNL     1       5.588   6.034  15.069  0.00  0.00    +0.000 A 
ATOM      7  C   UNL     1       5.061   6.270  16.346  0.00  0.00    +0.000 A 
ATOM      8  C   UNL     1       4.973   5.240  17.284  0.00  0.00    +0.000 A 
ATOM      9  C   UNL     1       5.428   3.973  16.923  0.00  0.00    +0.000 A 
ATOM     10  C   UNL     1       5.947   3.750  15.636  0.00  0.00    +0.000 A 
BRANCH   5  12
ATOM     11  C   UNL     1       6.111   3.407  12.605  0.00  0.00    +0.000 C 
ATOM     12  N   UNL     1       6.564   4.541  13.406  0.00  0.00    +0.000 N 
ATOM     13  C   UNL     1       7.797   5.206  13.011  0.00  0.00    +0.000 C 
ENDBRANCH   5  12
ENDBRANCH   1   8
BRANCH   3  14
ATOM     14  C   UNL     1       2.419   6.280  19.925  0.00  0.00    +0.000 C 
BRANCH  14  15
ATOM     15  C   UNL     1       1.434   5.216  20.397  0.00  0.00    +0.000 C 
BRANCH  15  16
ATOM     16  C   UNL     1       2.143   4.083  21.135  0.00  0.00    +0.000 C 
BRANCH  16  17
ATOM     17  N   UNL     1       2.663   3.081  20.229  0.00  0.00    +0.000 N 
ATOM     18  C   UNL     1       2.030   2.579  19.129  0.00  0.00    +0.000 A 
ATOM     19  C   UNL     1       2.917   1.677  18.594  0.00  0.00    +0.000 A 
ATOM     20  N   UNL     1       4.059   1.608  19.351  0.00  0.00    +0.000 NA
ATOM     21  C   UNL     1       3.878   2.467  20.329  0.00  0.00    +0.000 A 
ENDBRANCH  16  17
ENDBRANCH  15  16
ENDBRANCH  14  15
ENDBRANCH   3  14
TORSDOF 6
ENDMDL
MODEL 8
REMARK VINA RESULT:      -6.0      2.916      6.139
REMARK  Name = 
REMARK  8 active torsions:
REMARK  status: ('A' for Active; 'I' for Inactive)
REMARK    1  A    between atoms: C_1  and  N_2
REMARK    2  A    between atoms: N_2  and  C_3
REMARK    3  A    between atoms: N_2  and  C_4
REMARK    4  A    between atoms: C_7  and  C_8
REMARK    5  A    between atoms: N_10  and  C_11
REMARK    6  A    between atoms: C_11  and  C_12
REMARK    7  A    between atoms: C_12  and  C_13
REMARK    8  A    between atoms: C_13  and  N_14
REMARK                            x       y       z     vdW  Elec       q    Type
REMARK                         _______ _______ _______ _____ _____    ______ ____
ROOT
ATOM      1  C   UNL     1       4.366   5.676  18.394  0.00  0.00    +0.000 C 
ATOM      2  O   UNL     1       5.080   5.835  19.374  0.00  0.00    +0.000 OA
ATOM      3  N   UNL     1       2.999   5.894  18.433  0.00  0.00    +0.000 N 
ATOM      4  H   UNL     1       2.440   5.820  17.599  0.00  0.00    +0.000 HD
ENDROOT
BRANCH   1   8
ATOM      5  C   UNL     1       6.072   4.587  14.541  0.00  0.00    +0.000 A 
ATOM      6  C   UNL     1       5.688   5.894  14.863  0.00  0.00    +0.000 A 
ATOM      7  C   UNL     1       5.143   6.223  16.111  0.00  0.00    +0.000 A 
ATOM      8  C   UNL     1       4.965   5.247  17.093  0.00  0.00    +0.000 A 
ATOM      9  C   UNL     1       5.351   3.938  16.805  0.00  0.00    +0.000 A 
ATOM     10  C   UNL     1       5.890   3.622  15.547  0.00  0.00    +0.000 A 
BRANCH   5  12
ATOM     11  C   UNL     1       7.659   5.094  12.706  0.00  0.00    +0.000 C 
ATOM     12  N   UNL     1       6.615   4.265  13.301  0.00  0.00    +0.000 N 
ATOM     13  C   UNL     1       5.919   3.322  12.438  0.00  0.00    +0.000 C 
ENDBRANCH   5  12
ENDBRANCH   1   8
BRANCH   3  14
ATOM     14  C   UNL     1       2.350   6.340  19.651  0.00  0.00    +0.000 C 
BRANCH  14  15
ATOM     15  C   UNL     1       1.883   5.170  20.511  0.00  0.00    +0.000 C 
BRANCH  15  16
ATOM     16  C   UNL     1       1.367   4.016  19.656  0.00  0.00    +0.000 C 
BRANCH  16  17
ATOM     17  N   UNL     1       2.385   3.015  19.416  0.00  0.00    +0.000 N 
ATOM     18  C   UNL     1       3.443   2.727  20.229  0.00  0.00    +0.000 A 
ATOM     19  C   UNL     1       4.111   1.711  19.590  0.00  0.00    +0.000 A 
ATOM     20  N   UNL     1       3.495   1.391  18.407  0.00  0.00    +0.000 NA
ATOM     21  C   UNL     1       2.457   2.192  18.329  0.00  0.00    +0.000 A 
ENDBRANCH  16  17
ENDBRANCH  15  16
ENDBRANCH  14  15
ENDBRANCH   3  14
TORSDOF 6
ENDMDL
MODEL 9
REMARK VINA RESULT:      -6.0      2.329      3.849
REMARK  Name = 
REMARK  8 active torsions:
REMARK  status: ('A' for Active; 'I' for Inactive)
REMARK    1  A    between atoms: C_1  and  N_2
REMARK    2  A    between atoms: N_2  and  C_3
REMARK    3  A    between atoms: N_2  and  C_4
REMARK    4  A    between atoms: C_7  and  C_8
REMARK    5  A    between atoms: N_10  and  C_11
REMARK    6  A    between atoms: C_11  and  C_12
REMARK    7  A    between atoms: C_12  and  C_13
REMARK    8  A    between atoms: C_13  and  N_14
REMARK                            x       y       z     vdW  Elec       q    Type
REMARK                         _______ _______ _______ _____ _____    ______ ____
ROOT
ATOM      1  C   UNL     1       3.377   5.728  18.721  0.00  0.00    +0.000 C 
ATOM      2  O   UNL     1       3.967   5.190  19.646  0.00  0.00    +0.000 OA
ATOM      3  N   UNL     1       3.362   5.194  17.444  0.00  0.00    +0.000 N 
ATOM      4  H   UNL     1       2.815   5.619  16.713  0.00  0.00    +0.000 HD
ENDROOT
BRANCH   1   8
ATOM      5  C   UNL     1       1.135   9.365  19.552  0.00  0.00    +0.000 A 
ATOM      6  C   UNL     1       1.348   8.366  20.509  0.00  0.00    +0.000 A 
ATOM      7  C   UNL     1       2.076   7.203  20.220  0.00  0.00    +0.000 A 
ATOM      8  C   UNL     1       2.625   7.000  18.953  0.00  0.00    +0.000 A 
ATOM      9  C   UNL     1       2.439   7.985  17.984  0.00  0.00    +0.000 A 
ATOM     10  C   UNL     1       1.702   9.143  18.286  0.00  0.00    +0.000 A 
BRANCH   5  12
ATOM     11  C   UNL     1       0.268  11.579  18.851  0.00  0.00    +0.000 C 
ATOM     12  N   UNL     1       0.414  10.519  19.844  0.00  0.00    +0.000 N 
ATOM     13  C   UNL     1       0.101  10.835  21.230  0.00  0.00    +0.000 C 
ENDBRANCH   5  12
ENDBRANCH   1   8
BRANCH   3  14
ATOM     14  C   UNL     1       4.043   3.948  17.149  0.00  0.00    +0.000 C 
BRANCH  14  15
ATOM     15  C   UNL     1       5.064   4.107  16.028  0.00  0.00    +0.000 C 
BRANCH  15  16
ATOM     16  C   UNL     1       5.717   5.486  16.054  0.00  0.00    +0.000 C 
BRANCH  16  17
ATOM     17  N   UNL     1       6.650   5.629  17.152  0.00  0.00    +0.000 N 
ATOM     18  C   UNL     1       7.042   6.800  17.733  0.00  0.00    +0.000 A 
ATOM     19  C   UNL     1       7.917   6.424  18.725  0.00  0.00    +0.000 A 
ATOM     20  N   UNL     1       8.075   5.062  18.745  0.00  0.00    +0.000 NA
ATOM     21  C   UNL     1       7.298   4.608  17.787  0.00  0.00    +0.000 A 
ENDBRANCH  16  17
ENDBRANCH  15  16
ENDBRANCH  14  15
ENDBRANCH   3  14
TORSDOF 6
ENDMDL
