MODEL 1
REMARK VINA RESULT:      -7.1      0.000      0.000
REMARK  Name = 
REMARK  11 active torsions:
REMARK  status: ('A' for Active; 'I' for Inactive)
REMARK    1  A    between atoms: C_1  and  C_2
REMARK    2  A    between atoms: C_2  and  O_3
REMARK    3  A    between atoms: O_3  and  C_4
REMARK    4  A    between atoms: C_4  and  C_6
REMARK    5  A    between atoms: C_7  and  N_8
REMARK    6  A    between atoms: C_9  and  C_11
REMARK    7  A    between atoms: C_11  and  S_12
REMARK    8  A    between atoms: S_12  and  C_13
REMARK    9  A    between atoms: C_16  and  C_17
REMARK   10  A    between atoms: C_24  and  C_25
REMARK   11  A    between atoms: C_26  and  C_27
REMARK                            x       y       z     vdW  Elec       q    Type
REMARK                         _______ _______ _______ _____ _____    ______ ____
ROOT
ATOM      1  N   UNL     1       6.452   7.870  17.049  0.00  0.00    +0.000 N 
ATOM      2  C   UNL     1       7.644   8.005  17.762  0.00  0.00    +0.000 C 
ATOM      3  O   UNL     1       8.114   7.209  18.570  0.00  0.00    +0.000 OA
ATOM      4  H   UNL     1       6.192   8.597  16.389  0.00  0.00    +0.000 HD
ENDROOT
BRANCH   1   6
ATOM      5  C   UNL     1       5.728   5.486  16.648  0.00  0.00    +0.000 A 
ATOM      6  C   UNL     1       5.566   6.790  17.119  0.00  0.00    +0.000 A 
ATOM      7  S   UNL     1       4.061   6.988  17.881  0.00  0.00    +0.000 S 
ATOM      8  C   UNL     1       3.576   5.392  17.595  0.00  0.00    +0.000 A 
ATOM      9  C   UNL     1       2.217   4.955  18.033  0.00  0.00    +0.000 C 
ATOM     10  C   UNL     1       4.560   4.660  16.957  0.00  0.00    +0.000 A 
ATOM     11  C   UNL     1       4.435   3.200  16.626  0.00  0.00    +0.000 C 
BRANCH   5  12
ATOM     12  C   UNL     1       6.921   4.957  15.968  0.00  0.00    +0.000 C 
ATOM     13  O   UNL     1       7.847   4.416  16.558  0.00  0.00    +0.000 OA
BRANCH  12  14
ATOM     14  O   UNL     1       6.931   5.211  14.623  0.00  0.00    +0.000 OA
BRANCH  14  16
ATOM     15  C   UNL     1       7.087   4.228  12.462  0.00  0.00    +0.000 C 
ATOM     16  C   UNL     1       6.435   4.123  13.830  0.00  0.00    +0.000 C 
ENDBRANCH  14  16
ENDBRANCH  12  14
ENDBRANCH   5  12
ENDBRANCH   1   6
BRANCH   2  17
ATOM     17  C   UNL     1       8.394   9.304  17.482  0.00  0.00    +0.000 C 
BRANCH  17  18
ATOM     18  S   UNL     1       9.104   9.994  19.012  0.00  0.00    +0.000 S 
BRANCH  18  19
ATOM     19  C   UNL     1       9.845  11.432  18.388  0.00  0.00    +0.000 A 
ATOM     20  N   UNL     1      11.042  11.467  17.842  0.00  0.00    +0.000 NA
ATOM     21  N   UNL     1      11.288  12.785  17.522  0.00  0.00    +0.000 NA
ATOM     22  C   UNL     1      10.223  13.477  17.895  0.00  0.00    +0.000 A 
ATOM     23  O   UNL     1       9.250  12.661  18.425  0.00  0.00    +0.000 OA
BRANCH  22  24
ATOM     24  C   UNL     1      10.105  14.898  17.784  0.00  0.00    +0.000 A 
ATOM     25  C   UNL     1       9.215  15.747  18.427  0.00  0.00    +0.000 A 
ATOM     26  C   UNL     1       9.470  17.061  17.963  0.00  0.00    +0.000 A 
ATOM     27  C   UNL     1      10.502  16.949  17.065  0.00  0.00    +0.000 A 
ATOM     28  O   UNL     1      10.895  15.655  16.951  0.00  0.00    +0.000 OA
ENDBRANCH  22  24
ENDBRANCH  18  19
ENDBRANCH  17  18
ENDBRANCH   2  17
TORSDOF 8
ENDMDL
MODEL 2
REMARK VINA RESULT:      -7.0      6.796      9.129
REMARK  Name = 
REMARK  11 active torsions:
REMARK  status: ('A' for Active; 'I' for Inactive)
REMARK    1  A    between atoms: C_1  and  C_2
REMARK    2  A    between atoms: C_2  and  O_3
REMARK    3  A    between atoms: O_3  and  C_4
REMARK    4  A    between atoms: C_4  and  C_6
REMARK    5  A    between atoms: C_7  and  N_8
REMARK    6  A    between atoms: C_9  and  C_11
REMARK    7  A    between atoms: C_11  and  S_12
REMARK    8  A    between atoms: S_12  and  C_13
REMARK    9  A    between atoms: C_16  and  C_17
REMARK   10  A    between atoms: C_24  and  C_25
REMARK   11  A    between atoms: C_26  and  C_27
REMARK                            x       y       z     vdW  Elec       q    Type
REMARK                         _______ _______ _______ _____ _____    ______ ____
ROOT
ATOM      1  N   UNL     1       2.491   7.407  18.848  0.00  0.00    +0.000 N 
ATOM      2  C   UNL     1       2.007   8.601  18.310  0.00  0.00    +0.000 C 
ATOM      3  O   UNL     1       2.195   9.028  17.175  0.00  0.00    +0.000 OA
ATOM      4  H   UNL     1       2.237   7.162  19.801  0.00  0.00    +0.000 HD
ENDROOT
BRANCH   1   6
ATOM      5  C   UNL     1       3.030   5.112  17.950  0.00  0.00    +0.000 A 
ATOM      6  C   UNL     1       3.283   6.464  18.185  0.00  0.00    +0.000 A 
ATOM      7  S   UNL     1       4.773   6.937  17.521  0.00  0.00    +0.000 S 
ATOM      8  C   UNL     1       5.135   5.392  16.935  0.00  0.00    +0.000 A 
ATOM      9  C   UNL     1       6.438   5.163  16.243  0.00  0.00    +0.000 C 
ATOM     10  C   UNL     1       4.116   4.493  17.188  0.00  0.00    +0.000 A 
ATOM     11  C   UNL     1       4.131   3.061  16.733  0.00  0.00    +0.000 C 
BRANCH   5  12
ATOM     12  C   UNL     1       1.821   4.378  18.354  0.00  0.00    +0.000 C 
ATOM     13  O   UNL     1       1.022   3.906  17.556  0.00  0.00    +0.000 OA
BRANCH  12  14
ATOM     14  O   UNL     1       1.633   4.354  19.710  0.00  0.00    +0.000 OA
BRANCH  14  16
ATOM     15  C   UNL     1       1.697   2.891  21.585  0.00  0.00    +0.000 C 
ATOM     16  C   UNL     1       2.476   3.413  20.390  0.00  0.00    +0.000 C 
ENDBRANCH  14  16
ENDBRANCH  12  14
ENDBRANCH   5  12
ENDBRANCH   1   6
BRANCH   2  17
ATOM     17  C   UNL     1       1.177   9.431  19.284  0.00  0.00    +0.000 C 
BRANCH  17  18
ATOM     18  S   UNL     1       1.108   8.644  20.926  0.00  0.00    +0.000 S 
BRANCH  18  19
ATOM     19  C   UNL     1       0.207   9.836  21.804  0.00  0.00    +0.000 A 
ATOM     20  N   UNL     1       0.222   9.954  23.115  0.00  0.00    +0.000 NA
ATOM     21  N   UNL     1      -0.652  10.973  23.426  0.00  0.00    +0.000 NA
ATOM     22  C   UNL     1      -1.151  11.416  22.282  0.00  0.00    +0.000 A 
ATOM     23  O   UNL     1      -0.612  10.750  21.205  0.00  0.00    +0.000 OA
BRANCH  22  24
ATOM     24  C   UNL     1      -2.142  12.442  22.178  0.00  0.00    +0.000 A 
ATOM     25  C   UNL     1      -3.084  12.639  21.178  0.00  0.00    +0.000 A 
ATOM     26  C   UNL     1      -3.815  13.807  21.507  0.00  0.00    +0.000 A 
ATOM     27  C   UNL     1      -3.286  14.261  22.689  0.00  0.00    +0.000 A 
ATOM     28  O   UNL     1      -2.282  13.447  23.105  0.00  0.00    +0.000 OA
ENDBRANCH  22  24
ENDBRANCH  18  19
ENDBRANCH  17  18
ENDBRANCH   2  17
TORSDOF 8
ENDMDL
MODEL 3
REMARK VINA RESULT:      -6.9      6.856      8.767
REMARK  Name = 
REMARK  11 active torsions:
REMARK  status: ('A' for Active; 'I' for Inactive)
REMARK    1  A    between atoms: C_1  and  C_2
REMARK    2  A    between atoms: C_2  and  O_3
REMARK    3  A    between atoms: O_3  and  C_4
REMARK    4  A    between atoms: C_4  and  C_6
REMARK    5  A    between atoms: C_7  and  N_8
REMARK    6  A    between atoms: C_9  and  C_11
REMARK    7  A    between atoms: C_11  and  S_12
REMARK    8  A    between atoms: S_12  and  C_13
REMARK    9  A    between atoms: C_16  and  C_17
REMARK   10  A    between atoms: C_24  and  C_25
REMARK   11  A    between atoms: C_26  and  C_27
REMARK                            x       y       z     vdW  Elec       q    Type
REMARK                         _______ _______ _______ _____ _____    ______ ____
ROOT
ATOM      1  N   UNL     1       2.508   7.462  18.952  0.00  0.00    +0.000 N 
ATOM      2  C   UNL     1       1.905   8.596  18.404  0.00  0.00    +0.000 C 
ATOM      3  O   UNL     1       1.941   8.957  17.232  0.00  0.00    +0.000 OA
ATOM      4  H   UNL     1       2.376   7.267  19.940  0.00  0.00    +0.000 HD
ENDROOT
BRANCH   1   6
ATOM      5  C   UNL     1       3.020   5.154  18.070  0.00  0.00    +0.000 A 
ATOM      6  C   UNL     1       3.268   6.514  18.258  0.00  0.00    +0.000 A 
ATOM      7  S   UNL     1       4.702   6.993  17.483  0.00  0.00    +0.000 S 
ATOM      8  C   UNL     1       5.047   5.440  16.909  0.00  0.00    +0.000 A 
ATOM      9  C   UNL     1       6.303   5.213  16.135  0.00  0.00    +0.000 C 
ATOM     10  C   UNL     1       4.062   4.533  17.250  0.00  0.00    +0.000 A 
ATOM     11  C   UNL     1       4.069   3.091  16.828  0.00  0.00    +0.000 C 
BRANCH   5  12
ATOM     12  C   UNL     1       1.853   4.413  18.573  0.00  0.00    +0.000 C 
ATOM     13  O   UNL     1       1.110   3.759  17.853  0.00  0.00    +0.000 OA
BRANCH  12  14
ATOM     14  O   UNL     1       1.630   4.601  19.910  0.00  0.00    +0.000 OA
BRANCH  14  16
ATOM     15  C   UNL     1       2.157   2.997  21.586  0.00  0.00    +0.000 C 
ATOM     16  C   UNL     1       1.114   3.440  20.576  0.00  0.00    +0.000 C 
ENDBRANCH  14  16
ENDBRANCH  12  14
ENDBRANCH   5  12
ENDBRANCH   1   6
BRANCH   2  17
ATOM     17  C   UNL     1       1.148   9.449  19.418  0.00  0.00    +0.000 C 
BRANCH  17  18
ATOM     18  S   UNL     1       1.221   8.711  21.082  0.00  0.00    +0.000 S 
BRANCH  18  19
ATOM     19  C   UNL     1       0.262   9.850  21.969  0.00  0.00    +0.000 A 
ATOM     20  N   UNL     1      -0.617   9.516  22.890  0.00  0.00    +0.000 NA
ATOM     21  N   UNL     1      -1.200  10.689  23.319  0.00  0.00    +0.000 NA
ATOM     22  C   UNL     1      -0.640  11.671  22.630  0.00  0.00    +0.000 A 
ATOM     23  O   UNL     1       0.329  11.201  21.774  0.00  0.00    +0.000 OA
BRANCH  22  24
ATOM     24  C   UNL     1      -1.012  13.048  22.744  0.00  0.00    +0.000 A 
ATOM     25  C   UNL     1      -2.283  13.600  22.813  0.00  0.00    +0.000 A 
ATOM     26  C   UNL     1      -2.133  15.006  22.884  0.00  0.00    +0.000 A 
ATOM     27  C   UNL     1      -0.781  15.242  22.857  0.00  0.00    +0.000 A 
ATOM     28  O   UNL     1      -0.096  14.073  22.777  0.00  0.00    +0.000 OA
ENDBRANCH  22  24
ENDBRANCH  18  19
ENDBRANCH  17  18
ENDBRANCH   2  17
TORSDOF 8
ENDMDL
MODEL 4
REMARK VINA RESULT:      -6.9      5.175      6.668
REMARK  Name = 
REMARK  11 active torsions:
REMARK  status: ('A' for Active; 'I' for Inactive)
REMARK    1  A    between atoms: C_1  and  C_2
REMARK    2  A    between atoms: C_2  and  O_3
REMARK    3  A    between atoms: O_3  and  C_4
REMARK    4  A    between atoms: C_4  and  C_6
REMARK    5  A    between atoms: C_7  and  N_8
REMARK    6  A    between atoms: C_9  and  C_11
REMARK    7  A    between atoms: C_11  and  S_12
REMARK    8  A    between atoms: S_12  and  C_13
REMARK    9  A    between atoms: C_16  and  C_17
REMARK   10  A    between atoms: C_24  and  C_25
REMARK   11  A    between atoms: C_26  and  C_27
REMARK                            x       y       z     vdW  Elec       q    Type
REMARK                         _______ _______ _______ _____ _____    ______ ____
ROOT
ATOM      1  N   UNL     1       2.676   7.642  17.600  0.00  0.00    +0.000 N 
ATOM      2  C   UNL     1       2.031   8.302  18.648  0.00  0.00    +0.000 C 
ATOM      3  O   UNL     1       2.097   8.031  19.843  0.00  0.00    +0.000 OA
ATOM      4  H   UNL     1       2.553   7.990  16.653  0.00  0.00    +0.000 HD
ENDROOT
BRANCH   1   6
ATOM      5  C   UNL     1       3.224   5.218  18.036  0.00  0.00    +0.000 A 
ATOM      6  C   UNL     1       3.532   6.542  17.720  0.00  0.00    +0.000 A 
ATOM      7  S   UNL     1       5.196   6.741  17.441  0.00  0.00    +0.000 S 
ATOM      8  C   UNL     1       5.558   5.117  17.750  0.00  0.00    +0.000 A 
ATOM      9  C   UNL     1       6.981   4.667  17.697  0.00  0.00    +0.000 C 
ATOM     10  C   UNL     1       4.423   4.378  18.025  0.00  0.00    +0.000 A 
ATOM     11  C   UNL     1       4.430   2.898  18.281  0.00  0.00    +0.000 C 
BRANCH   5  12
ATOM     12  C   UNL     1       1.880   4.685  18.304  0.00  0.00    +0.000 C 
ATOM     13  O   UNL     1       1.150   4.230  17.433  0.00  0.00    +0.000 OA
BRANCH  12  14
ATOM     14  O   UNL     1       1.493   4.831  19.609  0.00  0.00    +0.000 OA
BRANCH  14  16
ATOM     15  C   UNL     1       1.983   3.151  21.220  0.00  0.00    +0.000 C 
ATOM     16  C   UNL     1       0.972   3.628  20.192  0.00  0.00    +0.000 C 
ENDBRANCH  14  16
ENDBRANCH  12  14
ENDBRANCH   5  12
ENDBRANCH   1   6
BRANCH   2  17
ATOM     17  C   UNL     1       1.150   9.465  18.202  0.00  0.00    +0.000 C 
BRANCH  17  18
ATOM     18  S   UNL     1       0.179  10.125  19.596  0.00  0.00    +0.000 S 
BRANCH  18  19
ATOM     19  C   UNL     1       1.102  11.544  19.972  0.00  0.00    +0.000 A 
ATOM     20  N   UNL     1       1.256  12.024  21.188  0.00  0.00    +0.000 NA
ATOM     21  N   UNL     1       2.004  13.174  21.063  0.00  0.00    +0.000 NA
ATOM     22  C   UNL     1       2.262  13.328  19.774  0.00  0.00    +0.000 A 
ATOM     23  O   UNL     1       1.740  12.297  19.027  0.00  0.00    +0.000 OA
BRANCH  22  24
ATOM     24  C   UNL     1       2.974  14.439  19.221  0.00  0.00    +0.000 A 
ATOM     25  C   UNL     1       2.501  15.442  18.386  0.00  0.00    +0.000 A 
ATOM     26  C   UNL     1       3.593  16.293  18.085  0.00  0.00    +0.000 A 
ATOM     27  C   UNL     1       4.672  15.770  18.752  0.00  0.00    +0.000 A 
ATOM     28  O   UNL     1       4.312  14.659  19.442  0.00  0.00    +0.000 OA
ENDBRANCH  22  24
ENDBRANCH  18  19
ENDBRANCH  17  18
ENDBRANCH   2  17
TORSDOF 8
ENDMDL
MODEL 5
REMARK VINA RESULT:      -6.8      7.013      9.277
REMARK  Name = 
REMARK  11 active torsions:
REMARK  status: ('A' for Active; 'I' for Inactive)
REMARK    1  A    between atoms: C_1  and  C_2
REMARK    2  A    between atoms: C_2  and  O_3
REMARK    3  A    between atoms: O_3  and  C_4
REMARK    4  A    between atoms: C_4  and  C_6
REMARK    5  A    between atoms: C_7  and  N_8
REMARK    6  A    between atoms: C_9  and  C_11
REMARK    7  A    between atoms: C_11  and  S_12
REMARK    8  A    between atoms: S_12  and  C_13
REMARK    9  A    between atoms: C_16  and  C_17
REMARK   10  A    between atoms: C_24  and  C_25
REMARK   11  A    between atoms: C_26  and  C_27
REMARK                            x       y       z     vdW  Elec       q    Type
REMARK                         _______ _______ _______ _____ _____    ______ ____
ROOT
ATOM      1  N   UNL     1       2.355   7.561  17.914  0.00  0.00    +0.000 N 
ATOM      2  C   UNL     1       1.838   8.205  19.040  0.00  0.00    +0.000 C 
ATOM      3  O   UNL     1       2.065   7.931  20.215  0.00  0.00    +0.000 OA
ATOM      4  H   UNL     1       2.103   7.909  16.993  0.00  0.00    +0.000 HD
ENDROOT
BRANCH   1   6
ATOM      5  C   UNL     1       2.976   5.123  18.110  0.00  0.00    +0.000 A 
ATOM      6  C   UNL     1       3.242   6.480  17.916  0.00  0.00    +0.000 A 
ATOM      7  S   UNL     1       4.895   6.751  17.632  0.00  0.00    +0.000 S 
ATOM      8  C   UNL     1       5.307   5.116  17.779  0.00  0.00    +0.000 A 
ATOM      9  C   UNL     1       6.739   4.714  17.661  0.00  0.00    +0.000 C 
ATOM     10  C   UNL     1       4.197   4.322  18.001  0.00  0.00    +0.000 A 
ATOM     11  C   UNL     1       4.248   2.826  18.115  0.00  0.00    +0.000 C 
BRANCH   5  12
ATOM     12  C   UNL     1       1.652   4.529  18.347  0.00  0.00    +0.000 C 
ATOM     13  O   UNL     1       0.931   4.112  17.449  0.00  0.00    +0.000 OA
BRANCH  12  14
ATOM     14  O   UNL     1       1.269   4.573  19.660  0.00  0.00    +0.000 OA
BRANCH  14  16
ATOM     15  C   UNL     1       1.999   3.317  21.544  0.00  0.00    +0.000 C 
ATOM     16  C   UNL     1       1.169   3.279  20.273  0.00  0.00    +0.000 C 
ENDBRANCH  14  16
ENDBRANCH  12  14
ENDBRANCH   5  12
ENDBRANCH   1   6
BRANCH   2  17
ATOM     17  C   UNL     1       0.882   9.349  18.719  0.00  0.00    +0.000 C 
BRANCH  17  18
ATOM     18  S   UNL     1       1.523  10.936  19.345  0.00  0.00    +0.000 S 
BRANCH  18  19
ATOM     19  C   UNL     1       0.493  11.166  20.720  0.00  0.00    +0.000 A 
ATOM     20  N   UNL     1       0.756  10.707  21.925  0.00  0.00    +0.000 NA
ATOM     21  N   UNL     1      -0.317  11.051  22.718  0.00  0.00    +0.000 NA
ATOM     22  C   UNL     1      -1.174  11.700  21.946  0.00  0.00    +0.000 A 
ATOM     23  O   UNL     1      -0.696  11.836  20.663  0.00  0.00    +0.000 OA
BRANCH  22  24
ATOM     24  C   UNL     1      -2.449  12.181  22.384  0.00  0.00    +0.000 A 
ATOM     25  C   UNL     1      -2.906  12.366  23.681  0.00  0.00    +0.000 A 
ATOM     26  C   UNL     1      -4.243  12.827  23.598  0.00  0.00    +0.000 A 
ATOM     27  C   UNL     1      -4.532  12.903  22.259  0.00  0.00    +0.000 A 
ATOM     28  O   UNL     1      -3.461  12.520  21.518  0.00  0.00    +0.000 OA
ENDBRANCH  22  24
ENDBRANCH  18  19
ENDBRANCH  17  18
ENDBRANCH   2  17
TORSDOF 8
ENDMDL
MODEL 6
REMARK VINA RESULT:      -6.8      6.751      9.317
REMARK  Name = 
REMARK  11 active torsions:
REMARK  status: ('A' for Active; 'I' for Inactive)
REMARK    1  A    between atoms: C_1  and  C_2
REMARK    2  A    between atoms: C_2  and  O_3
REMARK    3  A    between atoms: O_3  and  C_4
REMARK    4  A    between atoms: C_4  and  C_6
REMARK    5  A    between atoms: C_7  and  N_8
REMARK    6  A    between atoms: C_9  and  C_11
REMARK    7  A    between atoms: C_11  and  S_12
REMARK    8  A    between atoms: S_12  and  C_13
REMARK    9  A    between atoms: C_16  and  C_17
REMARK   10  A    between atoms: C_24  and  C_25
REMARK   11  A    between atoms: C_26  and  C_27
REMARK                            x       y       z     vdW  Elec       q    Type
REMARK                         _______ _______ _______ _____ _____    ______ ____
ROOT
ATOM      1  N   UNL     1       2.307   6.791  18.371  0.00  0.00    +0.000 N 
ATOM      2  C   UNL     1       2.014   7.999  19.005  0.00  0.00    +0.000 C 
ATOM      3  O   UNL     1       1.911   8.193  20.213  0.00  0.00    +0.000 OA
ATOM      4  H   UNL     1       2.388   6.777  17.359  0.00  0.00    +0.000 HD
ENDROOT
BRANCH   1   6
ATOM      5  C   UNL     1       3.469   4.571  18.670  0.00  0.00    +0.000 A 
ATOM      6  C   UNL     1       2.547   5.565  19.001  0.00  0.00    +0.000 A 
ATOM      7  S   UNL     1       1.654   5.144  20.384  0.00  0.00    +0.000 S 
ATOM      8  C   UNL     1       2.427   3.650  20.569  0.00  0.00    +0.000 A 
ATOM      9  C   UNL     1       2.000   2.743  21.675  0.00  0.00    +0.000 C 
ATOM     10  C   UNL     1       3.410   3.455  19.616  0.00  0.00    +0.000 A 
ATOM     11  C   UNL     1       4.300   2.247  19.567  0.00  0.00    +0.000 C 
BRANCH   5  12
ATOM     12  C   UNL     1       4.426   4.619  17.554  0.00  0.00    +0.000 C 
ATOM     13  O   UNL     1       4.441   3.800  16.644  0.00  0.00    +0.000 OA
BRANCH  12  14
ATOM     14  O   UNL     1       5.353   5.618  17.682  0.00  0.00    +0.000 OA
BRANCH  14  16
ATOM     15  C   UNL     1       7.546   4.702  17.771  0.00  0.00    +0.000 C 
ATOM     16  C   UNL     1       6.417   5.301  18.591  0.00  0.00    +0.000 C 
ENDBRANCH  14  16
ENDBRANCH  12  14
ENDBRANCH   5  12
ENDBRANCH   1   6
BRANCH   2  17
ATOM     17  C   UNL     1       1.790   9.166  18.048  0.00  0.00    +0.000 C 
BRANCH  17  18
ATOM     18  S   UNL     1       1.071  10.598  18.916  0.00  0.00    +0.000 S 
BRANCH  18  19
ATOM     19  C   UNL     1      -0.562  10.523  18.336  0.00  0.00    +0.000 A 
ATOM     20  N   UNL     1      -0.964   9.732  17.364  0.00  0.00    +0.000 NA
ATOM     21  N   UNL     1      -2.301  10.002  17.168  0.00  0.00    +0.000 NA
ATOM     22  C   UNL     1      -2.635  10.946  18.035  0.00  0.00    +0.000 A 
ATOM     23  O   UNL     1      -1.572  11.296  18.835  0.00  0.00    +0.000 OA
BRANCH  22  24
ATOM     24  C   UNL     1      -3.932  11.543  18.116  0.00  0.00    +0.000 A 
ATOM     25  C   UNL     1      -4.526  12.181  19.196  0.00  0.00    +0.000 A 
ATOM     26  C   UNL     1      -5.827  12.573  18.795  0.00  0.00    +0.000 A 
ATOM     27  C   UNL     1      -5.960  12.158  17.494  0.00  0.00    +0.000 A 
ATOM     28  O   UNL     1      -4.827  11.541  17.073  0.00  0.00    +0.000 OA
ENDBRANCH  22  24
ENDBRANCH  18  19
ENDBRANCH  17  18
ENDBRANCH   2  17
TORSDOF 8
ENDMDL
MODEL 7
REMARK VINA RESULT:      -6.8      7.193      9.527
REMARK  Name = 
REMARK  11 active torsions:
REMARK  status: ('A' for Active; 'I' for Inactive)
REMARK    1  A    between atoms: C_1  and  C_2
REMARK    2  A    between atoms: C_2  and  O_3
REMARK    3  A    between atoms: O_3  and  C_4
REMARK    4  A    between atoms: C_4  and  C_6
REMARK    5  A    between atoms: C_7  and  N_8
REMARK    6  A    between atoms: C_9  and  C_11
REMARK    7  A    between atoms: C_11  and  S_12
REMARK    8  A    between atoms: S_12  and  C_13
REMARK    9  A    between atoms: C_16  and  C_17
REMARK   10  A    between atoms: C_24  and  C_25
REMARK   11  A    between atoms: C_26  and  C_27
REMARK                            x       y       z     vdW  Elec       q    Type
REMARK                         _______ _______ _______ _____ _____    ______ ____
ROOT
ATOM      1  N   UNL     1       2.355   7.378  19.000  0.00  0.00    +0.000 N 
ATOM      2  C   UNL     1       1.856   8.626  18.626  0.00  0.00    +0.000 C 
ATOM      3  O   UNL     1       2.030   9.198  17.554  0.00  0.00    +0.000 OA
ATOM      4  H   UNL     1       2.111   7.008  19.915  0.00  0.00    +0.000 HD
ENDROOT
BRANCH   1   6
ATOM      5  C   UNL     1       2.967   5.184  17.915  0.00  0.00    +0.000 A 
ATOM      6  C   UNL     1       3.147   6.535  18.214  0.00  0.00    +0.000 A 
ATOM      7  S   UNL     1       4.536   7.155  17.458  0.00  0.00    +0.000 S 
ATOM      8  C   UNL     1       4.949   5.676  16.745  0.00  0.00    +0.000 A 
ATOM      9  C   UNL     1       6.197   5.584  15.932  0.00  0.00    +0.000 C 
ATOM     10  C   UNL     1       4.020   4.692  17.025  0.00  0.00    +0.000 A 
ATOM     11  C   UNL     1       4.093   3.294  16.480  0.00  0.00    +0.000 C 
BRANCH   5  12
ATOM     12  C   UNL     1       1.851   4.340  18.372  0.00  0.00    +0.000 C 
ATOM     13  O   UNL     1       1.048   3.816  17.612  0.00  0.00    +0.000 OA
BRANCH  12  14
ATOM     14  O   UNL     1       1.750   4.275  19.736  0.00  0.00    +0.000 OA
BRANCH  14  16
ATOM     15  C   UNL     1       1.522   2.737  21.536  0.00  0.00    +0.000 C 
ATOM     16  C   UNL     1       2.327   3.088  20.298  0.00  0.00    +0.000 C 
ENDBRANCH  14  16
ENDBRANCH  12  14
ENDBRANCH   5  12
ENDBRANCH   1   6
BRANCH   2  17
ATOM     17  C   UNL     1       1.029   9.316  19.706  0.00  0.00    +0.000 C 
BRANCH  17  18
ATOM     18  S   UNL     1       0.276  10.851  19.076  0.00  0.00    +0.000 S 
BRANCH  18  19
ATOM     19  C   UNL     1      -0.312  11.538  20.555  0.00  0.00    +0.000 A 
ATOM     20  N   UNL     1       0.455  11.864  21.574  0.00  0.00    +0.000 NA
ATOM     21  N   UNL     1      -0.384  12.325  22.565  0.00  0.00    +0.000 NA
ATOM     22  C   UNL     1      -1.618  12.251  22.090  0.00  0.00    +0.000 A 
ATOM     23  O   UNL     1      -1.634  11.787  20.794  0.00  0.00    +0.000 OA
BRANCH  22  24
ATOM     24  C   UNL     1      -2.791  12.589  22.836  0.00  0.00    +0.000 A 
ATOM     25  C   UNL     1      -3.605  13.706  22.711  0.00  0.00    +0.000 A 
ATOM     26  C   UNL     1      -4.619  13.604  23.696  0.00  0.00    +0.000 A 
ATOM     27  C   UNL     1      -4.374  12.433  24.368  0.00  0.00    +0.000 A 
ATOM     28  O   UNL     1      -3.280  11.811  23.858  0.00  0.00    +0.000 OA
ENDBRANCH  22  24
ENDBRANCH  18  19
ENDBRANCH  17  18
ENDBRANCH   2  17
TORSDOF 8
ENDMDL
MODEL 8
REMARK VINA RESULT:      -6.7      7.109      9.412
REMARK  Name = 
REMARK  11 active torsions:
REMARK  status: ('A' for Active; 'I' for Inactive)
REMARK    1  A    between atoms: C_1  and  C_2
REMARK    2  A    between atoms: C_2  and  O_3
REMARK    3  A    between atoms: O_3  and  C_4
REMARK    4  A    between atoms: C_4  and  C_6
REMARK    5  A    between atoms: C_7  and  N_8
REMARK    6  A    between atoms: C_9  and  C_11
REMARK    7  A    between atoms: C_11  and  S_12
REMARK    8  A    between atoms: S_12  and  C_13
REMARK    9  A    between atoms: C_16  and  C_17
REMARK   10  A    between atoms: C_24  and  C_25
REMARK   11  A    between atoms: C_26  and  C_27
REMARK                            x       y       z     vdW  Elec       q    Type
REMARK                         _______ _______ _______ _____ _____    ______ ____
ROOT
ATOM      1  N   UNL     1       2.585   7.385  18.373  0.00  0.00    +0.000 N 
ATOM      2  C   UNL     1       2.062   7.633  19.643  0.00  0.00    +0.000 C 
ATOM      3  O   UNL     1       2.196   6.936  20.645  0.00  0.00    +0.000 OA
ATOM      4  H   UNL     1       2.418   8.062  17.634  0.00  0.00    +0.000 HD
ENDROOT
BRANCH   1   6
ATOM      5  C   UNL     1       3.009   4.948  17.869  0.00  0.00    +0.000 A 
ATOM      6  C   UNL     1       3.373   6.289  18.004  0.00  0.00    +0.000 A 
ATOM      7  S   UNL     1       5.013   6.524  17.628  0.00  0.00    +0.000 S 
ATOM      8  C   UNL     1       5.294   4.887  17.307  0.00  0.00    +0.000 A 
ATOM      9  C   UNL     1       6.671   4.443  16.941  0.00  0.00    +0.000 C 
ATOM     10  C   UNL     1       4.142   4.132  17.431  0.00  0.00    +0.000 A 
ATOM     11  C   UNL     1       4.074   2.658  17.150  0.00  0.00    +0.000 C 
BRANCH   5  12
ATOM     12  C   UNL     1       1.663   4.395  18.082  0.00  0.00    +0.000 C 
ATOM     13  O   UNL     1       0.859   4.212  17.176  0.00  0.00    +0.000 OA
BRANCH  12  14
ATOM     14  O   UNL     1       1.367   4.190  19.403  0.00  0.00    +0.000 OA
BRANCH  14  16
ATOM     15  C   UNL     1       1.459   2.777  21.314  0.00  0.00    +0.000 C 
ATOM     16  C   UNL     1       1.423   2.812  19.797  0.00  0.00    +0.000 C 
ENDBRANCH  14  16
ENDBRANCH  12  14
ENDBRANCH   5  12
ENDBRANCH   1   6
BRANCH   2  17
ATOM     17  C   UNL     1       1.230   8.908  19.735  0.00  0.00    +0.000 C 
BRANCH  17  18
ATOM     18  S   UNL     1       1.430   9.932  18.241  0.00  0.00    +0.000 S 
BRANCH  18  19
ATOM     19  C   UNL     1       0.025  10.939  18.366  0.00  0.00    +0.000 A 
ATOM     20  N   UNL     1       0.042  12.179  18.809  0.00  0.00    +0.000 NA
ATOM     21  N   UNL     1      -1.265  12.616  18.801  0.00  0.00    +0.000 NA
ATOM     22  C   UNL     1      -2.004  11.612  18.353  0.00  0.00    +0.000 A 
ATOM     23  O   UNL     1      -1.231  10.523  18.024  0.00  0.00    +0.000 OA
BRANCH  22  24
ATOM     24  C   UNL     1      -3.430  11.647  18.245  0.00  0.00    +0.000 A 
ATOM     25  C   UNL     1      -4.222  11.371  17.139  0.00  0.00    +0.000 A 
ATOM     26  C   UNL     1      -5.570  11.577  17.521  0.00  0.00    +0.000 A 
ATOM     27  C   UNL     1      -5.534  11.963  18.838  0.00  0.00    +0.000 A 
ATOM     28  O   UNL     1      -4.253  12.006  19.285  0.00  0.00    +0.000 OA
ENDBRANCH  22  24
ENDBRANCH  18  19
ENDBRANCH  17  18
ENDBRANCH   2  17
TORSDOF 8
ENDMDL
MODEL 9
REMARK VINA RESULT:      -6.7      2.812     10.136
REMARK  Name = 
REMARK  11 active torsions:
REMARK  status: ('A' for Active; 'I' for Inactive)
REMARK    1  A    between atoms: C_1  and  C_2
REMARK    2  A    between atoms: C_2  and  O_3
REMARK    3  A    between atoms: O_3  and  C_4
REMARK    4  A    between atoms: C_4  and  C_6
REMARK    5  A    between atoms: C_7  and  N_8
REMARK    6  A    between atoms: C_9  and  C_11
REMARK    7  A    between atoms: C_11  and  S_12
REMARK    8  A    between atoms: S_12  and  C_13
REMARK    9  A    between atoms: C_16  and  C_17
REMARK   10  A    between atoms: C_24  and  C_25
REMARK   11  A    between atoms: C_26  and  C_27
REMARK                            x       y       z     vdW  Elec       q    Type
REMARK                         _______ _______ _______ _____ _____    ______ ____
ROOT
ATOM      1  N   UNL     1       9.218  10.033  20.144  0.00  0.00    +0.000 N 
ATOM      2  C   UNL     1       8.783   9.687  18.864  0.00  0.00    +0.000 C 
ATOM      3  O   UNL     1       8.500  10.456  17.949  0.00  0.00    +0.000 OA
ATOM      4  H   UNL     1       9.444   9.290  20.801  0.00  0.00    +0.000 HD
ENDROOT
BRANCH   1   6
ATOM      5  C   UNL     1      10.307  12.309  20.176  0.00  0.00    +0.000 A 
ATOM      6  C   UNL     1       9.420  11.330  20.626  0.00  0.00    +0.000 A 
ATOM      7  S   UNL     1       8.489  11.895  21.930  0.00  0.00    +0.000 S 
ATOM      8  C   UNL     1       9.234  13.413  21.955  0.00  0.00    +0.000 A 
ATOM      9  C   UNL     1       8.831  14.404  22.996  0.00  0.00    +0.000 C 
ATOM     10  C   UNL     1      10.172  13.544  20.948  0.00  0.00    +0.000 A 
ATOM     11  C   UNL     1      10.951  14.802  20.689  0.00  0.00    +0.000 C 
BRANCH   5  12
ATOM     12  C   UNL     1      11.238  12.173  19.045  0.00  0.00    +0.000 C 
ATOM     13  O   UNL     1      12.330  11.627  19.133  0.00  0.00    +0.000 OA
BRANCH  12  14
ATOM     14  O   UNL     1      10.799  12.798  17.908  0.00  0.00    +0.000 OA
BRANCH  14  16
ATOM     15  C   UNL     1      11.368  14.946  17.058  0.00  0.00    +0.000 C 
ATOM     16  C   UNL     1      11.831  13.507  17.208  0.00  0.00    +0.000 C 
ENDBRANCH  14  16
ENDBRANCH  12  14
ENDBRANCH   5  12
ENDBRANCH   1   6
BRANCH   2  17
ATOM     17  C   UNL     1       8.647   8.185  18.636  0.00  0.00    +0.000 C 
BRANCH  17  18
ATOM     18  S   UNL     1       7.445   7.828  17.314  0.00  0.00    +0.000 S 
BRANCH  18  19
ATOM     19  C   UNL     1       6.823   6.306  17.864  0.00  0.00    +0.000 A 
ATOM     20  N   UNL     1       7.563   5.351  18.386  0.00  0.00    +0.000 NA
ATOM     21  N   UNL     1       6.716   4.296  18.645  0.00  0.00    +0.000 NA
ATOM     22  C   UNL     1       5.505   4.671  18.263  0.00  0.00    +0.000 A 
ATOM     23  O   UNL     1       5.503   5.962  17.786  0.00  0.00    +0.000 OA
BRANCH  22  24
ATOM     24  C   UNL     1       4.347   3.833  18.318  0.00  0.00    +0.000 A 
ATOM     25  C   UNL     1       3.301   3.742  17.410  0.00  0.00    +0.000 A 
ATOM     26  C   UNL     1       2.377   2.797  17.921  0.00  0.00    +0.000 A 
ATOM     27  C   UNL     1       2.906   2.359  19.110  0.00  0.00    +0.000 A 
ATOM     28  O   UNL     1       4.091   2.971  19.357  0.00  0.00    +0.000 OA
ENDBRANCH  22  24
ENDBRANCH  18  19
ENDBRANCH  17  18
ENDBRANCH   2  17
TORSDOF 8
ENDMDL
