MODEL 1
REMARK VINA RESULT:      -6.9      0.000      0.000
REMARK  Name = 
REMARK  3 active torsions:
REMARK  status: ('A' for Active; 'I' for Inactive)
REMARK    1  A    between atoms: C_1  and  C_2
REMARK    2  A    between atoms: C_2  and  N_3
REMARK    3  A    between atoms: C_4  and  C_5
REMARK                            x       y       z     vdW  Elec       q    Type
REMARK                         _______ _______ _______ _____ _____    ______ ____
ROOT
ATOM      1  N   UNL     1       3.957   4.795  17.598  0.00  0.00    +0.000 N 
ATOM      2  C   UNL     1       4.522   3.944  16.656  0.00  0.00    +0.000 A 
ATOM      3  N   UNL     1       4.060   2.715  16.854  0.00  0.00    +0.000 NA
ATOM      4  C   UNL     1       3.206   2.778  17.924  0.00  0.00    +0.000 A 
ATOM      5  C   UNL     1       2.491   1.746  18.557  0.00  0.00    +0.000 A 
ATOM      6  C   UNL     1       1.693   2.056  19.666  0.00  0.00    +0.000 A 
ATOM      7  C   UNL     1       1.600   3.367  20.114  0.00  0.00    +0.000 A 
ATOM      8  F   UNL     1       0.835   3.640  21.182  0.00  0.00    +0.000 F 
ATOM      9  C   UNL     1       2.289   4.412  19.497  0.00  0.00    +0.000 A 
ATOM     10  C   UNL     1       3.103   4.077  18.405  0.00  0.00    +0.000 A 
ENDROOT
BRANCH   2  11
ATOM     11  C   UNL     1       5.537   4.266  15.638  0.00  0.00    +0.000 A 
ATOM     12  C   UNL     1       5.303   3.930  14.299  0.00  0.00    +0.000 A 
ATOM     13  C   UNL     1       6.257   4.205  13.320  0.00  0.00    +0.000 A 
ATOM     14  C   UNL     1       7.432   4.827  13.700  0.00  0.00    +0.000 A 
ATOM     15  N   UNL     1       7.694   5.195  14.968  0.00  0.00    +0.000 NA
ATOM     16  C   UNL     1       6.740   4.918  15.893  0.00  0.00    +0.000 A 
ENDBRANCH   2  11
BRANCH   1  18
ATOM     17  C   UNL     1       5.566   6.327  18.740  0.00  0.00    +0.000 C 
ATOM     18  C   UNL     1       4.334   6.183  17.862  0.00  0.00    +0.000 C 
ATOM     19  C   UNL     1       3.265   7.260  17.959  0.00  0.00    +0.000 C 
ATOM     20  C   UNL     1       4.205   7.252  16.788  0.00  0.00    +0.000 C 
ENDBRANCH   1  18
TORSDOF 2
ENDMDL
MODEL 2
REMARK VINA RESULT:      -6.8      1.860      3.660
REMARK  Name = 
REMARK  3 active torsions:
REMARK  status: ('A' for Active; 'I' for Inactive)
REMARK    1  A    between atoms: C_1  and  C_2
REMARK    2  A    between atoms: C_2  and  N_3
REMARK    3  A    between atoms: C_4  and  C_5
REMARK                            x       y       z     vdW  Elec       q    Type
REMARK                         _______ _______ _______ _____ _____    ______ ____
ROOT
ATOM      1  N   UNL     1       3.750   5.728  18.227  0.00  0.00    +0.000 N 
ATOM      2  C   UNL     1       4.403   6.308  17.147  0.00  0.00    +0.000 A 
ATOM      3  N   UNL     1       4.004   7.569  17.028  0.00  0.00    +0.000 NA
ATOM      4  C   UNL     1       3.093   7.794  18.028  0.00  0.00    +0.000 A 
ATOM      5  C   UNL     1       2.348   8.952  18.313  0.00  0.00    +0.000 A 
ATOM      6  C   UNL     1       1.448   8.931  19.385  0.00  0.00    +0.000 A 
ATOM      7  C   UNL     1       1.312   7.787  20.161  0.00  0.00    +0.000 A 
ATOM      8  F   UNL     1       0.438   7.787  21.179  0.00  0.00    +0.000 F 
ATOM      9  C   UNL     1       2.047   6.628  19.907  0.00  0.00    +0.000 A 
ATOM     10  C   UNL     1       2.924   6.661  18.814  0.00  0.00    +0.000 A 
ENDROOT
BRANCH   2  11
ATOM     11  C   UNL     1       5.325   5.666  16.194  0.00  0.00    +0.000 A 
ATOM     12  C   UNL     1       4.811   4.861  15.170  0.00  0.00    +0.000 A 
ATOM     13  C   UNL     1       5.664   4.226  14.269  0.00  0.00    +0.000 A 
ATOM     14  C   UNL     1       7.026   4.418  14.402  0.00  0.00    +0.000 A 
ATOM     15  N   UNL     1       7.570   5.203  15.351  0.00  0.00    +0.000 NA
ATOM     16  C   UNL     1       6.709   5.811  16.206  0.00  0.00    +0.000 A 
ENDBRANCH   2  11
BRANCH   1  18
ATOM     17  C   UNL     1       2.808   3.464  17.752  0.00  0.00    +0.000 C 
ATOM     18  C   UNL     1       3.748   4.312  18.592  0.00  0.00    +0.000 C 
ATOM     19  C   UNL     1       3.981   3.894  20.036  0.00  0.00    +0.000 C 
ATOM     20  C   UNL     1       5.030   3.602  19.001  0.00  0.00    +0.000 C 
ENDBRANCH   1  18
TORSDOF 2
ENDMDL
MODEL 3
REMARK VINA RESULT:      -6.8      2.972      5.929
REMARK  Name = 
REMARK  3 active torsions:
REMARK  status: ('A' for Active; 'I' for Inactive)
REMARK    1  A    between atoms: C_1  and  C_2
REMARK    2  A    between atoms: C_2  and  N_3
REMARK    3  A    between atoms: C_4  and  C_5
REMARK                            x       y       z     vdW  Elec       q    Type
REMARK                         _______ _______ _______ _____ _____    ______ ____
ROOT
ATOM      1  N   UNL     1       5.932   4.922  16.924  0.00  0.00    +0.000 N 
ATOM      2  C   UNL     1       4.760   4.196  17.091  0.00  0.00    +0.000 A 
ATOM      3  N   UNL     1       4.435   3.631  15.934  0.00  0.00    +0.000 NA
ATOM      4  C   UNL     1       5.394   4.000  15.028  0.00  0.00    +0.000 A 
ATOM      5  C   UNL     1       5.488   3.701  13.656  0.00  0.00    +0.000 A 
ATOM      6  C   UNL     1       6.561   4.222  12.922  0.00  0.00    +0.000 A 
ATOM      7  C   UNL     1       7.521   5.005  13.549  0.00  0.00    +0.000 A 
ATOM      8  F   UNL     1       8.536   5.501  12.824  0.00  0.00    +0.000 F 
ATOM      9  C   UNL     1       7.458   5.308  14.910  0.00  0.00    +0.000 A 
ATOM     10  C   UNL     1       6.363   4.798  15.622  0.00  0.00    +0.000 A 
ENDROOT
BRANCH   2  11
ATOM     11  C   UNL     1       3.918   4.099  18.296  0.00  0.00    +0.000 A 
ATOM     12  C   UNL     1       2.966   5.092  18.555  0.00  0.00    +0.000 A 
ATOM     13  C   UNL     1       2.171   5.034  19.699  0.00  0.00    +0.000 A 
ATOM     14  C   UNL     1       2.337   3.968  20.564  0.00  0.00    +0.000 A 
ATOM     15  N   UNL     1       3.217   2.973  20.347  0.00  0.00    +0.000 NA
ATOM     16  C   UNL     1       3.969   3.059  19.220  0.00  0.00    +0.000 A 
ENDBRANCH   2  11
BRANCH   1  18
ATOM     17  C   UNL     1       6.217   7.309  17.604  0.00  0.00    +0.000 C 
ATOM     18  C   UNL     1       6.532   5.850  17.883  0.00  0.00    +0.000 C 
ATOM     19  C   UNL     1       7.871   5.524  18.526  0.00  0.00    +0.000 C 
ATOM     20  C   UNL     1       6.624   5.504  19.361  0.00  0.00    +0.000 C 
ENDBRANCH   1  18
TORSDOF 2
ENDMDL
MODEL 4
REMARK VINA RESULT:      -6.7      1.802      3.555
REMARK  Name = 
REMARK  3 active torsions:
REMARK  status: ('A' for Active; 'I' for Inactive)
REMARK    1  A    between atoms: C_1  and  C_2
REMARK    2  A    between atoms: C_2  and  N_3
REMARK    3  A    between atoms: C_4  and  C_5
REMARK                            x       y       z     vdW  Elec       q    Type
REMARK                         _______ _______ _______ _____ _____    ______ ____
ROOT
ATOM      1  N   UNL     1       3.886   5.714  18.188  0.00  0.00    +0.000 N 
ATOM      2  C   UNL     1       4.451   6.268  17.047  0.00  0.00    +0.000 A 
ATOM      3  N   UNL     1       3.975   7.497  16.884  0.00  0.00    +0.000 NA
ATOM      4  C   UNL     1       3.103   7.726  17.916  0.00  0.00    +0.000 A 
ATOM      5  C   UNL     1       2.308   8.857  18.178  0.00  0.00    +0.000 A 
ATOM      6  C   UNL     1       1.463   8.845  19.295  0.00  0.00    +0.000 A 
ATOM      7  C   UNL     1       1.431   7.740  20.135  0.00  0.00    +0.000 A 
ATOM      8  F   UNL     1       0.609   7.749  21.195  0.00  0.00    +0.000 F 
ATOM      9  C   UNL     1       2.218   6.611  19.905  0.00  0.00    +0.000 A 
ATOM     10  C   UNL     1       3.038   6.631  18.767  0.00  0.00    +0.000 A 
ENDROOT
BRANCH   2  11
ATOM     11  C   UNL     1       5.362   5.626  16.083  0.00  0.00    +0.000 A 
ATOM     12  C   UNL     1       4.836   4.799  15.083  0.00  0.00    +0.000 A 
ATOM     13  C   UNL     1       5.679   4.163  14.171  0.00  0.00    +0.000 A 
ATOM     14  C   UNL     1       7.041   4.377  14.271  0.00  0.00    +0.000 A 
ATOM     15  N   UNL     1       7.594   5.184  15.196  0.00  0.00    +0.000 NA
ATOM     16  C   UNL     1       6.743   5.792  16.062  0.00  0.00    +0.000 A 
ENDBRANCH   2  11
BRANCH   1  18
ATOM     17  C   UNL     1       5.287   3.992  19.332  0.00  0.00    +0.000 C 
ATOM     18  C   UNL     1       3.983   4.322  18.627  0.00  0.00    +0.000 C 
ATOM     19  C   UNL     1       3.313   3.219  17.823  0.00  0.00    +0.000 C 
ATOM     20  C   UNL     1       2.773   3.583  19.176  0.00  0.00    +0.000 C 
ENDBRANCH   1  18
TORSDOF 2
ENDMDL
MODEL 5
REMARK VINA RESULT:      -6.7      1.425      2.000
REMARK  Name = 
REMARK  3 active torsions:
REMARK  status: ('A' for Active; 'I' for Inactive)
REMARK    1  A    between atoms: C_1  and  C_2
REMARK    2  A    between atoms: C_2  and  N_3
REMARK    3  A    between atoms: C_4  and  C_5
REMARK                            x       y       z     vdW  Elec       q    Type
REMARK                         _______ _______ _______ _____ _____    ______ ____
ROOT
ATOM      1  N   UNL     1       5.154   5.202  17.472  0.00  0.00    +0.000 N 
ATOM      2  C   UNL     1       4.904   4.627  16.232  0.00  0.00    +0.000 A 
ATOM      3  N   UNL     1       3.740   3.991  16.279  0.00  0.00    +0.000 NA
ATOM      4  C   UNL     1       3.247   4.156  17.548  0.00  0.00    +0.000 A 
ATOM      5  C   UNL     1       2.068   3.647  18.121  0.00  0.00    +0.000 A 
ATOM      6  C   UNL     1       1.790   3.932  19.463  0.00  0.00    +0.000 A 
ATOM      7  C   UNL     1       2.659   4.721  20.204  0.00  0.00    +0.000 A 
ATOM      8  F   UNL     1       2.376   4.976  21.491  0.00  0.00    +0.000 F 
ATOM      9  C   UNL     1       3.830   5.249  19.658  0.00  0.00    +0.000 A 
ATOM     10  C   UNL     1       4.104   4.930  18.320  0.00  0.00    +0.000 A 
ENDROOT
BRANCH   2  11
ATOM     11  C   UNL     1       5.782   4.607  15.049  0.00  0.00    +0.000 A 
ATOM     12  C   UNL     1       5.457   3.786  13.962  0.00  0.00    +0.000 A 
ATOM     13  C   UNL     1       6.282   3.734  12.839  0.00  0.00    +0.000 A 
ATOM     14  C   UNL     1       7.420   4.520  12.819  0.00  0.00    +0.000 A 
ATOM     15  N   UNL     1       7.762   5.346  13.825  0.00  0.00    +0.000 NA
ATOM     16  C   UNL     1       6.932   5.376  14.899  0.00  0.00    +0.000 A 
ENDBRANCH   2  11
BRANCH   1  18
ATOM     17  C   UNL     1       6.556   7.270  17.470  0.00  0.00    +0.000 C 
ATOM     18  C   UNL     1       6.402   5.825  17.913  0.00  0.00    +0.000 C 
ATOM     19  C   UNL     1       7.664   4.989  18.058  0.00  0.00    +0.000 C 
ATOM     20  C   UNL     1       6.987   5.528  19.285  0.00  0.00    +0.000 C 
ENDBRANCH   1  18
TORSDOF 2
ENDMDL
MODEL 6
REMARK VINA RESULT:      -6.6      2.940      5.964
REMARK  Name = 
REMARK  3 active torsions:
REMARK  status: ('A' for Active; 'I' for Inactive)
REMARK    1  A    between atoms: C_1  and  C_2
REMARK    2  A    between atoms: C_2  and  N_3
REMARK    3  A    between atoms: C_4  and  C_5
REMARK                            x       y       z     vdW  Elec       q    Type
REMARK                         _______ _______ _______ _____ _____    ______ ____
ROOT
ATOM      1  N   UNL     1       5.811   4.900  16.553  0.00  0.00    +0.000 N 
ATOM      2  C   UNL     1       4.722   4.039  16.581  0.00  0.00    +0.000 A 
ATOM      3  N   UNL     1       4.611   3.447  15.397  0.00  0.00    +0.000 NA
ATOM      4  C   UNL     1       5.624   3.933  14.612  0.00  0.00    +0.000 A 
ATOM      5  C   UNL     1       5.922   3.656  13.266  0.00  0.00    +0.000 A 
ATOM      6  C   UNL     1       7.007   4.305  12.665  0.00  0.00    +0.000 A 
ATOM      7  C   UNL     1       7.783   5.192  13.399  0.00  0.00    +0.000 A 
ATOM      8  F   UNL     1       8.814   5.808  12.801  0.00  0.00    +0.000 F 
ATOM      9  C   UNL     1       7.518   5.476  14.739  0.00  0.00    +0.000 A 
ATOM     10  C   UNL     1       6.411   4.835  15.315  0.00  0.00    +0.000 A 
ENDROOT
BRANCH   2  11
ATOM     11  C   UNL     1       3.755   3.835  17.673  0.00  0.00    +0.000 A 
ATOM     12  C   UNL     1       3.965   2.804  18.597  0.00  0.00    +0.000 A 
ATOM     13  C   UNL     1       3.054   2.577  19.629  0.00  0.00    +0.000 A 
ATOM     14  C   UNL     1       1.947   3.400  19.724  0.00  0.00    +0.000 A 
ATOM     15  N   UNL     1       1.714   4.422  18.879  0.00  0.00    +0.000 NA
ATOM     16  C   UNL     1       2.625   4.617  17.892  0.00  0.00    +0.000 A 
ENDBRANCH   2  11
BRANCH   1  18
ATOM     17  C   UNL     1       5.391   7.183  17.476  0.00  0.00    +0.000 C 
ATOM     18  C   UNL     1       6.175   5.885  17.572  0.00  0.00    +0.000 C 
ATOM     19  C   UNL     1       7.602   5.955  18.092  0.00  0.00    +0.000 C 
ATOM     20  C   UNL     1       6.508   5.461  18.994  0.00  0.00    +0.000 C 
ENDBRANCH   1  18
TORSDOF 2
ENDMDL
MODEL 7
REMARK VINA RESULT:      -6.5      2.314      2.859
REMARK  Name = 
REMARK  3 active torsions:
REMARK  status: ('A' for Active; 'I' for Inactive)
REMARK    1  A    between atoms: C_1  and  C_2
REMARK    2  A    between atoms: C_2  and  N_3
REMARK    3  A    between atoms: C_4  and  C_5
REMARK                            x       y       z     vdW  Elec       q    Type
REMARK                         _______ _______ _______ _____ _____    ______ ____
ROOT
ATOM      1  N   UNL     1       3.519   5.322  18.245  0.00  0.00    +0.000 N 
ATOM      2  C   UNL     1       4.863   5.044  18.030  0.00  0.00    +0.000 A 
ATOM      3  N   UNL     1       5.025   3.727  17.970  0.00  0.00    +0.000 NA
ATOM      4  C   UNL     1       3.788   3.165  18.149  0.00  0.00    +0.000 A 
ATOM      5  C   UNL     1       3.425   1.807  18.211  0.00  0.00    +0.000 A 
ATOM      6  C   UNL     1       2.084   1.475  18.434  0.00  0.00    +0.000 A 
ATOM      7  C   UNL     1       1.130   2.475  18.573  0.00  0.00    +0.000 A 
ATOM      8  F   UNL     1      -0.149   2.133  18.793  0.00  0.00    +0.000 F 
ATOM      9  C   UNL     1       1.461   3.829  18.505  0.00  0.00    +0.000 A 
ATOM     10  C   UNL     1       2.814   4.141  18.306  0.00  0.00    +0.000 A 
ENDROOT
BRANCH   2  11
ATOM     11  C   UNL     1       5.986   5.994  17.964  0.00  0.00    +0.000 A 
ATOM     12  C   UNL     1       7.029   5.897  18.893  0.00  0.00    +0.000 A 
ATOM     13  C   UNL     1       8.094   6.798  18.864  0.00  0.00    +0.000 A 
ATOM     14  C   UNL     1       8.100   7.780  17.890  0.00  0.00    +0.000 A 
ATOM     15  N   UNL     1       7.137   7.899  16.957  0.00  0.00    +0.000 NA
ATOM     16  C   UNL     1       6.121   7.001  17.012  0.00  0.00    +0.000 A 
ENDBRANCH   2  11
BRANCH   1  18
ATOM     17  C   UNL     1       2.767   6.869  20.056  0.00  0.00    +0.000 C 
ATOM     18  C   UNL     1       2.935   6.624  18.566  0.00  0.00    +0.000 C 
ATOM     19  C   UNL     1       1.927   7.263  17.624  0.00  0.00    +0.000 C 
ATOM     20  C   UNL     1       3.294   7.867  17.767  0.00  0.00    +0.000 C 
ENDBRANCH   1  18
TORSDOF 2
ENDMDL
MODEL 8
REMARK VINA RESULT:      -6.5      1.591      1.993
REMARK  Name = 
REMARK  3 active torsions:
REMARK  status: ('A' for Active; 'I' for Inactive)
REMARK    1  A    between atoms: C_1  and  C_2
REMARK    2  A    between atoms: C_2  and  N_3
REMARK    3  A    between atoms: C_4  and  C_5
REMARK                            x       y       z     vdW  Elec       q    Type
REMARK                         _______ _______ _______ _____ _____    ______ ____
ROOT
ATOM      1  N   UNL     1       3.422   4.362  18.537  0.00  0.00    +0.000 N 
ATOM      2  C   UNL     1       4.674   3.933  18.115  0.00  0.00    +0.000 A 
ATOM      3  N   UNL     1       5.094   2.967  18.923  0.00  0.00    +0.000 NA
ATOM      4  C   UNL     1       4.114   2.782  19.865  0.00  0.00    +0.000 A 
ATOM      5  C   UNL     1       4.088   1.908  20.966  0.00  0.00    +0.000 A 
ATOM      6  C   UNL     1       2.974   1.921  21.814  0.00  0.00    +0.000 A 
ATOM      7  C   UNL     1       1.908   2.772  21.554  0.00  0.00    +0.000 A 
ATOM      8  F   UNL     1       0.854   2.772  22.384  0.00  0.00    +0.000 F 
ATOM      9  C   UNL     1       1.903   3.641  20.462  0.00  0.00    +0.000 A 
ATOM     10  C   UNL     1       3.039   3.632  19.640  0.00  0.00    +0.000 A 
ENDROOT
BRANCH   2  11
ATOM     11  C   UNL     1       5.495   4.474  17.019  0.00  0.00    +0.000 A 
ATOM     12  C   UNL     1       5.162   4.174  15.692  0.00  0.00    +0.000 A 
ATOM     13  C   UNL     1       5.936   4.658  14.637  0.00  0.00    +0.000 A 
ATOM     14  C   UNL     1       7.031   5.449  14.931  0.00  0.00    +0.000 A 
ATOM     15  N   UNL     1       7.378   5.790  16.187  0.00  0.00    +0.000 NA
ATOM     16  C   UNL     1       6.598   5.307  17.187  0.00  0.00    +0.000 A 
ENDBRANCH   2  11
BRANCH   1  18
ATOM     17  C   UNL     1       1.406   5.186  17.315  0.00  0.00    +0.000 C 
ATOM     18  C   UNL     1       2.688   5.531  18.053  0.00  0.00    +0.000 C 
ATOM     19  C   UNL     1       3.438   6.782  17.625  0.00  0.00    +0.000 C 
ATOM     20  C   UNL     1       2.609   6.808  18.877  0.00  0.00    +0.000 C 
ENDBRANCH   1  18
TORSDOF 2
ENDMDL
MODEL 9
REMARK VINA RESULT:      -6.4      3.024      5.872
REMARK  Name = 
REMARK  3 active torsions:
REMARK  status: ('A' for Active; 'I' for Inactive)
REMARK    1  A    between atoms: C_1  and  C_2
REMARK    2  A    between atoms: C_2  and  N_3
REMARK    3  A    between atoms: C_4  and  C_5
REMARK                            x       y       z     vdW  Elec       q    Type
REMARK                         _______ _______ _______ _____ _____    ______ ____
ROOT
ATOM      1  N   UNL     1       6.020   4.808  16.474  0.00  0.00    +0.000 N 
ATOM      2  C   UNL     1       4.912   3.973  16.536  0.00  0.00    +0.000 A 
ATOM      3  N   UNL     1       4.720   3.423  15.343  0.00  0.00    +0.000 NA
ATOM      4  C   UNL     1       5.701   3.909  14.518  0.00  0.00    +0.000 A 
ATOM      5  C   UNL     1       5.917   3.668  13.149  0.00  0.00    +0.000 A 
ATOM      6  C   UNL     1       6.984   4.310  12.509  0.00  0.00    +0.000 A 
ATOM      7  C   UNL     1       7.822   5.154  13.226  0.00  0.00    +0.000 A 
ATOM      8  F   UNL     1       8.834   5.765  12.590  0.00  0.00    +0.000 F 
ATOM      9  C   UNL     1       7.638   5.401  14.586  0.00  0.00    +0.000 A 
ATOM     10  C   UNL     1       6.549   4.769  15.203  0.00  0.00    +0.000 A 
ENDROOT
BRANCH   2  11
ATOM     11  C   UNL     1       4.002   3.758  17.674  0.00  0.00    +0.000 A 
ATOM     12  C   UNL     1       2.669   4.179  17.582  0.00  0.00    +0.000 A 
ATOM     13  C   UNL     1       1.794   4.005  18.654  0.00  0.00    +0.000 A 
ATOM     14  C   UNL     1       2.268   3.398  19.801  0.00  0.00    +0.000 A 
ATOM     15  N   UNL     1       3.530   2.949  19.930  0.00  0.00    +0.000 NA
ATOM     16  C   UNL     1       4.353   3.129  18.865  0.00  0.00    +0.000 A 
ENDBRANCH   2  11
BRANCH   1  18
ATOM     17  C   UNL     1       7.609   5.232  18.354  0.00  0.00    +0.000 C 
ATOM     18  C   UNL     1       6.465   5.751  17.500  0.00  0.00    +0.000 C 
ATOM     19  C   UNL     1       5.470   6.700  18.149  0.00  0.00    +0.000 C 
ATOM     20  C   UNL     1       6.520   7.246  17.225  0.00  0.00    +0.000 C 
ENDBRANCH   1  18
TORSDOF 2
ENDMDL
