MODEL 1
REMARK VINA RESULT:      -8.2      0.000      0.000
REMARK  Name = 
REMARK  8 active torsions:
REMARK  status: ('A' for Active; 'I' for Inactive)
REMARK    1  A    between atoms: C_2  and  C_3
REMARK    2  A    between atoms: C_3  and  O_4
REMARK    3  A    between atoms: O_4  and  C_5
REMARK    4  A    between atoms: C_8  and  C_9
REMARK    5  A    between atoms: N_10  and  N_11
REMARK    6  A    between atoms: C_12  and  C_14
REMARK    7  A    between atoms: N_22  and  C_23
REMARK    8  A    between atoms: C_26  and  N_27
REMARK                            x       y       z     vdW  Elec       q    Type
REMARK                         _______ _______ _______ _____ _____    ______ ____
ROOT
ATOM      1  C   UNL     1       5.984   4.790  18.268  0.00  0.00    +0.000 A 
ATOM      2  C   UNL     1       7.002   5.148  19.158  0.00  0.00    +0.000 A 
ATOM      3  C   UNL     1       7.698   6.343  18.990  0.00  0.00    +0.000 A 
ATOM      4  C   UNL     1       7.415   7.170  17.903  0.00  0.00    +0.000 A 
ATOM      5  C   UNL     1       6.444   6.792  16.971  0.00  0.00    +0.000 A 
ATOM      6  C   UNL     1       5.734   5.595  17.153  0.00  0.00    +0.000 A 
ENDROOT
BRANCH   4   7
ATOM      7  C   UNL     1       8.149   8.445  17.751  0.00  0.00    +0.000 C 
ATOM      8  N   UNL     1       8.645   9.039  18.788  0.00  0.00    +0.000 NA
BRANCH   8   9
ATOM      9  N   UNL     1       9.303  10.212  18.582  0.00  0.00    +0.000 N 
ATOM     10  C   UNL     1       9.606  11.012  19.678  0.00  0.00    +0.000 C 
ATOM     11  O   UNL     1       9.335  10.738  20.845  0.00  0.00    +0.000 OA
ATOM     12  H   UNL     1       9.460  10.529  17.634  0.00  0.00    +0.000 HD
BRANCH  10  13
ATOM     13  C   UNL     1      10.274  12.311  19.377  0.00  0.00    +0.000 A 
ATOM     14  C   UNL     1      11.659  12.404  19.581  0.00  0.00    +0.000 A 
ATOM     15  C   UNL     1      12.332  13.603  19.337  0.00  0.00    +0.000 A 
ATOM     16  C   UNL     1      11.626  14.712  18.876  0.00  0.00    +0.000 A 
ATOM     17  C   UNL     1      10.253  14.622  18.647  0.00  0.00    +0.000 A 
ATOM     18  C   UNL     1       9.577  13.424  18.889  0.00  0.00    +0.000 A 
ENDBRANCH  10  13
ENDBRANCH   8   9
ENDBRANCH   4   7
BRANCH   1  19
ATOM     19  O   UNL     1       5.167   3.693  18.434  0.00  0.00    +0.000 OA
BRANCH  19  20
ATOM     20  C   UNL     1       4.113   3.932  19.365  0.00  0.00    +0.000 C 
BRANCH  20  22
ATOM     21  O   UNL     1       2.235   4.763  18.161  0.00  0.00    +0.000 OA
ATOM     22  C   UNL     1       3.104   5.014  18.995  0.00  0.00    +0.000 C 
ATOM     23  N   UNL     1       3.264   6.216  19.655  0.00  0.00    +0.000 N 
ATOM     24  H   UNL     1       4.139   6.338  20.157  0.00  0.00    +0.000 HD
BRANCH  23  25
ATOM     25  C   UNL     1       2.356   7.294  19.619  0.00  0.00    +0.000 A 
ATOM     26  C   UNL     1       1.536   7.626  20.704  0.00  0.00    +0.000 A 
ATOM     27  C   UNL     1       0.682   8.735  20.649  0.00  0.00    +0.000 A 
ATOM     28  C   UNL     1       0.644   9.516  19.495  0.00  0.00    +0.000 A 
ATOM     29  C   UNL     1       1.448   9.192  18.396  0.00  0.00    +0.000 A 
ATOM     30  C   UNL     1       2.308   8.085  18.464  0.00  0.00    +0.000 A 
BRANCH  28  31
ATOM     31  N   UNL     1      -0.232  10.694  19.448  0.00  0.00    +0.000 N 
ATOM     32  O   UNL     1      -0.348  11.371  20.478  0.00  0.00    +0.000 OA
ATOM     33  O   UNL     1      -0.798  10.947  18.372  0.00  0.00    +0.000 OA
ENDBRANCH  28  31
ENDBRANCH  23  25
ENDBRANCH  20  22
ENDBRANCH  19  20
ENDBRANCH   1  19
TORSDOF 8
ENDMDL
MODEL 2
REMARK VINA RESULT:      -8.1      6.114      9.473
REMARK  Name = 
REMARK  8 active torsions:
REMARK  status: ('A' for Active; 'I' for Inactive)
REMARK    1  A    between atoms: C_2  and  C_3
REMARK    2  A    between atoms: C_3  and  O_4
REMARK    3  A    between atoms: O_4  and  C_5
REMARK    4  A    between atoms: C_8  and  C_9
REMARK    5  A    between atoms: N_10  and  N_11
REMARK    6  A    between atoms: C_12  and  C_14
REMARK    7  A    between atoms: N_22  and  C_23
REMARK    8  A    between atoms: C_26  and  N_27
REMARK                            x       y       z     vdW  Elec       q    Type
REMARK                         _______ _______ _______ _____ _____    ______ ____
ROOT
ATOM      1  C   UNL     1      -0.349  11.750  22.105  0.00  0.00    +0.000 A 
ATOM      2  C   UNL     1       0.676  11.491  21.190  0.00  0.00    +0.000 A 
ATOM      3  C   UNL     1       1.102  10.185  20.958  0.00  0.00    +0.000 A 
ATOM      4  C   UNL     1       0.538   9.128  21.674  0.00  0.00    +0.000 A 
ATOM      5  C   UNL     1      -0.443   9.382  22.637  0.00  0.00    +0.000 A 
ATOM      6  C   UNL     1      -0.880  10.697  22.857  0.00  0.00    +0.000 A 
ENDROOT
BRANCH   4   7
ATOM      7  C   UNL     1       0.986   7.746  21.400  0.00  0.00    +0.000 C 
ATOM      8  N   UNL     1       1.720   7.491  20.366  0.00  0.00    +0.000 NA
BRANCH   8   9
ATOM      9  N   UNL     1       2.093   6.198  20.167  0.00  0.00    +0.000 N 
ATOM     10  C   UNL     1       2.480   5.800  18.892  0.00  0.00    +0.000 C 
ATOM     11  O   UNL     1       2.525   6.537  17.909  0.00  0.00    +0.000 OA
ATOM     12  H   UNL     1       1.979   5.530  20.919  0.00  0.00    +0.000 HD
BRANCH  10  13
ATOM     13  C   UNL     1       2.819   4.357  18.730  0.00  0.00    +0.000 A 
ATOM     14  C   UNL     1       3.739   3.791  19.625  0.00  0.00    +0.000 A 
ATOM     15  C   UNL     1       4.111   2.451  19.505  0.00  0.00    +0.000 A 
ATOM     16  C   UNL     1       3.556   1.665  18.497  0.00  0.00    +0.000 A 
ATOM     17  C   UNL     1       2.621   2.213  17.618  0.00  0.00    +0.000 A 
ATOM     18  C   UNL     1       2.247   3.553  17.736  0.00  0.00    +0.000 A 
ENDBRANCH  10  13
ENDBRANCH   8   9
ENDBRANCH   4   7
BRANCH   1  19
ATOM     19  O   UNL     1      -0.911  12.993  22.299  0.00  0.00    +0.000 OA
BRANCH  19  20
ATOM     20  C   UNL     1      -2.181  13.124  21.662  0.00  0.00    +0.000 C 
BRANCH  20  22
ATOM     21  O   UNL     1      -1.540  13.726  19.450  0.00  0.00    +0.000 OA
ATOM     22  C   UNL     1      -2.207  12.962  20.147  0.00  0.00    +0.000 C 
ATOM     23  N   UNL     1      -3.003  11.935  19.680  0.00  0.00    +0.000 N 
ATOM     24  H   UNL     1      -3.644  11.524  20.352  0.00  0.00    +0.000 HD
BRANCH  23  25
ATOM     25  C   UNL     1      -3.045  11.477  18.347  0.00  0.00    +0.000 A 
ATOM     26  C   UNL     1      -2.020  10.710  17.779  0.00  0.00    +0.000 A 
ATOM     27  C   UNL     1      -2.120  10.230  16.467  0.00  0.00    +0.000 A 
ATOM     28  C   UNL     1      -3.255  10.525  15.714  0.00  0.00    +0.000 A 
ATOM     29  C   UNL     1      -4.284  11.300  16.260  0.00  0.00    +0.000 A 
ATOM     30  C   UNL     1      -4.179  11.768  17.579  0.00  0.00    +0.000 A 
BRANCH  28  31
ATOM     31  N   UNL     1      -3.371   9.999  14.347  0.00  0.00    +0.000 N 
ATOM     32  O   UNL     1      -4.506   9.876  13.868  0.00  0.00    +0.000 OA
ATOM     33  O   UNL     1      -2.321   9.717  13.748  0.00  0.00    +0.000 OA
ENDBRANCH  28  31
ENDBRANCH  23  25
ENDBRANCH  20  22
ENDBRANCH  19  20
ENDBRANCH   1  19
TORSDOF 8
ENDMDL
MODEL 3
REMARK VINA RESULT:      -8.1      1.052      1.609
REMARK  Name = 
REMARK  8 active torsions:
REMARK  status: ('A' for Active; 'I' for Inactive)
REMARK    1  A    between atoms: C_2  and  C_3
REMARK    2  A    between atoms: C_3  and  O_4
REMARK    3  A    between atoms: O_4  and  C_5
REMARK    4  A    between atoms: C_8  and  C_9
REMARK    5  A    between atoms: N_10  and  N_11
REMARK    6  A    between atoms: C_12  and  C_14
REMARK    7  A    between atoms: N_22  and  C_23
REMARK    8  A    between atoms: C_26  and  N_27
REMARK                            x       y       z     vdW  Elec       q    Type
REMARK                         _______ _______ _______ _____ _____    ______ ____
ROOT
ATOM      1  C   UNL     1       5.082   4.567  18.370  0.00  0.00    +0.000 A 
ATOM      2  C   UNL     1       6.151   5.004  19.159  0.00  0.00    +0.000 A 
ATOM      3  C   UNL     1       6.892   6.124  18.787  0.00  0.00    +0.000 A 
ATOM      4  C   UNL     1       6.599   6.792  17.598  0.00  0.00    +0.000 A 
ATOM      5  C   UNL     1       5.573   6.327  16.770  0.00  0.00    +0.000 A 
ATOM      6  C   UNL     1       4.820   5.208  17.156  0.00  0.00    +0.000 A 
ENDROOT
BRANCH   4   7
ATOM      7  C   UNL     1       7.380   7.992  17.229  0.00  0.00    +0.000 C 
ATOM      8  N   UNL     1       8.099   8.600  18.116  0.00  0.00    +0.000 NA
BRANCH   8   9
ATOM      9  N   UNL     1       8.788   9.702  17.714  0.00  0.00    +0.000 N 
ATOM     10  C   UNL     1       9.351  10.531  18.679  0.00  0.00    +0.000 C 
ATOM     11  O   UNL     1       9.286  10.341  19.892  0.00  0.00    +0.000 OA
ATOM     12  H   UNL     1       8.786   9.955  16.734  0.00  0.00    +0.000 HD
BRANCH  10  13
ATOM     13  C   UNL     1      10.041  11.752  18.173  0.00  0.00    +0.000 A 
ATOM     14  C   UNL     1       9.286  12.925  18.031  0.00  0.00    +0.000 A 
ATOM     15  C   UNL     1       9.877  14.092  17.540  0.00  0.00    +0.000 A 
ATOM     16  C   UNL     1      11.228  14.095  17.200  0.00  0.00    +0.000 A 
ATOM     17  C   UNL     1      11.992  12.939  17.362  0.00  0.00    +0.000 A 
ATOM     18  C   UNL     1      11.405  11.771  17.853  0.00  0.00    +0.000 A 
ENDBRANCH  10  13
ENDBRANCH   8   9
ENDBRANCH   4   7
BRANCH   1  19
ATOM     19  O   UNL     1       4.226   3.550  18.730  0.00  0.00    +0.000 OA
BRANCH  19  20
ATOM     20  C   UNL     1       3.375   3.909  19.817  0.00  0.00    +0.000 C 
BRANCH  20  22
ATOM     21  O   UNL     1       1.193   4.760  19.392  0.00  0.00    +0.000 OA
ATOM     22  C   UNL     1       2.379   5.035  19.565  0.00  0.00    +0.000 C 
ATOM     23  N   UNL     1       2.920   6.305  19.555  0.00  0.00    +0.000 N 
ATOM     24  H   UNL     1       3.934   6.360  19.510  0.00  0.00    +0.000 HD
BRANCH  23  25
ATOM     25  C   UNL     1       2.182   7.506  19.526  0.00  0.00    +0.000 A 
ATOM     26  C   UNL     1       2.086   8.306  18.380  0.00  0.00    +0.000 A 
ATOM     27  C   UNL     1       1.303   9.467  18.375  0.00  0.00    +0.000 A 
ATOM     28  C   UNL     1       0.613   9.834  19.529  0.00  0.00    +0.000 A 
ATOM     29  C   UNL     1       0.706   9.054  20.687  0.00  0.00    +0.000 A 
ATOM     30  C   UNL     1       1.486   7.888  20.680  0.00  0.00    +0.000 A 
BRANCH  28  31
ATOM     31  N   UNL     1      -0.231  11.038  19.514  0.00  0.00    +0.000 N 
ATOM     32  O   UNL     1      -1.141  11.117  20.349  0.00  0.00    +0.000 OA
ATOM     33  O   UNL     1       0.027  11.910  18.669  0.00  0.00    +0.000 OA
ENDBRANCH  28  31
ENDBRANCH  23  25
ENDBRANCH  20  22
ENDBRANCH  19  20
ENDBRANCH   1  19
TORSDOF 8
ENDMDL
MODEL 4
REMARK VINA RESULT:      -7.9      1.094      1.427
REMARK  Name = 
REMARK  8 active torsions:
REMARK  status: ('A' for Active; 'I' for Inactive)
REMARK    1  A    between atoms: C_2  and  C_3
REMARK    2  A    between atoms: C_3  and  O_4
REMARK    3  A    between atoms: O_4  and  C_5
REMARK    4  A    between atoms: C_8  and  C_9
REMARK    5  A    between atoms: N_10  and  N_11
REMARK    6  A    between atoms: C_12  and  C_14
REMARK    7  A    between atoms: N_22  and  C_23
REMARK    8  A    between atoms: C_26  and  N_27
REMARK                            x       y       z     vdW  Elec       q    Type
REMARK                         _______ _______ _______ _____ _____    ______ ____
ROOT
ATOM      1  C   UNL     1       5.626   4.453  17.914  0.00  0.00    +0.000 A 
ATOM      2  C   UNL     1       6.257   5.067  19.001  0.00  0.00    +0.000 A 
ATOM      3  C   UNL     1       7.058   6.191  18.808  0.00  0.00    +0.000 A 
ATOM      4  C   UNL     1       7.273   6.685  17.521  0.00  0.00    +0.000 A 
ATOM      5  C   UNL     1       6.698   6.041  16.421  0.00  0.00    +0.000 A 
ATOM      6  C   UNL     1       5.880   4.918  16.621  0.00  0.00    +0.000 A 
ENDROOT
BRANCH   4   7
ATOM      7  C   UNL     1       8.107   7.891  17.337  0.00  0.00    +0.000 C 
ATOM      8  N   UNL     1       7.923   8.932  18.083  0.00  0.00    +0.000 NA
BRANCH   8   9
ATOM      9  N   UNL     1       8.719  10.012  17.859  0.00  0.00    +0.000 N 
ATOM     10  C   UNL     1       9.308  10.649  18.946  0.00  0.00    +0.000 C 
ATOM     11  O   UNL     1       9.176  10.304  20.118  0.00  0.00    +0.000 OA
ATOM     12  H   UNL     1       8.780  10.394  16.924  0.00  0.00    +0.000 HD
BRANCH  10  13
ATOM     13  C   UNL     1      10.120  11.860  18.635  0.00  0.00    +0.000 A 
ATOM     14  C   UNL     1      11.390  11.675  18.068  0.00  0.00    +0.000 A 
ATOM     15  C   UNL     1      12.203  12.774  17.779  0.00  0.00    +0.000 A 
ATOM     16  C   UNL     1      11.746  14.063  18.043  0.00  0.00    +0.000 A 
ATOM     17  C   UNL     1      10.474  14.257  18.583  0.00  0.00    +0.000 A 
ATOM     18  C   UNL     1       9.659  13.161  18.873  0.00  0.00    +0.000 A 
ENDBRANCH  10  13
ENDBRANCH   8   9
ENDBRANCH   4   7
BRANCH   1  19
ATOM     19  O   UNL     1       4.723   3.419  18.033  0.00  0.00    +0.000 OA
BRANCH  19  20
ATOM     20  C   UNL     1       3.532   3.644  17.280  0.00  0.00    +0.000 C 
BRANCH  20  22
ATOM     21  O   UNL     1       1.417   4.377  18.090  0.00  0.00    +0.000 OA
ATOM     22  C   UNL     1       2.572   4.700  17.816  0.00  0.00    +0.000 C 
ATOM     23  N   UNL     1       3.107   5.966  17.951  0.00  0.00    +0.000 N 
ATOM     24  H   UNL     1       4.003   6.124  17.499  0.00  0.00    +0.000 HD
BRANCH  23  25
ATOM     25  C   UNL     1       2.479   7.054  18.590  0.00  0.00    +0.000 A 
ATOM     26  C   UNL     1       2.068   8.201  17.900  0.00  0.00    +0.000 A 
ATOM     27  C   UNL     1       1.401   9.240  18.561  0.00  0.00    +0.000 A 
ATOM     28  C   UNL     1       1.148   9.133  19.928  0.00  0.00    +0.000 A 
ATOM     29  C   UNL     1       1.561   7.999  20.636  0.00  0.00    +0.000 A 
ATOM     30  C   UNL     1       2.220   6.959  19.964  0.00  0.00    +0.000 A 
BRANCH  28  31
ATOM     31  N   UNL     1       0.425  10.212  20.615  0.00  0.00    +0.000 N 
ATOM     32  O   UNL     1      -0.421   9.894  21.462  0.00  0.00    +0.000 OA
ATOM     33  O   UNL     1       0.713  11.381  20.312  0.00  0.00    +0.000 OA
ENDBRANCH  28  31
ENDBRANCH  23  25
ENDBRANCH  20  22
ENDBRANCH  19  20
ENDBRANCH   1  19
TORSDOF 8
ENDMDL
MODEL 5
REMARK VINA RESULT:      -7.8      0.941      1.172
REMARK  Name = 
REMARK  8 active torsions:
REMARK  status: ('A' for Active; 'I' for Inactive)
REMARK    1  A    between atoms: C_2  and  C_3
REMARK    2  A    between atoms: C_3  and  O_4
REMARK    3  A    between atoms: O_4  and  C_5
REMARK    4  A    between atoms: C_8  and  C_9
REMARK    5  A    between atoms: N_10  and  N_11
REMARK    6  A    between atoms: C_12  and  C_14
REMARK    7  A    between atoms: N_22  and  C_23
REMARK    8  A    between atoms: C_26  and  N_27
REMARK                            x       y       z     vdW  Elec       q    Type
REMARK                         _______ _______ _______ _____ _____    ______ ____
ROOT
ATOM      1  C   UNL     1       6.069   4.891  17.980  0.00  0.00    +0.000 A 
ATOM      2  C   UNL     1       7.070   5.245  18.891  0.00  0.00    +0.000 A 
ATOM      3  C   UNL     1       7.751   6.454  18.757  0.00  0.00    +0.000 A 
ATOM      4  C   UNL     1       7.469   7.300  17.684  0.00  0.00    +0.000 A 
ATOM      5  C   UNL     1       6.515   6.927  16.732  0.00  0.00    +0.000 A 
ATOM      6  C   UNL     1       5.821   5.716  16.879  0.00  0.00    +0.000 A 
ENDROOT
BRANCH   4   7
ATOM      7  C   UNL     1       8.185   8.589  17.570  0.00  0.00    +0.000 C 
ATOM      8  N   UNL     1       8.584   9.210  18.632  0.00  0.00    +0.000 NA
BRANCH   8   9
ATOM      9  N   UNL     1       9.230  10.394  18.458  0.00  0.00    +0.000 N 
ATOM     10  C   UNL     1       9.655  11.097  19.581  0.00  0.00    +0.000 C 
ATOM     11  O   UNL     1       9.502  10.725  20.742  0.00  0.00    +0.000 OA
ATOM     12  H   UNL     1       9.293  10.790  17.530  0.00  0.00    +0.000 HD
BRANCH  10  13
ATOM     13  C   UNL     1      10.304  12.414  19.322  0.00  0.00    +0.000 A 
ATOM     14  C   UNL     1      10.475  13.289  20.406  0.00  0.00    +0.000 A 
ATOM     15  C   UNL     1      11.056  14.545  20.217  0.00  0.00    +0.000 A 
ATOM     16  C   UNL     1      11.479  14.929  18.946  0.00  0.00    +0.000 A 
ATOM     17  C   UNL     1      11.336  14.056  17.867  0.00  0.00    +0.000 A 
ATOM     18  C   UNL     1      10.756  12.798  18.054  0.00  0.00    +0.000 A 
ENDBRANCH  10  13
ENDBRANCH   8   9
ENDBRANCH   4   7
BRANCH   1  19
ATOM     19  O   UNL     1       5.267   3.779  18.112  0.00  0.00    +0.000 OA
BRANCH  19  20
ATOM     20  C   UNL     1       3.921   4.025  17.710  0.00  0.00    +0.000 C 
BRANCH  20  22
ATOM     21  O   UNL     1       2.746   4.516  19.721  0.00  0.00    +0.000 OA
ATOM     22  C   UNL     1       3.090   4.928  18.615  0.00  0.00    +0.000 C 
ATOM     23  N   UNL     1       2.792   6.170  18.090  0.00  0.00    +0.000 N 
ATOM     24  H   UNL     1       2.969   6.291  17.097  0.00  0.00    +0.000 HD
BRANCH  23  25
ATOM     25  C   UNL     1       2.202   7.236  18.799  0.00  0.00    +0.000 A 
ATOM     26  C   UNL     1       1.922   7.168  20.170  0.00  0.00    +0.000 A 
ATOM     27  C   UNL     1       1.381   8.265  20.851  0.00  0.00    +0.000 A 
ATOM     28  C   UNL     1       1.111   9.441  20.152  0.00  0.00    +0.000 A 
ATOM     29  C   UNL     1       1.373   9.524  18.780  0.00  0.00    +0.000 A 
ATOM     30  C   UNL     1       1.924   8.422  18.108  0.00  0.00    +0.000 A 
BRANCH  28  31
ATOM     31  N   UNL     1       0.568  10.601  20.873  0.00  0.00    +0.000 N 
ATOM     32  O   UNL     1       0.029  11.495  20.208  0.00  0.00    +0.000 OA
ATOM     33  O   UNL     1       0.674  10.610  22.110  0.00  0.00    +0.000 OA
ENDBRANCH  28  31
ENDBRANCH  23  25
ENDBRANCH  20  22
ENDBRANCH  19  20
ENDBRANCH   1  19
TORSDOF 8
ENDMDL
MODEL 6
REMARK VINA RESULT:      -7.8      1.358      1.798
REMARK  Name = 
REMARK  8 active torsions:
REMARK  status: ('A' for Active; 'I' for Inactive)
REMARK    1  A    between atoms: C_2  and  C_3
REMARK    2  A    between atoms: C_3  and  O_4
REMARK    3  A    between atoms: O_4  and  C_5
REMARK    4  A    between atoms: C_8  and  C_9
REMARK    5  A    between atoms: N_10  and  N_11
REMARK    6  A    between atoms: C_12  and  C_14
REMARK    7  A    between atoms: N_22  and  C_23
REMARK    8  A    between atoms: C_26  and  N_27
REMARK                            x       y       z     vdW  Elec       q    Type
REMARK                         _______ _______ _______ _____ _____    ______ ____
ROOT
ATOM      1  C   UNL     1       6.047   5.246  17.795  0.00  0.00    +0.000 A 
ATOM      2  C   UNL     1       6.977   5.151  18.835  0.00  0.00    +0.000 A 
ATOM      3  C   UNL     1       7.857   6.200  19.095  0.00  0.00    +0.000 A 
ATOM      4  C   UNL     1       7.846   7.337  18.287  0.00  0.00    +0.000 A 
ATOM      5  C   UNL     1       6.964   7.417  17.205  0.00  0.00    +0.000 A 
ATOM      6  C   UNL     1       6.069   6.365  16.957  0.00  0.00    +0.000 A 
ENDROOT
BRANCH   4   7
ATOM      7  C   UNL     1       8.771   8.450  18.589  0.00  0.00    +0.000 C 
ATOM      8  N   UNL     1       8.514   9.645  18.165  0.00  0.00    +0.000 NA
BRANCH   8   9
ATOM      9  N   UNL     1       9.408  10.623  18.472  0.00  0.00    +0.000 N 
ATOM     10  C   UNL     1       9.166  11.918  18.024  0.00  0.00    +0.000 C 
ATOM     11  O   UNL     1       8.184  12.263  17.369  0.00  0.00    +0.000 OA
ATOM     12  H   UNL     1      10.279  10.372  18.922  0.00  0.00    +0.000 HD
BRANCH  10  13
ATOM     13  C   UNL     1      10.214  12.929  18.344  0.00  0.00    +0.000 A 
ATOM     14  C   UNL     1      10.037  14.236  17.866  0.00  0.00    +0.000 A 
ATOM     15  C   UNL     1      10.999  15.217  18.117  0.00  0.00    +0.000 A 
ATOM     16  C   UNL     1      12.136  14.901  18.856  0.00  0.00    +0.000 A 
ATOM     17  C   UNL     1      12.308  13.610  19.357  0.00  0.00    +0.000 A 
ATOM     18  C   UNL     1      11.348  12.626  19.108  0.00  0.00    +0.000 A 
ENDBRANCH  10  13
ENDBRANCH   8   9
ENDBRANCH   4   7
BRANCH   1  19
ATOM     19  O   UNL     1       5.064   4.312  17.553  0.00  0.00    +0.000 OA
BRANCH  19  20
ATOM     20  C   UNL     1       3.862   4.898  17.058  0.00  0.00    +0.000 C 
BRANCH  20  22
ATOM     21  O   UNL     1       2.359   4.762  18.899  0.00  0.00    +0.000 OA
ATOM     22  C   UNL     1       2.918   5.502  18.091  0.00  0.00    +0.000 C 
ATOM     23  N   UNL     1       2.774   6.874  18.023  0.00  0.00    +0.000 N 
ATOM     24  H   UNL     1       3.135   7.321  17.185  0.00  0.00    +0.000 HD
BRANCH  23  25
ATOM     25  C   UNL     1       2.108   7.673  18.975  0.00  0.00    +0.000 A 
ATOM     26  C   UNL     1       1.953   7.284  20.311  0.00  0.00    +0.000 A 
ATOM     27  C   UNL     1       1.329   8.127  21.239  0.00  0.00    +0.000 A 
ATOM     28  C   UNL     1       0.851   9.369  20.826  0.00  0.00    +0.000 A 
ATOM     29  C   UNL     1       0.987   9.770  19.492  0.00  0.00    +0.000 A 
ATOM     30  C   UNL     1       1.621   8.923  18.571  0.00  0.00    +0.000 A 
BRANCH  28  31
ATOM     31  N   UNL     1       0.221  10.264  21.806  0.00  0.00    +0.000 N 
ATOM     32  O   UNL     1      -0.524  11.156  21.381  0.00  0.00    +0.000 OA
ATOM     33  O   UNL     1       0.466  10.064  23.007  0.00  0.00    +0.000 OA
ENDBRANCH  28  31
ENDBRANCH  23  25
ENDBRANCH  20  22
ENDBRANCH  19  20
ENDBRANCH   1  19
TORSDOF 8
ENDMDL
MODEL 7
REMARK VINA RESULT:      -7.5      1.182      1.668
REMARK  Name = 
REMARK  8 active torsions:
REMARK  status: ('A' for Active; 'I' for Inactive)
REMARK    1  A    between atoms: C_2  and  C_3
REMARK    2  A    between atoms: C_3  and  O_4
REMARK    3  A    between atoms: O_4  and  C_5
REMARK    4  A    between atoms: C_8  and  C_9
REMARK    5  A    between atoms: N_10  and  N_11
REMARK    6  A    between atoms: C_12  and  C_14
REMARK    7  A    between atoms: N_22  and  C_23
REMARK    8  A    between atoms: C_26  and  N_27
REMARK                            x       y       z     vdW  Elec       q    Type
REMARK                         _______ _______ _______ _____ _____    ______ ____
ROOT
ATOM      1  C   UNL     1       5.500   4.861  17.342  0.00  0.00    +0.000 A 
ATOM      2  C   UNL     1       5.181   6.127  16.840  0.00  0.00    +0.000 A 
ATOM      3  C   UNL     1       6.093   7.176  16.939  0.00  0.00    +0.000 A 
ATOM      4  C   UNL     1       7.315   6.981  17.583  0.00  0.00    +0.000 A 
ATOM      5  C   UNL     1       7.618   5.737  18.145  0.00  0.00    +0.000 A 
ATOM      6  C   UNL     1       6.704   4.679  18.029  0.00  0.00    +0.000 A 
ENDROOT
BRANCH   4   7
ATOM      7  C   UNL     1       8.280   8.099  17.660  0.00  0.00    +0.000 C 
ATOM      8  N   UNL     1       7.867   9.301  17.898  0.00  0.00    +0.000 NA
BRANCH   8   9
ATOM      9  N   UNL     1       8.805  10.286  17.950  0.00  0.00    +0.000 N 
ATOM     10  C   UNL     1       9.327  10.651  19.186  0.00  0.00    +0.000 C 
ATOM     11  O   UNL     1       9.013  10.141  20.260  0.00  0.00    +0.000 OA
ATOM     12  H   UNL     1       9.024  10.803  17.109  0.00  0.00    +0.000 HD
BRANCH  10  13
ATOM     13  C   UNL     1      10.306  11.776  19.179  0.00  0.00    +0.000 A 
ATOM     14  C   UNL     1      10.230  12.724  20.210  0.00  0.00    +0.000 A 
ATOM     15  C   UNL     1      11.107  13.810  20.239  0.00  0.00    +0.000 A 
ATOM     16  C   UNL     1      12.072  13.948  19.244  0.00  0.00    +0.000 A 
ATOM     17  C   UNL     1      12.172  12.997  18.229  0.00  0.00    +0.000 A 
ATOM     18  C   UNL     1      11.296  11.909  18.197  0.00  0.00    +0.000 A 
ENDBRANCH  10  13
ENDBRANCH   8   9
ENDBRANCH   4   7
BRANCH   1  19
ATOM     19  O   UNL     1       4.710   3.745  17.174  0.00  0.00    +0.000 OA
BRANCH  19  20
ATOM     20  C   UNL     1       3.957   3.426  18.342  0.00  0.00    +0.000 C 
BRANCH  20  22
ATOM     21  O   UNL     1       4.145   4.815  20.266  0.00  0.00    +0.000 OA
ATOM     22  C   UNL     1       3.531   4.595  19.223  0.00  0.00    +0.000 C 
ATOM     23  N   UNL     1       2.458   5.325  18.750  0.00  0.00    +0.000 N 
ATOM     24  H   UNL     1       1.932   4.907  17.989  0.00  0.00    +0.000 HD
BRANCH  23  25
ATOM     25  C   UNL     1       2.003   6.547  19.287  0.00  0.00    +0.000 A 
ATOM     26  C   UNL     1       1.478   6.655  20.581  0.00  0.00    +0.000 A 
ATOM     27  C   UNL     1       1.083   7.895  21.098  0.00  0.00    +0.000 A 
ATOM     28  C   UNL     1       1.208   9.038  20.310  0.00  0.00    +0.000 A 
ATOM     29  C   UNL     1       1.719   8.948  19.011  0.00  0.00    +0.000 A 
ATOM     30  C   UNL     1       2.122   7.703  18.505  0.00  0.00    +0.000 A 
BRANCH  28  31
ATOM     31  N   UNL     1       0.817  10.342  20.863  0.00  0.00    +0.000 N 
ATOM     32  O   UNL     1       0.349  11.184  20.085  0.00  0.00    +0.000 OA
ATOM     33  O   UNL     1       0.972  10.519  22.082  0.00  0.00    +0.000 OA
ENDBRANCH  28  31
ENDBRANCH  23  25
ENDBRANCH  20  22
ENDBRANCH  19  20
ENDBRANCH   1  19
TORSDOF 8
ENDMDL
MODEL 8
REMARK VINA RESULT:      -7.5      1.655      2.097
REMARK  Name = 
REMARK  8 active torsions:
REMARK  status: ('A' for Active; 'I' for Inactive)
REMARK    1  A    between atoms: C_2  and  C_3
REMARK    2  A    between atoms: C_3  and  O_4
REMARK    3  A    between atoms: O_4  and  C_5
REMARK    4  A    between atoms: C_8  and  C_9
REMARK    5  A    between atoms: N_10  and  N_11
REMARK    6  A    between atoms: C_12  and  C_14
REMARK    7  A    between atoms: N_22  and  C_23
REMARK    8  A    between atoms: C_26  and  N_27
REMARK                            x       y       z     vdW  Elec       q    Type
REMARK                         _______ _______ _______ _____ _____    ______ ____
ROOT
ATOM      1  C   UNL     1       6.864   5.341  17.377  0.00  0.00    +0.000 A 
ATOM      2  C   UNL     1       6.791   6.534  16.649  0.00  0.00    +0.000 A 
ATOM      3  C   UNL     1       7.436   7.681  17.107  0.00  0.00    +0.000 A 
ATOM      4  C   UNL     1       8.121   7.660  18.322  0.00  0.00    +0.000 A 
ATOM      5  C   UNL     1       8.147   6.491  19.089  0.00  0.00    +0.000 A 
ATOM      6  C   UNL     1       7.510   5.333  18.616  0.00  0.00    +0.000 A 
ENDROOT
BRANCH   4   7
ATOM      7  C   UNL     1       8.818   8.880  18.783  0.00  0.00    +0.000 C 
ATOM      8  N   UNL     1       8.635  10.005  18.172  0.00  0.00    +0.000 NA
BRANCH   8   9
ATOM      9  N   UNL     1       9.311  11.089  18.641  0.00  0.00    +0.000 N 
ATOM     10  C   UNL     1       9.021  12.341  18.111  0.00  0.00    +0.000 C 
ATOM     11  O   UNL     1       8.179  12.559  17.243  0.00  0.00    +0.000 OA
ATOM     12  H   UNL     1      10.081  10.950  19.283  0.00  0.00    +0.000 HD
BRANCH  10  13
ATOM     13  C   UNL     1       9.838  13.477  18.627  0.00  0.00    +0.000 A 
ATOM     14  C   UNL     1       9.964  13.621  20.017  0.00  0.00    +0.000 A 
ATOM     15  C   UNL     1      10.699  14.680  20.555  0.00  0.00    +0.000 A 
ATOM     16  C   UNL     1      11.321  15.593  19.707  0.00  0.00    +0.000 A 
ATOM     17  C   UNL     1      11.222  15.444  18.323  0.00  0.00    +0.000 A 
ATOM     18  C   UNL     1      10.488  14.385  17.782  0.00  0.00    +0.000 A 
ENDBRANCH  10  13
ENDBRANCH   8   9
ENDBRANCH   4   7
BRANCH   1  19
ATOM     19  O   UNL     1       6.363   4.137  16.933  0.00  0.00    +0.000 OA
BRANCH  19  20
ATOM     20  C   UNL     1       4.952   4.171  16.733  0.00  0.00    +0.000 C 
BRANCH  20  22
ATOM     21  O   UNL     1       4.130   4.191  18.967  0.00  0.00    +0.000 OA
ATOM     22  C   UNL     1       4.112   4.745  17.868  0.00  0.00    +0.000 C 
ATOM     23  N   UNL     1       3.385   5.874  17.548  0.00  0.00    +0.000 N 
ATOM     24  H   UNL     1       3.313   6.095  16.559  0.00  0.00    +0.000 HD
BRANCH  23  25
ATOM     25  C   UNL     1       2.687   6.683  18.468  0.00  0.00    +0.000 A 
ATOM     26  C   UNL     1       2.338   6.241  19.750  0.00  0.00    +0.000 A 
ATOM     27  C   UNL     1       1.688   7.091  20.654  0.00  0.00    +0.000 A 
ATOM     28  C   UNL     1       1.379   8.394  20.269  0.00  0.00    +0.000 A 
ATOM     29  C   UNL     1       1.708   8.850  18.988  0.00  0.00    +0.000 A 
ATOM     30  C   UNL     1       2.368   7.995  18.093  0.00  0.00    +0.000 A 
BRANCH  28  31
ATOM     31  N   UNL     1       0.721   9.293  21.228  0.00  0.00    +0.000 N 
ATOM     32  O   UNL     1       0.974  10.502  21.155  0.00  0.00    +0.000 OA
ATOM     33  O   UNL     1      -0.060   8.786  22.049  0.00  0.00    +0.000 OA
ENDBRANCH  28  31
ENDBRANCH  23  25
ENDBRANCH  20  22
ENDBRANCH  19  20
ENDBRANCH   1  19
TORSDOF 8
ENDMDL
MODEL 9
REMARK VINA RESULT:      -7.4      1.216      1.275
REMARK  Name = 
REMARK  8 active torsions:
REMARK  status: ('A' for Active; 'I' for Inactive)
REMARK    1  A    between atoms: C_2  and  C_3
REMARK    2  A    between atoms: C_3  and  O_4
REMARK    3  A    between atoms: O_4  and  C_5
REMARK    4  A    between atoms: C_8  and  C_9
REMARK    5  A    between atoms: N_10  and  N_11
REMARK    6  A    between atoms: C_12  and  C_14
REMARK    7  A    between atoms: N_22  and  C_23
REMARK    8  A    between atoms: C_26  and  N_27
REMARK                            x       y       z     vdW  Elec       q    Type
REMARK                         _______ _______ _______ _____ _____    ______ ____
ROOT
ATOM      1  C   UNL     1       5.945   5.430  17.905  0.00  0.00    +0.000 A 
ATOM      2  C   UNL     1       7.002   5.432  18.821  0.00  0.00    +0.000 A 
ATOM      3  C   UNL     1       7.899   6.497  18.862  0.00  0.00    +0.000 A 
ATOM      4  C   UNL     1       7.776   7.550  17.955  0.00  0.00    +0.000 A 
ATOM      5  C   UNL     1       6.762   7.528  16.993  0.00  0.00    +0.000 A 
ATOM      6  C   UNL     1       5.851   6.462  16.966  0.00  0.00    +0.000 A 
ENDROOT
BRANCH   4   7
ATOM      7  C   UNL     1       8.724   8.683  18.026  0.00  0.00    +0.000 C 
ATOM      8  N   UNL     1       8.629   9.553  18.978  0.00  0.00    +0.000 NA
BRANCH   8   9
ATOM      9  N   UNL     1       9.527  10.575  18.983  0.00  0.00    +0.000 N 
ATOM     10  C   UNL     1       9.252  11.713  18.233  0.00  0.00    +0.000 C 
ATOM     11  O   UNL     1       8.238  11.883  17.559  0.00  0.00    +0.000 OA
ATOM     12  H   UNL     1      10.420  10.445  19.441  0.00  0.00    +0.000 HD
BRANCH  10  13
ATOM     13  C   UNL     1      10.305  12.770  18.235  0.00  0.00    +0.000 A 
ATOM     14  C   UNL     1      11.088  12.923  17.081  0.00  0.00    +0.000 A 
ATOM     15  C   UNL     1      12.103  13.881  17.037  0.00  0.00    +0.000 A 
ATOM     16  C   UNL     1      12.333  14.700  18.141  0.00  0.00    +0.000 A 
ATOM     17  C   UNL     1      11.542  14.571  19.283  0.00  0.00    +0.000 A 
ATOM     18  C   UNL     1      10.526  13.614  19.330  0.00  0.00    +0.000 A 
ENDBRANCH  10  13
ENDBRANCH   8   9
ENDBRANCH   4   7
BRANCH   1  19
ATOM     19  O   UNL     1       4.946   4.482  17.884  0.00  0.00    +0.000 OA
BRANCH  19  20
ATOM     20  C   UNL     1       4.364   4.271  19.169  0.00  0.00    +0.000 C 
BRANCH  20  22
ATOM     21  O   UNL     1       2.687   5.066  20.659  0.00  0.00    +0.000 OA
ATOM     22  C   UNL     1       3.290   5.261  19.605  0.00  0.00    +0.000 C 
ATOM     23  N   UNL     1       3.087   6.323  18.746  0.00  0.00    +0.000 N 
ATOM     24  H   UNL     1       3.510   6.242  17.826  0.00  0.00    +0.000 HD
BRANCH  23  25
ATOM     25  C   UNL     1       2.288   7.452  19.019  0.00  0.00    +0.000 A 
ATOM     26  C   UNL     1       1.807   7.745  20.301  0.00  0.00    +0.000 A 
ATOM     27  C   UNL     1       1.057   8.903  20.543  0.00  0.00    +0.000 A 
ATOM     28  C   UNL     1       0.781   9.774  19.490  0.00  0.00    +0.000 A 
ATOM     29  C   UNL     1       1.243   9.492  18.200  0.00  0.00    +0.000 A 
ATOM     30  C   UNL     1       2.001   8.334  17.969  0.00  0.00    +0.000 A 
BRANCH  28  31
ATOM     31  N   UNL     1       0.018  11.002  19.750  0.00  0.00    +0.000 N 
ATOM     32  O   UNL     1       0.540  11.868  20.464  0.00  0.00    +0.000 OA
ATOM     33  O   UNL     1      -1.104  11.103  19.228  0.00  0.00    +0.000 OA
ENDBRANCH  28  31
ENDBRANCH  23  25
ENDBRANCH  20  22
ENDBRANCH  19  20
ENDBRANCH   1  19
TORSDOF 8
ENDMDL
