MODEL 1
REMARK VINA RESULT:      -9.2      0.000      0.000
REMARK  Name = 
REMARK  7 active torsions:
REMARK  status: ('A' for Active; 'I' for Inactive)
REMARK    1  A    between atoms: C_2  and  C_3
REMARK    2  A    between atoms: C_3  and  C_4
REMARK    3  A    between atoms: C_4  and  C_5
REMARK    4  A    between atoms: C_5  and  C_7
REMARK    5  A    between atoms: N_28  and  C_29
REMARK    6  A    between atoms: C_29  and  C_30
REMARK    7  A    between atoms: C_30  and  O_31
REMARK                            x       y       z     vdW  Elec       q    Type
REMARK                         _______ _______ _______ _____ _____    ______ ____
ROOT
ATOM      1  C   UNL     1       3.498   5.154  18.395  0.00  0.00    +0.000 A 
ATOM      2  C   UNL     1       3.268   4.306  19.479  0.00  0.00    +0.000 A 
ATOM      3  C   UNL     1       2.538   4.746  20.599  0.00  0.00    +0.000 A 
ATOM      4  C   UNL     1       2.039   6.059  20.593  0.00  0.00    +0.000 A 
ATOM      5  N   UNL     1       1.292   6.754  21.555  0.00  0.00    +0.000 N 
ATOM      6  C   UNL     1       1.044   8.028  21.111  0.00  0.00    +0.000 A 
ATOM      7  C   UNL     1       0.388   9.085  21.640  0.00  0.00    +0.000 A 
ATOM      8  C   UNL     1       0.281  10.321  20.986  0.00  0.00    +0.000 A 
ATOM      9  C   UNL     1       0.931  10.421  19.762  0.00  0.00    +0.000 A 
ATOM     10  C   UNL     1       1.572   9.309  19.196  0.00  0.00    +0.000 A 
ATOM     11  C   UNL     1       1.633   8.096  19.900  0.00  0.00    +0.000 A 
ATOM     12  C   UNL     1       2.267   6.929  19.511  0.00  0.00    +0.000 A 
ATOM     13  C   UNL     1       3.012   6.465  18.418  0.00  0.00    +0.000 A 
ATOM     14  C   UNL     1       2.068   9.711  17.909  0.00  0.00    +0.000 C 
ATOM     15  O   UNL     1       2.580   9.129  16.963  0.00  0.00    +0.000 OA
ATOM     16  N   UNL     1       1.787  11.052  17.859  0.00  0.00    +0.000 N 
ATOM     17  C   UNL     1       1.044  11.546  18.892  0.00  0.00    +0.000 C 
ATOM     18  O   UNL     1       0.612  12.688  18.948  0.00  0.00    +0.000 OA
ATOM     19  C   UNL     1      -0.510  11.319  21.751  0.00  0.00    +0.000 C 
ATOM     20  C   UNL     1      -0.888  10.558  23.040  0.00  0.00    +0.000 C 
ATOM     21  C   UNL     1      -0.314   9.115  22.958  0.00  0.00    +0.000 C 
ATOM     22  H   UNL     1       0.996   6.367  22.440  0.00  0.00    +0.000 HD
ATOM     23  H   UNL     1       2.000  11.596  17.043  0.00  0.00    +0.000 HD
ENDROOT
BRANCH   1  24
ATOM     24  C   UNL     1       4.274   4.773  17.181  0.00  0.00    +0.000 C 
ATOM     25  O   UNL     1       3.893   3.811  16.509  0.00  0.00    +0.000 OA
BRANCH  24  26
ATOM     26  C   UNL     1       5.547   5.520  16.839  0.00  0.00    +0.000 C 
BRANCH  26  27
ATOM     27  C   UNL     1       6.675   4.560  16.471  0.00  0.00    +0.000 C 
BRANCH  27  29
ATOM     28  O   UNL     1       7.782   5.520  14.570  0.00  0.00    +0.000 OA
ATOM     29  C   UNL     1       7.015   4.663  14.998  0.00  0.00    +0.000 C 
ATOM     30  N   UNL     1       6.344   3.764  14.204  0.00  0.00    +0.000 N 
ATOM     31  H   UNL     1       5.651   3.163  14.648  0.00  0.00    +0.000 HD
BRANCH  30  32
ATOM     32  C   UNL     1       6.485   3.735  12.759  0.00  0.00    +0.000 C 
BRANCH  32  33
ATOM     33  C   UNL     1       5.347   2.965  12.088  0.00  0.00    +0.000 C 
BRANCH  33  34
ATOM     34  O   UNL     1       5.792   1.689  11.636  0.00  0.00    +0.000 OA
ATOM     35  H   UNL     1       6.715   1.802  11.335  0.00  0.00    +0.000 HD
ENDBRANCH  33  34
ENDBRANCH  32  33
ENDBRANCH  30  32
ENDBRANCH  27  29
ENDBRANCH  26  27
ENDBRANCH  24  26
ENDBRANCH   1  24
TORSDOF 7
ENDMDL
MODEL 2
REMARK VINA RESULT:      -8.8      1.734      2.832
REMARK  Name = 
REMARK  7 active torsions:
REMARK  status: ('A' for Active; 'I' for Inactive)
REMARK    1  A    between atoms: C_2  and  C_3
REMARK    2  A    between atoms: C_3  and  C_4
REMARK    3  A    between atoms: C_4  and  C_5
REMARK    4  A    between atoms: C_5  and  C_7
REMARK    5  A    between atoms: N_28  and  C_29
REMARK    6  A    between atoms: C_29  and  C_30
REMARK    7  A    between atoms: C_30  and  O_31
REMARK                            x       y       z     vdW  Elec       q    Type
REMARK                         _______ _______ _______ _____ _____    ______ ____
ROOT
ATOM      1  C   UNL     1       3.308   4.992  18.496  0.00  0.00    +0.000 A 
ATOM      2  C   UNL     1       3.054   4.199  19.616  0.00  0.00    +0.000 A 
ATOM      3  C   UNL     1       2.361   4.717  20.726  0.00  0.00    +0.000 A 
ATOM      4  C   UNL     1       1.924   6.051  20.674  0.00  0.00    +0.000 A 
ATOM      5  N   UNL     1       1.224   6.817  21.616  0.00  0.00    +0.000 N 
ATOM      6  C   UNL     1       1.029   8.083  21.125  0.00  0.00    +0.000 A 
ATOM      7  C   UNL     1       0.430   9.190  21.620  0.00  0.00    +0.000 A 
ATOM      8  C   UNL     1       0.371  10.402  20.918  0.00  0.00    +0.000 A 
ATOM      9  C   UNL     1       1.008  10.424  19.683  0.00  0.00    +0.000 A 
ATOM     10  C   UNL     1       1.588   9.261  19.154  0.00  0.00    +0.000 A 
ATOM     11  C   UNL     1       1.603   8.075  19.906  0.00  0.00    +0.000 A 
ATOM     12  C   UNL     1       2.177   6.866  19.556  0.00  0.00    +0.000 A 
ATOM     13  C   UNL     1       2.884   6.325  18.473  0.00  0.00    +0.000 A 
ATOM     14  C   UNL     1       2.084   9.589  17.847  0.00  0.00    +0.000 C 
ATOM     15  O   UNL     1       2.555   8.947  16.918  0.00  0.00    +0.000 OA
ATOM     16  N   UNL     1       1.865  10.939  17.746  0.00  0.00    +0.000 N 
ATOM     17  C   UNL     1       1.161  11.507  18.768  0.00  0.00    +0.000 C 
ATOM     18  O   UNL     1       0.783  12.669  18.783  0.00  0.00    +0.000 OA
ATOM     19  C   UNL     1      -0.362  11.465  21.652  0.00  0.00    +0.000 C 
ATOM     20  C   UNL     1      -0.757  10.774  22.976  0.00  0.00    +0.000 C 
ATOM     21  C   UNL     1      -0.251   9.304  22.944  0.00  0.00    +0.000 C 
ATOM     22  H   UNL     1       0.923   6.479  22.520  0.00  0.00    +0.000 HD
ATOM     23  H   UNL     1       2.092  11.440  16.906  0.00  0.00    +0.000 HD
ENDROOT
BRANCH   1  24
ATOM     24  C   UNL     1       4.049   4.528  17.289  0.00  0.00    +0.000 C 
ATOM     25  O   UNL     1       4.185   3.315  17.104  0.00  0.00    +0.000 OA
BRANCH  24  26
ATOM     26  C   UNL     1       4.680   5.543  16.359  0.00  0.00    +0.000 C 
BRANCH  26  27
ATOM     27  C   UNL     1       5.978   5.015  15.754  0.00  0.00    +0.000 C 
BRANCH  27  29
ATOM     28  O   UNL     1       8.033   4.327  16.788  0.00  0.00    +0.000 OA
ATOM     29  C   UNL     1       7.126   5.152  16.735  0.00  0.00    +0.000 C 
ATOM     30  N   UNL     1       7.016   6.230  17.580  0.00  0.00    +0.000 N 
ATOM     31  H   UNL     1       6.169   6.796  17.521  0.00  0.00    +0.000 HD
BRANCH  30  32
ATOM     32  C   UNL     1       7.980   6.507  18.630  0.00  0.00    +0.000 C 
BRANCH  32  33
ATOM     33  C   UNL     1       7.662   5.744  19.916  0.00  0.00    +0.000 C 
BRANCH  33  34
ATOM     34  O   UNL     1       8.830   5.121  20.442  0.00  0.00    +0.000 OA
ATOM     35  H   UNL     1       8.865   4.220  20.063  0.00  0.00    +0.000 HD
ENDBRANCH  33  34
ENDBRANCH  32  33
ENDBRANCH  30  32
ENDBRANCH  27  29
ENDBRANCH  26  27
ENDBRANCH  24  26
ENDBRANCH   1  24
TORSDOF 7
ENDMDL
MODEL 3
REMARK VINA RESULT:      -8.7      0.926      1.005
REMARK  Name = 
REMARK  7 active torsions:
REMARK  status: ('A' for Active; 'I' for Inactive)
REMARK    1  A    between atoms: C_2  and  C_3
REMARK    2  A    between atoms: C_3  and  C_4
REMARK    3  A    between atoms: C_4  and  C_5
REMARK    4  A    between atoms: C_5  and  C_7
REMARK    5  A    between atoms: N_28  and  C_29
REMARK    6  A    between atoms: C_29  and  C_30
REMARK    7  A    between atoms: C_30  and  O_31
REMARK                            x       y       z     vdW  Elec       q    Type
REMARK                         _______ _______ _______ _____ _____    ______ ____
ROOT
ATOM      1  C   UNL     1       3.085   5.713  18.608  0.00  0.00    +0.000 A 
ATOM      2  C   UNL     1       2.765   4.864  19.669  0.00  0.00    +0.000 A 
ATOM      3  C   UNL     1       2.005   5.326  20.760  0.00  0.00    +0.000 A 
ATOM      4  C   UNL     1       1.569   6.661  20.749  0.00  0.00    +0.000 A 
ATOM      5  N   UNL     1       0.812   7.379  21.685  0.00  0.00    +0.000 N 
ATOM      6  C   UNL     1       0.646   8.669  21.247  0.00  0.00    +0.000 A 
ATOM      7  C   UNL     1       0.016   9.750  21.761  0.00  0.00    +0.000 A 
ATOM      8  C   UNL     1      -0.003  10.997  21.119  0.00  0.00    +0.000 A 
ATOM      9  C   UNL     1       0.708  11.080  19.928  0.00  0.00    +0.000 A 
ATOM     10  C   UNL     1       1.322   9.945  19.377  0.00  0.00    +0.000 A 
ATOM     11  C   UNL     1       1.292   8.723  20.067  0.00  0.00    +0.000 A 
ATOM     12  C   UNL     1       1.889   7.532  19.691  0.00  0.00    +0.000 A 
ATOM     13  C   UNL     1       2.661   7.045  18.627  0.00  0.00    +0.000 A 
ATOM     14  C   UNL     1       1.896  10.339  18.120  0.00  0.00    +0.000 C 
ATOM     15  O   UNL     1       2.423   9.744  17.190  0.00  0.00    +0.000 OA
ATOM     16  N   UNL     1       1.681  11.692  18.075  0.00  0.00    +0.000 N 
ATOM     17  C   UNL     1       0.915  12.209  19.080  0.00  0.00    +0.000 C 
ATOM     18  O   UNL     1       0.535  13.369  19.131  0.00  0.00    +0.000 OA
ATOM     19  C   UNL     1      -0.780  12.022  21.861  0.00  0.00    +0.000 C 
ATOM     20  C   UNL     1      -1.254  11.265  23.121  0.00  0.00    +0.000 C 
ATOM     21  C   UNL     1      -0.745   9.798  23.045  0.00  0.00    +0.000 C 
ATOM     22  H   UNL     1       0.457   6.997  22.550  0.00  0.00    +0.000 HD
ATOM     23  H   UNL     1       1.958  12.234  17.277  0.00  0.00    +0.000 HD
ENDROOT
BRANCH   1  24
ATOM     24  C   UNL     1       3.898   5.309  17.426  0.00  0.00    +0.000 C 
ATOM     25  O   UNL     1       3.904   4.123  17.085  0.00  0.00    +0.000 OA
BRANCH  24  26
ATOM     26  C   UNL     1       4.753   6.338  16.716  0.00  0.00    +0.000 C 
BRANCH  26  27
ATOM     27  C   UNL     1       6.229   6.179  17.072  0.00  0.00    +0.000 C 
BRANCH  27  29
ATOM     28  O   UNL     1       7.897   4.588  16.402  0.00  0.00    +0.000 OA
ATOM     29  C   UNL     1       6.929   5.270  16.082  0.00  0.00    +0.000 C 
ATOM     30  N   UNL     1       6.421   5.334  14.806  0.00  0.00    +0.000 N 
ATOM     31  H   UNL     1       5.680   6.011  14.623  0.00  0.00    +0.000 HD
BRANCH  30  32
ATOM     32  C   UNL     1       6.985   4.585  13.698  0.00  0.00    +0.000 C 
BRANCH  32  33
ATOM     33  C   UNL     1       5.944   3.693  13.020  0.00  0.00    +0.000 C 
BRANCH  33  34
ATOM     34  O   UNL     1       6.557   2.819  12.077  0.00  0.00    +0.000 OA
ATOM     35  H   UNL     1       7.074   3.380  11.466  0.00  0.00    +0.000 HD
ENDBRANCH  33  34
ENDBRANCH  32  33
ENDBRANCH  30  32
ENDBRANCH  27  29
ENDBRANCH  26  27
ENDBRANCH  24  26
ENDBRANCH   1  24
TORSDOF 7
ENDMDL
MODEL 4
REMARK VINA RESULT:      -8.6      2.044      3.252
REMARK  Name = 
REMARK  7 active torsions:
REMARK  status: ('A' for Active; 'I' for Inactive)
REMARK    1  A    between atoms: C_2  and  C_3
REMARK    2  A    between atoms: C_3  and  C_4
REMARK    3  A    between atoms: C_4  and  C_5
REMARK    4  A    between atoms: C_5  and  C_7
REMARK    5  A    between atoms: N_28  and  C_29
REMARK    6  A    between atoms: C_29  and  C_30
REMARK    7  A    between atoms: C_30  and  O_31
REMARK                            x       y       z     vdW  Elec       q    Type
REMARK                         _______ _______ _______ _____ _____    ______ ____
ROOT
ATOM      1  C   UNL     1       3.482   5.264  18.349  0.00  0.00    +0.000 A 
ATOM      2  C   UNL     1       3.265   4.402  19.425  0.00  0.00    +0.000 A 
ATOM      3  C   UNL     1       2.535   4.824  20.552  0.00  0.00    +0.000 A 
ATOM      4  C   UNL     1       2.023   6.131  20.562  0.00  0.00    +0.000 A 
ATOM      5  N   UNL     1       1.273   6.808  21.533  0.00  0.00    +0.000 N 
ATOM      6  C   UNL     1       1.009   8.084  21.103  0.00  0.00    +0.000 A 
ATOM      7  C   UNL     1       0.344   9.129  21.645  0.00  0.00    +0.000 A 
ATOM      8  C   UNL     1       0.221  10.370  21.004  0.00  0.00    +0.000 A 
ATOM      9  C   UNL     1       0.865  10.489  19.779  0.00  0.00    +0.000 A 
ATOM     10  C   UNL     1       1.515   9.389  19.199  0.00  0.00    +0.000 A 
ATOM     11  C   UNL     1       1.592   8.170  19.891  0.00  0.00    +0.000 A 
ATOM     12  C   UNL     1       2.237   7.015  19.488  0.00  0.00    +0.000 A 
ATOM     13  C   UNL     1       2.983   6.569  18.387  0.00  0.00    +0.000 A 
ATOM     14  C   UNL     1       2.002   9.810  17.914  0.00  0.00    +0.000 C 
ATOM     15  O   UNL     1       2.515   9.243  16.960  0.00  0.00    +0.000 OA
ATOM     16  N   UNL     1       1.706  11.148  17.878  0.00  0.00    +0.000 N 
ATOM     17  C   UNL     1       0.962  11.624  18.920  0.00  0.00    +0.000 C 
ATOM     18  O   UNL     1       0.519  12.760  18.988  0.00  0.00    +0.000 OA
ATOM     19  C   UNL     1      -0.577  11.351  21.782  0.00  0.00    +0.000 C 
ATOM     20  C   UNL     1      -0.942  10.574  23.066  0.00  0.00    +0.000 C 
ATOM     21  C   UNL     1      -0.353   9.138  22.966  0.00  0.00    +0.000 C 
ATOM     22  H   UNL     1       0.985   6.410  22.416  0.00  0.00    +0.000 HD
ATOM     23  H   UNL     1       1.910  11.703  17.067  0.00  0.00    +0.000 HD
ENDROOT
BRANCH   1  24
ATOM     24  C   UNL     1       4.257   4.903  17.128  0.00  0.00    +0.000 C 
ATOM     25  O   UNL     1       4.425   3.710  16.861  0.00  0.00    +0.000 OA
BRANCH  24  26
ATOM     26  C   UNL     1       4.882   5.996  16.286  0.00  0.00    +0.000 C 
BRANCH  26  27
ATOM     27  C   UNL     1       6.352   5.705  15.996  0.00  0.00    +0.000 C 
BRANCH  27  29
ATOM     28  O   UNL     1       7.539   5.321  18.047  0.00  0.00    +0.000 OA
ATOM     29  C   UNL     1       7.225   6.114  17.166  0.00  0.00    +0.000 C 
ATOM     30  N   UNL     1       7.567   7.446  17.171  0.00  0.00    +0.000 N 
ATOM     31  H   UNL     1       7.168   8.042  16.446  0.00  0.00    +0.000 HD
BRANCH  30  32
ATOM     32  C   UNL     1       8.349   8.051  18.233  0.00  0.00    +0.000 C 
BRANCH  32  33
ATOM     33  C   UNL     1       8.371   9.577  18.131  0.00  0.00    +0.000 C 
BRANCH  33  34
ATOM     34  O   UNL     1       9.045  10.154  19.246  0.00  0.00    +0.000 OA
ATOM     35  H   UNL     1       9.044   9.481  19.955  0.00  0.00    +0.000 HD
ENDBRANCH  33  34
ENDBRANCH  32  33
ENDBRANCH  30  32
ENDBRANCH  27  29
ENDBRANCH  26  27
ENDBRANCH  24  26
ENDBRANCH   1  24
TORSDOF 7
ENDMDL
MODEL 5
REMARK VINA RESULT:      -8.5      1.633      2.563
REMARK  Name = 
REMARK  7 active torsions:
REMARK  status: ('A' for Active; 'I' for Inactive)
REMARK    1  A    between atoms: C_2  and  C_3
REMARK    2  A    between atoms: C_3  and  C_4
REMARK    3  A    between atoms: C_4  and  C_5
REMARK    4  A    between atoms: C_5  and  C_7
REMARK    5  A    between atoms: N_28  and  C_29
REMARK    6  A    between atoms: C_29  and  C_30
REMARK    7  A    between atoms: C_30  and  O_31
REMARK                            x       y       z     vdW  Elec       q    Type
REMARK                         _______ _______ _______ _____ _____    ______ ____
ROOT
ATOM      1  C   UNL     1       3.396   5.736  18.325  0.00  0.00    +0.000 A 
ATOM      2  C   UNL     1       3.164   4.820  19.352  0.00  0.00    +0.000 A 
ATOM      3  C   UNL     1       2.410   5.179  20.485  0.00  0.00    +0.000 A 
ATOM      4  C   UNL     1       1.889   6.482  20.551  0.00  0.00    +0.000 A 
ATOM      5  N   UNL     1       1.116   7.104  21.541  0.00  0.00    +0.000 N 
ATOM      6  C   UNL     1       0.853   8.399  21.171  0.00  0.00    +0.000 A 
ATOM      7  C   UNL     1       0.171   9.411  21.753  0.00  0.00    +0.000 A 
ATOM      8  C   UNL     1       0.051  10.682  21.173  0.00  0.00    +0.000 A 
ATOM      9  C   UNL     1       0.718  10.868  19.968  0.00  0.00    +0.000 A 
ATOM     10  C   UNL     1       1.386   9.802  19.346  0.00  0.00    +0.000 A 
ATOM     11  C   UNL     1       1.457   8.550  19.976  0.00  0.00    +0.000 A 
ATOM     12  C   UNL     1       2.118   7.420  19.527  0.00  0.00    +0.000 A 
ATOM     13  C   UNL     1       2.887   7.035  18.420  0.00  0.00    +0.000 A 
ATOM     14  C   UNL     1       1.894  10.291  18.094  0.00  0.00    +0.000 C 
ATOM     15  O   UNL     1       2.430   9.776  17.122  0.00  0.00    +0.000 OA
ATOM     16  N   UNL     1       1.591  11.627  18.120  0.00  0.00    +0.000 N 
ATOM     17  C   UNL     1       0.824  12.045  19.170  0.00  0.00    +0.000 C 
ATOM     18  O   UNL     1       0.372  13.174  19.287  0.00  0.00    +0.000 OA
ATOM     19  C   UNL     1      -0.768  11.618  21.985  0.00  0.00    +0.000 C 
ATOM     20  C   UNL     1      -1.152  10.774  23.220  0.00  0.00    +0.000 C 
ATOM     21  C   UNL     1      -0.551   9.349  23.059  0.00  0.00    +0.000 C 
ATOM     22  H   UNL     1       0.814   6.659  22.396  0.00  0.00    +0.000 HD
ATOM     23  H   UNL     1       1.807  12.223  17.342  0.00  0.00    +0.000 HD
ENDROOT
BRANCH   1  24
ATOM     24  C   UNL     1       4.196   5.443  17.103  0.00  0.00    +0.000 C 
ATOM     25  O   UNL     1       4.680   6.384  16.468  0.00  0.00    +0.000 OA
BRANCH  24  26
ATOM     26  C   UNL     1       4.338   4.013  16.624  0.00  0.00    +0.000 C 
BRANCH  26  27
ATOM     27  C   UNL     1       5.507   3.862  15.654  0.00  0.00    +0.000 C 
BRANCH  27  29
ATOM     28  O   UNL     1       7.666   4.905  15.543  0.00  0.00    +0.000 OA
ATOM     29  C   UNL     1       6.779   4.434  16.247  0.00  0.00    +0.000 C 
ATOM     30  N   UNL     1       6.863   4.314  17.614  0.00  0.00    +0.000 N 
ATOM     31  H   UNL     1       6.116   3.812  18.094  0.00  0.00    +0.000 HD
BRANCH  30  32
ATOM     32  C   UNL     1       8.024   4.747  18.370  0.00  0.00    +0.000 C 
BRANCH  32  33
ATOM     33  C   UNL     1       7.860   6.169  18.909  0.00  0.00    +0.000 C 
BRANCH  33  34
ATOM     34  O   UNL     1       7.507   7.072  17.865  0.00  0.00    +0.000 OA
ATOM     35  H   UNL     1       6.628   7.436  18.091  0.00  0.00    +0.000 HD
ENDBRANCH  33  34
ENDBRANCH  32  33
ENDBRANCH  30  32
ENDBRANCH  27  29
ENDBRANCH  26  27
ENDBRANCH  24  26
ENDBRANCH   1  24
TORSDOF 7
ENDMDL
MODEL 6
REMARK VINA RESULT:      -8.3      2.672      4.417
REMARK  Name = 
REMARK  7 active torsions:
REMARK  status: ('A' for Active; 'I' for Inactive)
REMARK    1  A    between atoms: C_2  and  C_3
REMARK    2  A    between atoms: C_3  and  C_4
REMARK    3  A    between atoms: C_4  and  C_5
REMARK    4  A    between atoms: C_5  and  C_7
REMARK    5  A    between atoms: N_28  and  C_29
REMARK    6  A    between atoms: C_29  and  C_30
REMARK    7  A    between atoms: C_30  and  O_31
REMARK                            x       y       z     vdW  Elec       q    Type
REMARK                         _______ _______ _______ _____ _____    ______ ____
ROOT
ATOM      1  C   UNL     1       2.288   6.666  19.399  0.00  0.00    +0.000 A 
ATOM      2  C   UNL     1       2.781   6.966  18.127  0.00  0.00    +0.000 A 
ATOM      3  C   UNL     1       2.615   8.248  17.572  0.00  0.00    +0.000 A 
ATOM      4  C   UNL     1       1.948   9.221  18.334  0.00  0.00    +0.000 A 
ATOM      5  N   UNL     1       1.644  10.558  18.040  0.00  0.00    +0.000 N 
ATOM      6  C   UNL     1       0.964  11.116  19.093  0.00  0.00    +0.000 A 
ATOM      7  C   UNL     1       0.447  12.345  19.318  0.00  0.00    +0.000 A 
ATOM      8  C   UNL     1      -0.236  12.681  20.495  0.00  0.00    +0.000 A 
ATOM      9  C   UNL     1      -0.396  11.656  21.420  0.00  0.00    +0.000 A 
ATOM     10  C   UNL     1       0.182  10.396  21.203  0.00  0.00    +0.000 A 
ATOM     11  C   UNL     1       0.864  10.130  20.006  0.00  0.00    +0.000 A 
ATOM     12  C   UNL     1       1.440   8.934  19.615  0.00  0.00    +0.000 A 
ATOM     13  C   UNL     1       1.607   7.642  20.132  0.00  0.00    +0.000 A 
ATOM     14  C   UNL     1      -0.091   9.596  22.365  0.00  0.00    +0.000 C 
ATOM     15  O   UNL     1       0.270   8.495  22.757  0.00  0.00    +0.000 OA
ATOM     16  N   UNL     1      -0.901  10.398  23.127  0.00  0.00    +0.000 N 
ATOM     17  C   UNL     1      -1.077  11.673  22.674  0.00  0.00    +0.000 C 
ATOM     18  O   UNL     1      -1.673  12.547  23.285  0.00  0.00    +0.000 OA
ATOM     19  C   UNL     1      -0.687  14.096  20.524  0.00  0.00    +0.000 C 
ATOM     20  C   UNL     1      -0.221  14.644  19.158  0.00  0.00    +0.000 C 
ATOM     21  C   UNL     1       0.518  13.513  18.389  0.00  0.00    +0.000 C 
ATOM     22  H   UNL     1       1.885  11.023  17.177  0.00  0.00    +0.000 HD
ATOM     23  H   UNL     1      -1.226  10.099  24.028  0.00  0.00    +0.000 HD
ENDROOT
BRANCH   1  24
ATOM     24  C   UNL     1       2.406   5.331  20.051  0.00  0.00    +0.000 C 
ATOM     25  O   UNL     1       2.329   5.261  21.281  0.00  0.00    +0.000 OA
BRANCH  24  26
ATOM     26  C   UNL     1       2.690   4.106  19.208  0.00  0.00    +0.000 C 
BRANCH  26  27
ATOM     27  C   UNL     1       4.118   3.606  19.412  0.00  0.00    +0.000 C 
BRANCH  27  29
ATOM     28  O   UNL     1       4.601   4.078  17.108  0.00  0.00    +0.000 OA
ATOM     29  C   UNL     1       5.011   4.033  18.264  0.00  0.00    +0.000 C 
ATOM     30  N   UNL     1       6.309   4.296  18.631  0.00  0.00    +0.000 N 
ATOM     31  H   UNL     1       6.572   4.129  19.602  0.00  0.00    +0.000 HD
BRANCH  30  32
ATOM     32  C   UNL     1       7.336   4.665  17.674  0.00  0.00    +0.000 C 
BRANCH  32  33
ATOM     33  C   UNL     1       7.341   6.167  17.389  0.00  0.00    +0.000 C 
BRANCH  33  34
ATOM     34  O   UNL     1       6.449   6.488  16.325  0.00  0.00    +0.000 OA
ATOM     35  H   UNL     1       5.854   7.190  16.657  0.00  0.00    +0.000 HD
ENDBRANCH  33  34
ENDBRANCH  32  33
ENDBRANCH  30  32
ENDBRANCH  27  29
ENDBRANCH  26  27
ENDBRANCH  24  26
ENDBRANCH   1  24
TORSDOF 7
ENDMDL
MODEL 7
REMARK VINA RESULT:      -8.3      2.910      4.826
REMARK  Name = 
REMARK  7 active torsions:
REMARK  status: ('A' for Active; 'I' for Inactive)
REMARK    1  A    between atoms: C_2  and  C_3
REMARK    2  A    between atoms: C_3  and  C_4
REMARK    3  A    between atoms: C_4  and  C_5
REMARK    4  A    between atoms: C_5  and  C_7
REMARK    5  A    between atoms: N_28  and  C_29
REMARK    6  A    between atoms: C_29  and  C_30
REMARK    7  A    between atoms: C_30  and  O_31
REMARK                            x       y       z     vdW  Elec       q    Type
REMARK                         _______ _______ _______ _____ _____    ______ ____
ROOT
ATOM      1  C   UNL     1       2.053   6.905  19.508  0.00  0.00    +0.000 A 
ATOM      2  C   UNL     1       2.558   7.195  18.239  0.00  0.00    +0.000 A 
ATOM      3  C   UNL     1       2.415   8.478  17.680  0.00  0.00    +0.000 A 
ATOM      4  C   UNL     1       1.758   9.464  18.436  0.00  0.00    +0.000 A 
ATOM      5  N   UNL     1       1.477  10.804  18.137  0.00  0.00    +0.000 N 
ATOM      6  C   UNL     1       0.800  11.375  19.184  0.00  0.00    +0.000 A 
ATOM      7  C   UNL     1       0.299  12.612  19.403  0.00  0.00    +0.000 A 
ATOM      8  C   UNL     1      -0.386  12.961  20.575  0.00  0.00    +0.000 A 
ATOM      9  C   UNL     1      -0.567  11.941  21.501  0.00  0.00    +0.000 A 
ATOM     10  C   UNL     1      -0.008  10.672  21.291  0.00  0.00    +0.000 A 
ATOM     11  C   UNL     1       0.678  10.393  20.098  0.00  0.00    +0.000 A 
ATOM     12  C   UNL     1       1.238   9.187  19.714  0.00  0.00    +0.000 A 
ATOM     13  C   UNL     1       1.382   7.894  20.235  0.00  0.00    +0.000 A 
ATOM     14  C   UNL     1      -0.301   9.879  22.452  0.00  0.00    +0.000 C 
ATOM     15  O   UNL     1       0.042   8.773  22.849  0.00  0.00    +0.000 OA
ATOM     16  N   UNL     1      -1.103  10.694  23.207  0.00  0.00    +0.000 N 
ATOM     17  C   UNL     1      -1.256  11.971  22.750  0.00  0.00    +0.000 C 
ATOM     18  O   UNL     1      -1.843  12.855  23.356  0.00  0.00    +0.000 OA
ATOM     19  C   UNL     1      -0.816  14.382  20.599  0.00  0.00    +0.000 C 
ATOM     20  C   UNL     1      -0.332  14.921  19.234  0.00  0.00    +0.000 C 
ATOM     21  C   UNL     1       0.394  13.777  18.473  0.00  0.00    +0.000 C 
ATOM     22  H   UNL     1       1.731  11.264  17.274  0.00  0.00    +0.000 HD
ATOM     23  H   UNL     1      -1.439  10.402  24.107  0.00  0.00    +0.000 HD
ENDROOT
BRANCH   1  24
ATOM     24  C   UNL     1       2.146   5.570  20.163  0.00  0.00    +0.000 C 
ATOM     25  O   UNL     1       1.133   5.089  20.681  0.00  0.00    +0.000 OA
BRANCH  24  26
ATOM     26  C   UNL     1       3.485   4.868  20.249  0.00  0.00    +0.000 C 
BRANCH  26  27
ATOM     27  C   UNL     1       3.634   3.816  19.152  0.00  0.00    +0.000 C 
BRANCH  27  29
ATOM     28  O   UNL     1       4.763   3.969  17.039  0.00  0.00    +0.000 OA
ATOM     29  C   UNL     1       4.812   4.136  18.253  0.00  0.00    +0.000 C 
ATOM     30  N   UNL     1       5.933   4.559  18.928  0.00  0.00    +0.000 N 
ATOM     31  H   UNL     1       5.901   4.564  19.947  0.00  0.00    +0.000 HD
BRANCH  30  32
ATOM     32  C   UNL     1       7.185   4.861  18.258  0.00  0.00    +0.000 C 
BRANCH  32  33
ATOM     33  C   UNL     1       8.064   5.801  19.084  0.00  0.00    +0.000 C 
BRANCH  33  34
ATOM     34  O   UNL     1       8.000   5.474  20.469  0.00  0.00    +0.000 OA
ATOM     35  H   UNL     1       7.119   5.081  20.626  0.00  0.00    +0.000 HD
ENDBRANCH  33  34
ENDBRANCH  32  33
ENDBRANCH  30  32
ENDBRANCH  27  29
ENDBRANCH  26  27
ENDBRANCH  24  26
ENDBRANCH   1  24
TORSDOF 7
ENDMDL
MODEL 8
REMARK VINA RESULT:      -8.3      2.740      4.780
REMARK  Name = 
REMARK  7 active torsions:
REMARK  status: ('A' for Active; 'I' for Inactive)
REMARK    1  A    between atoms: C_2  and  C_3
REMARK    2  A    between atoms: C_3  and  C_4
REMARK    3  A    between atoms: C_4  and  C_5
REMARK    4  A    between atoms: C_5  and  C_7
REMARK    5  A    between atoms: N_28  and  C_29
REMARK    6  A    between atoms: C_29  and  C_30
REMARK    7  A    between atoms: C_30  and  O_31
REMARK                            x       y       z     vdW  Elec       q    Type
REMARK                         _______ _______ _______ _____ _____    ______ ____
ROOT
ATOM      1  C   UNL     1       2.208   6.958  19.471  0.00  0.00    +0.000 A 
ATOM      2  C   UNL     1       2.672   7.266  18.191  0.00  0.00    +0.000 A 
ATOM      3  C   UNL     1       2.461   8.541  17.634  0.00  0.00    +0.000 A 
ATOM      4  C   UNL     1       1.779   9.498  18.402  0.00  0.00    +0.000 A 
ATOM      5  N   UNL     1       1.432  10.824  18.108  0.00  0.00    +0.000 N 
ATOM      6  C   UNL     1       0.753  11.367  19.169  0.00  0.00    +0.000 A 
ATOM      7  C   UNL     1       0.204  12.582  19.397  0.00  0.00    +0.000 A 
ATOM      8  C   UNL     1      -0.470  12.903  20.583  0.00  0.00    +0.000 A 
ATOM      9  C   UNL     1      -0.587  11.878  21.514  0.00  0.00    +0.000 A 
ATOM     10  C   UNL     1       0.024  10.634  21.293  0.00  0.00    +0.000 A 
ATOM     11  C   UNL     1       0.695  10.383  20.086  0.00  0.00    +0.000 A 
ATOM     12  C   UNL     1       1.299   9.202  19.691  0.00  0.00    +0.000 A 
ATOM     13  C   UNL     1       1.511   7.917  20.211  0.00  0.00    +0.000 A 
ATOM     14  C   UNL     1      -0.209   9.832  22.462  0.00  0.00    +0.000 C 
ATOM     15  O   UNL     1       0.190   8.743  22.853  0.00  0.00    +0.000 OA
ATOM     16  N   UNL     1      -1.030  10.613  23.233  0.00  0.00    +0.000 N 
ATOM     17  C   UNL     1      -1.249  11.881  22.778  0.00  0.00    +0.000 C 
ATOM     18  O   UNL     1      -1.860  12.740  23.395  0.00  0.00    +0.000 OA
ATOM     19  C   UNL     1      -0.961  14.304  20.614  0.00  0.00    +0.000 C 
ATOM     20  C   UNL     1      -0.532  14.861  19.238  0.00  0.00    +0.000 C 
ATOM     21  C   UNL     1       0.228  13.747  18.463  0.00  0.00    +0.000 C 
ATOM     22  H   UNL     1       1.647  11.293  17.239  0.00  0.00    +0.000 HD
ATOM     23  H   UNL     1      -1.333  10.309  24.141  0.00  0.00    +0.000 HD
ENDROOT
BRANCH   1  24
ATOM     24  C   UNL     1       2.374   5.630  20.127  0.00  0.00    +0.000 C 
ATOM     25  O   UNL     1       3.515   5.201  20.323  0.00  0.00    +0.000 OA
BRANCH  24  26
ATOM     26  C   UNL     1       1.151   4.804  20.469  0.00  0.00    +0.000 C 
BRANCH  26  27
ATOM     27  C   UNL     1       1.131   3.489  19.694  0.00  0.00    +0.000 C 
BRANCH  27  29
ATOM     28  O   UNL     1       1.070   4.094  17.372  0.00  0.00    +0.000 OA
ATOM     29  C   UNL     1       1.730   3.665  18.313  0.00  0.00    +0.000 C 
ATOM     30  N   UNL     1       3.034   3.246  18.210  0.00  0.00    +0.000 N 
ATOM     31  H   UNL     1       3.459   2.808  19.028  0.00  0.00    +0.000 HD
BRANCH  30  32
ATOM     32  C   UNL     1       3.773   3.276  16.961  0.00  0.00    +0.000 C 
BRANCH  32  33
ATOM     33  C   UNL     1       4.823   4.388  16.943  0.00  0.00    +0.000 C 
BRANCH  33  34
ATOM     34  O   UNL     1       6.138   3.848  17.048  0.00  0.00    +0.000 OA
ATOM     35  H   UNL     1       6.043   2.876  17.082  0.00  0.00    +0.000 HD
ENDBRANCH  33  34
ENDBRANCH  32  33
ENDBRANCH  30  32
ENDBRANCH  27  29
ENDBRANCH  26  27
ENDBRANCH  24  26
ENDBRANCH   1  24
TORSDOF 7
ENDMDL
MODEL 9
REMARK VINA RESULT:      -8.3      3.742      5.402
REMARK  Name = 
REMARK  7 active torsions:
REMARK  status: ('A' for Active; 'I' for Inactive)
REMARK    1  A    between atoms: C_2  and  C_3
REMARK    2  A    between atoms: C_3  and  C_4
REMARK    3  A    between atoms: C_4  and  C_5
REMARK    4  A    between atoms: C_5  and  C_7
REMARK    5  A    between atoms: N_28  and  C_29
REMARK    6  A    between atoms: C_29  and  C_30
REMARK    7  A    between atoms: C_30  and  O_31
REMARK                            x       y       z     vdW  Elec       q    Type
REMARK                         _______ _______ _______ _____ _____    ______ ____
ROOT
ATOM      1  C   UNL     1       2.291   7.383  19.349  0.00  0.00    +0.000 A 
ATOM      2  C   UNL     1       2.696   7.765  18.069  0.00  0.00    +0.000 A 
ATOM      3  C   UNL     1       2.378   9.037  17.560  0.00  0.00    +0.000 A 
ATOM      4  C   UNL     1       1.650   9.918  18.377  0.00  0.00    +0.000 A 
ATOM      5  N   UNL     1       1.201  11.223  18.135  0.00  0.00    +0.000 N 
ATOM      6  C   UNL     1       0.514  11.682  19.230  0.00  0.00    +0.000 A 
ATOM      7  C   UNL     1      -0.115  12.846  19.512  0.00  0.00    +0.000 A 
ATOM      8  C   UNL     1      -0.778  13.080  20.726  0.00  0.00    +0.000 A 
ATOM      9  C   UNL     1      -0.794  12.021  21.625  0.00  0.00    +0.000 A 
ATOM     10  C   UNL     1      -0.102  10.832  21.348  0.00  0.00    +0.000 A 
ATOM     11  C   UNL     1       0.552  10.668  20.116  0.00  0.00    +0.000 A 
ATOM     12  C   UNL     1       1.228   9.547  19.667  0.00  0.00    +0.000 A 
ATOM     13  C   UNL     1       1.547   8.266  20.138  0.00  0.00    +0.000 A 
ATOM     14  C   UNL     1      -0.243   9.979  22.494  0.00  0.00    +0.000 C 
ATOM     15  O   UNL     1       0.244   8.910  22.839  0.00  0.00    +0.000 OA
ATOM     16  N   UNL     1      -1.096  10.673  23.312  0.00  0.00    +0.000 N 
ATOM     17  C   UNL     1      -1.419  11.936  22.905  0.00  0.00    +0.000 C 
ATOM     18  O   UNL     1      -2.074  12.727  23.565  0.00  0.00    +0.000 OA
ATOM     19  C   UNL     1      -1.367  14.440  20.815  0.00  0.00    +0.000 C 
ATOM     20  C   UNL     1      -1.018  15.068  19.449  0.00  0.00    +0.000 C 
ATOM     21  C   UNL     1      -0.202  14.038  18.617  0.00  0.00    +0.000 C 
ATOM     22  H   UNL     1       1.357  11.734  17.277  0.00  0.00    +0.000 HD
ATOM     23  H   UNL     1      -1.351  10.319  24.216  0.00  0.00    +0.000 HD
ENDROOT
BRANCH   1  24
ATOM     24  C   UNL     1       2.571   6.051  19.956  0.00  0.00    +0.000 C 
ATOM     25  O   UNL     1       3.626   5.478  19.673  0.00  0.00    +0.000 OA
BRANCH  24  26
ATOM     26  C   UNL     1       1.531   5.397  20.842  0.00  0.00    +0.000 C 
BRANCH  26  27
ATOM     27  C   UNL     1       0.809   4.266  20.114  0.00  0.00    +0.000 C 
BRANCH  27  29
ATOM     28  O   UNL     1       1.553   2.229  21.145  0.00  0.00    +0.000 OA
ATOM     29  C   UNL     1       1.613   2.982  20.178  0.00  0.00    +0.000 C 
ATOM     30  N   UNL     1       2.442   2.786  19.100  0.00  0.00    +0.000 N 
ATOM     31  H   UNL     1       2.493   3.525  18.399  0.00  0.00    +0.000 HD
BRANCH  30  32
ATOM     32  C   UNL     1       3.337   1.648  18.994  0.00  0.00    +0.000 C 
BRANCH  32  33
ATOM     33  C   UNL     1       4.630   1.860  19.783  0.00  0.00    +0.000 C 
BRANCH  33  34
ATOM     34  O   UNL     1       5.303   3.039  19.351  0.00  0.00    +0.000 OA
ATOM     35  H   UNL     1       6.246   2.804  19.246  0.00  0.00    +0.000 HD
ENDBRANCH  33  34
ENDBRANCH  32  33
ENDBRANCH  30  32
ENDBRANCH  27  29
ENDBRANCH  26  27
ENDBRANCH  24  26
ENDBRANCH   1  24
TORSDOF 7
ENDMDL
