MODEL 1
REMARK VINA RESULT:      -7.9      0.000      0.000
REMARK  Name = 
REMARK  5 active torsions:
REMARK  status: ('A' for Active; 'I' for Inactive)
REMARK    1  A    between atoms: C_1  and  C_2
REMARK    2  A    between atoms: C_5  and  C_6
REMARK    3  A    between atoms: C_7  and  C_8
REMARK    4  A    between atoms: C_10  and  C_11
REMARK    5  A    between atoms: C_10  and  C_12
REMARK                            x       y       z     vdW  Elec       q    Type
REMARK                         _______ _______ _______ _____ _____    ______ ____
ROOT
ATOM      1  C   UNL     1       4.442   5.083  16.675  0.00  0.00    +0.000 C 
ATOM      2  C   UNL     1       4.253   6.136  17.760  0.00  0.00    +0.000 C 
ATOM      3  C   UNL     1       3.193   5.866  18.846  0.00  0.00    +0.000 C 
ATOM      4  C   UNL     1       3.888   5.519  20.183  0.00  0.00    +0.000 C 
ATOM      5  N   UNL     1       2.273   4.760  18.548  0.00  0.00    +0.000 NA
ATOM      6  C   UNL     1       2.599   3.704  17.914  0.00  0.00    +0.000 C 
ATOM      7  N   UNL     1       1.680   2.736  17.686  0.00  0.00    +0.000 N 
ATOM      8  S   UNL     1       4.182   3.402  17.283  0.00  0.00    +0.000 S 
ATOM      9  H   UNL     1       0.881   2.786  18.305  0.00  0.00    +0.000 HD
ATOM     10  H   UNL     1       2.044   1.803  17.525  0.00  0.00    +0.000 HD
ENDROOT
BRANCH   1  17
ATOM     11  C   UNL     1       5.355   4.054  13.736  0.00  0.00    +0.000 C 
ATOM     12  C   UNL     1       6.156   4.825  14.716  0.00  0.00    +0.000 A 
ATOM     13  N   UNL     1       7.387   5.238  14.398  0.00  0.00    +0.000 NA
ATOM     14  O   UNL     1       7.831   5.967  15.481  0.00  0.00    +0.000 OA
ATOM     15  C   UNL     1       6.871   5.992  16.442  0.00  0.00    +0.000 A 
ATOM     16  C   UNL     1       7.179   6.802  17.639  0.00  0.00    +0.000 C 
ATOM     17  C   UNL     1       5.776   5.262  16.018  0.00  0.00    +0.000 A 
ENDBRANCH   1  17
BRANCH   3  18
ATOM     18  C   UNL     1       2.362   7.164  18.925  0.00  0.00    +0.000 A 
ATOM     19  C   UNL     1       2.277   7.985  17.779  0.00  0.00    +0.000 A 
ATOM     20  C   UNL     1       1.662   9.233  17.827  0.00  0.00    +0.000 A 
ATOM     21  C   UNL     1       1.127   9.676  19.029  0.00  0.00    +0.000 A 
ATOM     22  F   UNL     1       0.556  10.887  19.089  0.00  0.00    +0.000 F 
ATOM     23  C   UNL     1       1.192   8.892  20.175  0.00  0.00    +0.000 A 
ATOM     24  C   UNL     1       1.808   7.639  20.125  0.00  0.00    +0.000 A 
ENDBRANCH   3  18
TORSDOF 2
ENDMDL
MODEL 2
REMARK VINA RESULT:      -7.8      0.244      1.058
REMARK  Name = 
REMARK  5 active torsions:
REMARK  status: ('A' for Active; 'I' for Inactive)
REMARK    1  A    between atoms: C_1  and  C_2
REMARK    2  A    between atoms: C_5  and  C_6
REMARK    3  A    between atoms: C_7  and  C_8
REMARK    4  A    between atoms: C_10  and  C_11
REMARK    5  A    between atoms: C_10  and  C_12
REMARK                            x       y       z     vdW  Elec       q    Type
REMARK                         _______ _______ _______ _____ _____    ______ ____
ROOT
ATOM      1  C   UNL     1       4.404   5.245  16.659  0.00  0.00    +0.000 C 
ATOM      2  C   UNL     1       4.260   6.287  17.762  0.00  0.00    +0.000 C 
ATOM      3  C   UNL     1       3.162   6.064  18.821  0.00  0.00    +0.000 C 
ATOM      4  C   UNL     1       3.804   5.646  20.163  0.00  0.00    +0.000 C 
ATOM      5  N   UNL     1       2.179   5.027  18.480  0.00  0.00    +0.000 NA
ATOM      6  C   UNL     1       2.449   3.965  17.831  0.00  0.00    +0.000 C 
ATOM      7  N   UNL     1       1.475   3.064  17.563  0.00  0.00    +0.000 N 
ATOM      8  S   UNL     1       4.023   3.573  17.226  0.00  0.00    +0.000 S 
ATOM      9  H   UNL     1       0.667   3.153  18.168  0.00  0.00    +0.000 HD
ATOM     10  H   UNL     1       1.781   2.113  17.390  0.00  0.00    +0.000 HD
ENDROOT
BRANCH   1  17
ATOM     11  C   UNL     1       5.346   4.100  13.772  0.00  0.00    +0.000 C 
ATOM     12  C   UNL     1       6.154   4.862  14.753  0.00  0.00    +0.000 A 
ATOM     13  N   UNL     1       7.409   5.214  14.458  0.00  0.00    +0.000 NA
ATOM     14  O   UNL     1       7.857   5.953  15.533  0.00  0.00    +0.000 OA
ATOM     15  C   UNL     1       6.875   6.044  16.467  0.00  0.00    +0.000 A 
ATOM     16  C   UNL     1       7.187   6.872  17.650  0.00  0.00    +0.000 C 
ATOM     17  C   UNL     1       5.761   5.350  16.033  0.00  0.00    +0.000 A 
ENDBRANCH   1  17
BRANCH   3  18
ATOM     18  C   UNL     1       2.415   7.412  18.910  0.00  0.00    +0.000 A 
ATOM     19  C   UNL     1       1.849   7.793  20.147  0.00  0.00    +0.000 A 
ATOM     20  C   UNL     1       1.047   8.925  20.258  0.00  0.00    +0.000 A 
ATOM     21  C   UNL     1       0.796   9.688  19.126  0.00  0.00    +0.000 A 
ATOM     22  F   UNL     1       0.005  10.765  19.221  0.00  0.00    +0.000 F 
ATOM     23  C   UNL     1       1.339   9.343  17.895  0.00  0.00    +0.000 A 
ATOM     24  C   UNL     1       2.147   8.207  17.784  0.00  0.00    +0.000 A 
ENDBRANCH   3  18
TORSDOF 2
ENDMDL
MODEL 3
REMARK VINA RESULT:      -7.7      0.795      1.858
REMARK  Name = 
REMARK  5 active torsions:
REMARK  status: ('A' for Active; 'I' for Inactive)
REMARK    1  A    between atoms: C_1  and  C_2
REMARK    2  A    between atoms: C_5  and  C_6
REMARK    3  A    between atoms: C_7  and  C_8
REMARK    4  A    between atoms: C_10  and  C_11
REMARK    5  A    between atoms: C_10  and  C_12
REMARK                            x       y       z     vdW  Elec       q    Type
REMARK                         _______ _______ _______ _____ _____    ______ ____
ROOT
ATOM      1  C   UNL     1       4.443   4.648  16.269  0.00  0.00    +0.000 C 
ATOM      2  C   UNL     1       4.393   5.741  17.329  0.00  0.00    +0.000 C 
ATOM      3  C   UNL     1       3.557   5.475  18.596  0.00  0.00    +0.000 C 
ATOM      4  C   UNL     1       4.494   5.222  19.799  0.00  0.00    +0.000 C 
ATOM      5  N   UNL     1       2.658   4.316  18.508  0.00  0.00    +0.000 NA
ATOM      6  C   UNL     1       2.921   3.247  17.868  0.00  0.00    +0.000 C 
ATOM      7  N   UNL     1       2.029   2.230  17.844  0.00  0.00    +0.000 N 
ATOM      8  S   UNL     1       4.382   2.987  16.977  0.00  0.00    +0.000 S 
ATOM      9  H   UNL     1       1.349   2.273  18.594  0.00  0.00    +0.000 HD
ATOM     10  H   UNL     1       2.407   1.308  17.656  0.00  0.00    +0.000 HD
ENDROOT
BRANCH   1  17
ATOM     11  C   UNL     1       7.271   6.046  17.031  0.00  0.00    +0.000 C 
ATOM     12  C   UNL     1       6.874   5.450  15.733  0.00  0.00    +0.000 A 
ATOM     13  N   UNL     1       7.754   5.386  14.729  0.00  0.00    +0.000 NA
ATOM     14  O   UNL     1       7.106   4.733  13.701  0.00  0.00    +0.000 OA
ATOM     15  C   UNL     1       5.846   4.407  14.088  0.00  0.00    +0.000 A 
ATOM     16  C   UNL     1       5.052   3.634  13.110  0.00  0.00    +0.000 C 
ATOM     17  C   UNL     1       5.629   4.855  15.378  0.00  0.00    +0.000 A 
ENDBRANCH   1  17
BRANCH   3  18
ATOM     18  C   UNL     1       2.686   6.737  18.772  0.00  0.00    +0.000 A 
ATOM     19  C   UNL     1       2.605   7.659  17.705  0.00  0.00    +0.000 A 
ATOM     20  C   UNL     1       1.952   8.880  17.852  0.00  0.00    +0.000 A 
ATOM     21  C   UNL     1       1.376   9.194  19.075  0.00  0.00    +0.000 A 
ATOM     22  F   UNL     1       0.768  10.378  19.231  0.00  0.00    +0.000 F 
ATOM     23  C   UNL     1       1.436   8.309  20.144  0.00  0.00    +0.000 A 
ATOM     24  C   UNL     1       2.090   7.082  19.996  0.00  0.00    +0.000 A 
ENDBRANCH   3  18
TORSDOF 2
ENDMDL
MODEL 4
REMARK VINA RESULT:      -7.7      0.993      1.886
REMARK  Name = 
REMARK  5 active torsions:
REMARK  status: ('A' for Active; 'I' for Inactive)
REMARK    1  A    between atoms: C_1  and  C_2
REMARK    2  A    between atoms: C_5  and  C_6
REMARK    3  A    between atoms: C_7  and  C_8
REMARK    4  A    between atoms: C_10  and  C_11
REMARK    5  A    between atoms: C_10  and  C_12
REMARK                            x       y       z     vdW  Elec       q    Type
REMARK                         _______ _______ _______ _____ _____    ______ ____
ROOT
ATOM      1  C   UNL     1       4.205   4.782  17.209  0.00  0.00    +0.000 C 
ATOM      2  C   UNL     1       4.020   5.917  18.208  0.00  0.00    +0.000 C 
ATOM      3  C   UNL     1       2.807   5.848  19.157  0.00  0.00    +0.000 C 
ATOM      4  C   UNL     1       3.280   5.503  20.588  0.00  0.00    +0.000 C 
ATOM      5  N   UNL     1       1.796   4.846  18.792  0.00  0.00    +0.000 NA
ATOM      6  C   UNL     1       2.058   3.721  18.257  0.00  0.00    +0.000 C 
ATOM      7  N   UNL     1       1.058   2.860  17.955  0.00  0.00    +0.000 N 
ATOM      8  S   UNL     1       3.655   3.188  17.855  0.00  0.00    +0.000 S 
ATOM      9  H   UNL     1       0.200   3.046  18.461  0.00  0.00    +0.000 HD
ATOM     10  H   UNL     1       1.315   1.882  17.887  0.00  0.00    +0.000 HD
ENDROOT
BRANCH   1  17
ATOM     11  C   UNL     1       6.908   5.057  18.983  0.00  0.00    +0.000 C 
ATOM     12  C   UNL     1       6.801   4.853  17.519  0.00  0.00    +0.000 A 
ATOM     13  N   UNL     1       7.904   4.690  16.783  0.00  0.00    +0.000 NA
ATOM     14  O   UNL     1       7.469   4.465  15.494  0.00  0.00    +0.000 OA
ATOM     15  C   UNL     1       6.111   4.494  15.458  0.00  0.00    +0.000 A 
ATOM     16  C   UNL     1       5.495   4.195  14.148  0.00  0.00    +0.000 C 
ATOM     17  C   UNL     1       5.622   4.755  16.725  0.00  0.00    +0.000 A 
ENDBRANCH   1  17
BRANCH   3  18
ATOM     18  C   UNL     1       2.148   7.241  19.065  0.00  0.00    +0.000 A 
ATOM     19  C   UNL     1       2.256   7.963  17.857  0.00  0.00    +0.000 A 
ATOM     20  C   UNL     1       1.807   9.277  17.757  0.00  0.00    +0.000 A 
ATOM     21  C   UNL     1       1.246   9.885  18.871  0.00  0.00    +0.000 A 
ATOM     22  F   UNL     1       0.833  11.157  18.789  0.00  0.00    +0.000 F 
ATOM     23  C   UNL     1       1.122   9.201  20.075  0.00  0.00    +0.000 A 
ATOM     24  C   UNL     1       1.572   7.882  20.174  0.00  0.00    +0.000 A 
ENDBRANCH   3  18
TORSDOF 2
ENDMDL
MODEL 5
REMARK VINA RESULT:      -7.7      3.095      4.609
REMARK  Name = 
REMARK  5 active torsions:
REMARK  status: ('A' for Active; 'I' for Inactive)
REMARK    1  A    between atoms: C_1  and  C_2
REMARK    2  A    between atoms: C_5  and  C_6
REMARK    3  A    between atoms: C_7  and  C_8
REMARK    4  A    between atoms: C_10  and  C_11
REMARK    5  A    between atoms: C_10  and  C_12
REMARK                            x       y       z     vdW  Elec       q    Type
REMARK                         _______ _______ _______ _____ _____    ______ ____
ROOT
ATOM      1  C   UNL     1       5.009   5.703  17.978  0.00  0.00    +0.000 C 
ATOM      2  C   UNL     1       3.998   4.578  18.170  0.00  0.00    +0.000 C 
ATOM      3  C   UNL     1       2.506   4.959  18.239  0.00  0.00    +0.000 C 
ATOM      4  C   UNL     1       1.794   4.530  16.936  0.00  0.00    +0.000 C 
ATOM      5  N   UNL     1       2.244   6.393  18.413  0.00  0.00    +0.000 NA
ATOM      6  C   UNL     1       2.958   7.322  17.913  0.00  0.00    +0.000 C 
ATOM      7  N   UNL     1       2.637   8.619  18.128  0.00  0.00    +0.000 N 
ATOM      8  S   UNL     1       4.371   7.046  16.953  0.00  0.00    +0.000 S 
ATOM      9  H   UNL     1       1.674   8.754  18.414  0.00  0.00    +0.000 HD
ATOM     10  H   UNL     1       2.981   9.284  17.444  0.00  0.00    +0.000 HD
ENDROOT
BRANCH   1  17
ATOM     11  C   UNL     1       7.842   5.507  19.549  0.00  0.00    +0.000 C 
ATOM     12  C   UNL     1       7.532   5.044  18.176  0.00  0.00    +0.000 A 
ATOM     13  N   UNL     1       8.461   4.402  17.460  0.00  0.00    +0.000 NA
ATOM     14  O   UNL     1       7.850   4.057  16.273  0.00  0.00    +0.000 OA
ATOM     15  C   UNL     1       6.562   4.488  16.277  0.00  0.00    +0.000 A 
ATOM     16  C   UNL     1       5.757   4.124  15.093  0.00  0.00    +0.000 C 
ATOM     17  C   UNL     1       6.301   5.145  17.466  0.00  0.00    +0.000 A 
ENDBRANCH   1  17
BRANCH   3  18
ATOM     18  C   UNL     1       1.965   4.224  19.485  0.00  0.00    +0.000 A 
ATOM     19  C   UNL     1       2.571   4.475  20.736  0.00  0.00    +0.000 A 
ATOM     20  C   UNL     1       2.222   3.743  21.867  0.00  0.00    +0.000 A 
ATOM     21  C   UNL     1       1.264   2.745  21.757  0.00  0.00    +0.000 A 
ATOM     22  F   UNL     1       0.942   2.019  22.837  0.00  0.00    +0.000 F 
ATOM     23  C   UNL     1       0.647   2.475  20.542  0.00  0.00    +0.000 A 
ATOM     24  C   UNL     1       0.996   3.211  19.406  0.00  0.00    +0.000 A 
ENDBRANCH   3  18
TORSDOF 2
ENDMDL
MODEL 6
REMARK VINA RESULT:      -7.6      0.945      2.136
REMARK  Name = 
REMARK  5 active torsions:
REMARK  status: ('A' for Active; 'I' for Inactive)
REMARK    1  A    between atoms: C_1  and  C_2
REMARK    2  A    between atoms: C_5  and  C_6
REMARK    3  A    between atoms: C_7  and  C_8
REMARK    4  A    between atoms: C_10  and  C_11
REMARK    5  A    between atoms: C_10  and  C_12
REMARK                            x       y       z     vdW  Elec       q    Type
REMARK                         _______ _______ _______ _____ _____    ______ ____
ROOT
ATOM      1  C   UNL     1       4.213   4.839  17.112  0.00  0.00    +0.000 C 
ATOM      2  C   UNL     1       4.083   5.954  18.141  0.00  0.00    +0.000 C 
ATOM      3  C   UNL     1       2.871   5.914  19.093  0.00  0.00    +0.000 C 
ATOM      4  C   UNL     1       3.333   5.511  20.513  0.00  0.00    +0.000 C 
ATOM      5  N   UNL     1       1.816   4.968  18.708  0.00  0.00    +0.000 NA
ATOM      6  C   UNL     1       2.026   3.846  18.142  0.00  0.00    +0.000 C 
ATOM      7  N   UNL     1       0.988   3.038  17.824  0.00  0.00    +0.000 N 
ATOM      8  S   UNL     1       3.597   3.253  17.719  0.00  0.00    +0.000 S 
ATOM      9  H   UNL     1       0.141   3.249  18.338  0.00  0.00    +0.000 HD
ATOM     10  H   UNL     1       1.201   2.051  17.729  0.00  0.00    +0.000 HD
ENDROOT
BRANCH   1  17
ATOM     11  C   UNL     1       6.934   5.128  18.856  0.00  0.00    +0.000 C 
ATOM     12  C   UNL     1       6.813   4.867  17.403  0.00  0.00    +0.000 A 
ATOM     13  N   UNL     1       7.908   4.650  16.667  0.00  0.00    +0.000 NA
ATOM     14  O   UNL     1       7.458   4.382  15.391  0.00  0.00    +0.000 OA
ATOM     15  C   UNL     1       6.101   4.438  15.363  0.00  0.00    +0.000 A 
ATOM     16  C   UNL     1       5.470   4.099  14.070  0.00  0.00    +0.000 C 
ATOM     17  C   UNL     1       5.627   4.761  16.621  0.00  0.00    +0.000 A 
ENDBRANCH   1  17
BRANCH   3  18
ATOM     18  C   UNL     1       2.274   7.336  19.040  0.00  0.00    +0.000 A 
ATOM     19  C   UNL     1       1.704   7.876  20.214  0.00  0.00    +0.000 A 
ATOM     20  C   UNL     1       1.027   9.092  20.197  0.00  0.00    +0.000 A 
ATOM     21  C   UNL     1       0.908   9.781  18.997  0.00  0.00    +0.000 A 
ATOM     22  F   UNL     1       0.236  10.940  18.968  0.00  0.00    +0.000 F 
ATOM     23  C   UNL     1       1.458   9.278  17.825  0.00  0.00    +0.000 A 
ATOM     24  C   UNL     1       2.140   8.058  17.843  0.00  0.00    +0.000 A 
ENDBRANCH   3  18
TORSDOF 2
ENDMDL
MODEL 7
REMARK VINA RESULT:      -7.4      5.837      8.809
REMARK  Name = 
REMARK  5 active torsions:
REMARK  status: ('A' for Active; 'I' for Inactive)
REMARK    1  A    between atoms: C_1  and  C_2
REMARK    2  A    between atoms: C_5  and  C_6
REMARK    3  A    between atoms: C_7  and  C_8
REMARK    4  A    between atoms: C_10  and  C_11
REMARK    5  A    between atoms: C_10  and  C_12
REMARK                            x       y       z     vdW  Elec       q    Type
REMARK                         _______ _______ _______ _____ _____    ______ ____
ROOT
ATOM      1  C   UNL     1      -1.160  11.640  18.027  0.00  0.00    +0.000 C 
ATOM      2  C   UNL     1      -0.750  10.479  18.925  0.00  0.00    +0.000 C 
ATOM      3  C   UNL     1       0.635  10.545  19.596  0.00  0.00    +0.000 C 
ATOM      4  C   UNL     1       0.473  10.836  21.106  0.00  0.00    +0.000 C 
ATOM      5  N   UNL     1       1.531  11.579  19.060  0.00  0.00    +0.000 NA
ATOM      6  C   UNL     1       1.145  12.715  18.632  0.00  0.00    +0.000 C 
ATOM      7  N   UNL     1       2.046  13.605  18.155  0.00  0.00    +0.000 N 
ATOM      8  S   UNL     1      -0.509  13.226  18.597  0.00  0.00    +0.000 S 
ATOM      9  H   UNL     1       2.994  13.422  18.460  0.00  0.00    +0.000 HD
ATOM     10  H   UNL     1       1.766  14.580  18.177  0.00  0.00    +0.000 HD
ENDROOT
BRANCH   1  17
ATOM     11  C   UNL     1      -2.867  10.623  15.461  0.00  0.00    +0.000 C 
ATOM     12  C   UNL     1      -3.386  11.180  16.732  0.00  0.00    +0.000 A 
ATOM     13  N   UNL     1      -4.703  11.243  16.948  0.00  0.00    +0.000 NA
ATOM     14  O   UNL     1      -4.854  11.744  18.224  0.00  0.00    +0.000 OA
ATOM     15  C   UNL     1      -3.633  11.979  18.771  0.00  0.00    +0.000 A 
ATOM     16  C   UNL     1      -3.634  12.451  20.171  0.00  0.00    +0.000 C 
ATOM     17  C   UNL     1      -2.648  11.652  17.856  0.00  0.00    +0.000 A 
ENDBRANCH   1  17
BRANCH   3  18
ATOM     18  C   UNL     1       1.280   9.170  19.319  0.00  0.00    +0.000 A 
ATOM     19  C   UNL     1       1.401   8.251  20.384  0.00  0.00    +0.000 A 
ATOM     20  C   UNL     1       2.096   7.055  20.231  0.00  0.00    +0.000 A 
ATOM     21  C   UNL     1       2.685   6.767  19.008  0.00  0.00    +0.000 A 
ATOM     22  F   UNL     1       3.376   5.629  18.861  0.00  0.00    +0.000 F 
ATOM     23  C   UNL     1       2.583   7.649  17.939  0.00  0.00    +0.000 A 
ATOM     24  C   UNL     1       1.883   8.850  18.092  0.00  0.00    +0.000 A 
ENDBRANCH   3  18
TORSDOF 2
ENDMDL
MODEL 8
REMARK VINA RESULT:      -7.4      3.048      4.267
REMARK  Name = 
REMARK  5 active torsions:
REMARK  status: ('A' for Active; 'I' for Inactive)
REMARK    1  A    between atoms: C_1  and  C_2
REMARK    2  A    between atoms: C_5  and  C_6
REMARK    3  A    between atoms: C_7  and  C_8
REMARK    4  A    between atoms: C_10  and  C_11
REMARK    5  A    between atoms: C_10  and  C_12
REMARK                            x       y       z     vdW  Elec       q    Type
REMARK                         _______ _______ _______ _____ _____    ______ ____
ROOT
ATOM      1  C   UNL     1       4.894   5.713  17.954  0.00  0.00    +0.000 C 
ATOM      2  C   UNL     1       3.881   4.593  18.159  0.00  0.00    +0.000 C 
ATOM      3  C   UNL     1       2.395   4.983  18.282  0.00  0.00    +0.000 C 
ATOM      4  C   UNL     1       1.639   4.581  16.994  0.00  0.00    +0.000 C 
ATOM      5  N   UNL     1       2.149   6.416  18.487  0.00  0.00    +0.000 NA
ATOM      6  C   UNL     1       2.854   7.348  17.980  0.00  0.00    +0.000 C 
ATOM      7  N   UNL     1       2.550   8.644  18.226  0.00  0.00    +0.000 N 
ATOM      8  S   UNL     1       4.235   7.078  16.971  0.00  0.00    +0.000 S 
ATOM      9  H   UNL     1       1.598   8.780  18.544  0.00  0.00    +0.000 HD
ATOM     10  H   UNL     1       2.877   9.317  17.543  0.00  0.00    +0.000 HD
ENDROOT
BRANCH   1  17
ATOM     11  C   UNL     1       5.397   4.560  14.962  0.00  0.00    +0.000 C 
ATOM     12  C   UNL     1       6.378   4.673  16.068  0.00  0.00    +0.000 A 
ATOM     13  N   UNL     1       7.657   4.341  15.865  0.00  0.00    +0.000 NA
ATOM     14  O   UNL     1       8.309   4.613  17.049  0.00  0.00    +0.000 OA
ATOM     15  C   UNL     1       7.426   5.107  17.956  0.00  0.00    +0.000 A 
ATOM     16  C   UNL     1       7.999   5.515  19.256  0.00  0.00    +0.000 C 
ATOM     17  C   UNL     1       6.165   5.155  17.392  0.00  0.00    +0.000 A 
ENDBRANCH   1  17
BRANCH   3  18
ATOM     18  C   UNL     1       1.887   4.231  19.531  0.00  0.00    +0.000 A 
ATOM     19  C   UNL     1       2.555   4.431  20.759  0.00  0.00    +0.000 A 
ATOM     20  C   UNL     1       2.236   3.680  21.887  0.00  0.00    +0.000 A 
ATOM     21  C   UNL     1       1.244   2.713  21.795  0.00  0.00    +0.000 A 
ATOM     22  F   UNL     1       0.948   1.969  22.869  0.00  0.00    +0.000 F 
ATOM     23  C   UNL     1       0.566   2.493  20.602  0.00  0.00    +0.000 A 
ATOM     24  C   UNL     1       0.886   3.249  19.471  0.00  0.00    +0.000 A 
ENDBRANCH   3  18
TORSDOF 2
ENDMDL
MODEL 9
REMARK VINA RESULT:      -7.3      5.895      8.721
REMARK  Name = 
REMARK  5 active torsions:
REMARK  status: ('A' for Active; 'I' for Inactive)
REMARK    1  A    between atoms: C_1  and  C_2
REMARK    2  A    between atoms: C_5  and  C_6
REMARK    3  A    between atoms: C_7  and  C_8
REMARK    4  A    between atoms: C_10  and  C_11
REMARK    5  A    between atoms: C_10  and  C_12
REMARK                            x       y       z     vdW  Elec       q    Type
REMARK                         _______ _______ _______ _____ _____    ______ ____
ROOT
ATOM      1  C   UNL     1      -1.123  11.618  18.077  0.00  0.00    +0.000 C 
ATOM      2  C   UNL     1      -0.693  10.504  19.023  0.00  0.00    +0.000 C 
ATOM      3  C   UNL     1       0.673  10.644  19.722  0.00  0.00    +0.000 C 
ATOM      4  C   UNL     1       0.466  10.979  21.217  0.00  0.00    +0.000 C 
ATOM      5  N   UNL     1       1.543  11.691  19.170  0.00  0.00    +0.000 NA
ATOM      6  C   UNL     1       1.126  12.797  18.695  0.00  0.00    +0.000 C 
ATOM      7  N   UNL     1       2.005  13.704  18.208  0.00  0.00    +0.000 N 
ATOM      8  S   UNL     1      -0.543  13.245  18.606  0.00  0.00    +0.000 S 
ATOM      9  H   UNL     1       2.952  13.566  18.540  0.00  0.00    +0.000 HD
ATOM     10  H   UNL     1       1.690  14.668  18.190  0.00  0.00    +0.000 HD
ENDROOT
BRANCH   1  17
ATOM     11  C   UNL     1      -2.734  10.391  15.540  0.00  0.00    +0.000 C 
ATOM     12  C   UNL     1      -3.301  11.006  16.764  0.00  0.00    +0.000 A 
ATOM     13  N   UNL     1      -4.625  11.037  16.946  0.00  0.00    +0.000 NA
ATOM     14  O   UNL     1      -4.822  11.608  18.186  0.00  0.00    +0.000 OA
ATOM     15  C   UNL     1      -3.623  11.917  18.744  0.00  0.00    +0.000 A 
ATOM     16  C   UNL     1      -3.673  12.472  20.112  0.00  0.00    +0.000 C 
ATOM     17  C   UNL     1      -2.607  11.570  17.873  0.00  0.00    +0.000 A 
ENDBRANCH   1  17
BRANCH   3  18
ATOM     18  C   UNL     1       1.374   9.285  19.506  0.00  0.00    +0.000 A 
ATOM     19  C   UNL     1       1.835   8.959  18.212  0.00  0.00    +0.000 A 
ATOM     20  C   UNL     1       2.347   7.697  17.923  0.00  0.00    +0.000 A 
ATOM     21  C   UNL     1       2.397   6.743  18.929  0.00  0.00    +0.000 A 
ATOM     22  F   UNL     1       2.865   5.518  18.652  0.00  0.00    +0.000 F 
ATOM     23  C   UNL     1       1.953   7.032  20.214  0.00  0.00    +0.000 A 
ATOM     24  C   UNL     1       1.441   8.300  20.504  0.00  0.00    +0.000 A 
ENDBRANCH   3  18
TORSDOF 2
ENDMDL
