MODEL 1
REMARK VINA RESULT:      -8.4      0.000      0.000
REMARK  Name = 
REMARK  7 active torsions:
REMARK  status: ('A' for Active; 'I' for Inactive)
REMARK    1  A    between atoms: C_2  and  C_3
REMARK    2  A    between atoms: N_5  and  C_6
REMARK    3  A    between atoms: C_9  and  C_10
REMARK    4  A    between atoms: C_10  and  O_12
REMARK    5  A    between atoms: C_16  and  C_17
REMARK    6  A    between atoms: C_20  and  O_21
REMARK    7  A    between atoms: O_21  and  C_22
REMARK                            x       y       z     vdW  Elec       q    Type
REMARK                         _______ _______ _______ _____ _____    ______ ____
ROOT
ATOM      1  C   UNL     1       2.317   5.386  20.018  0.00  0.00    +0.000 A 
ATOM      2  C   UNL     1       1.430   6.129  20.772  0.00  0.00    +0.000 A 
ATOM      3  N   UNL     1       1.616   7.470  20.503  0.00  0.00    +0.000 N 
ATOM      4  C   UNL     1       2.644   7.557  19.591  0.00  0.00    +0.000 A 
ATOM      5  C   UNL     1       3.102   6.293  19.267  0.00  0.00    +0.000 A 
ENDROOT
BRANCH   3   6
ATOM      6  C   UNL     1       0.889   8.568  21.047  0.00  0.00    +0.000 A 
ATOM      7  C   UNL     1       0.616   8.627  22.419  0.00  0.00    +0.000 A 
ATOM      8  C   UNL     1      -0.094   9.709  22.949  0.00  0.00    +0.000 A 
ATOM      9  C   UNL     1      -0.551  10.738  22.119  0.00  0.00    +0.000 A 
ATOM     10  C   UNL     1      -0.275  10.691  20.749  0.00  0.00    +0.000 A 
ATOM     11  C   UNL     1       0.438   9.612  20.217  0.00  0.00    +0.000 A 
BRANCH   9  12
ATOM     12  C   UNL     1      -1.262  11.873  22.756  0.00  0.00    +0.000 C 
ATOM     13  O   UNL     1      -0.830  13.014  22.729  0.00  0.00    +0.000 OA
BRANCH  12  14
ATOM     14  O   UNL     1      -2.402  11.540  23.394  0.00  0.00    +0.000 OA
ATOM     15  H   UNL     1      -3.182  11.396  22.826  0.00  0.00    +0.000 HD
ENDBRANCH  12  14
ENDBRANCH   9  12
ENDBRANCH   3   6
BRANCH   5  16
ATOM     16  C   UNL     1       4.185   6.093  18.316  0.00  0.00    +0.000 A 
ATOM     17  C   UNL     1       5.219   5.183  18.568  0.00  0.00    +0.000 A 
ATOM     18  C   UNL     1       6.239   4.998  17.631  0.00  0.00    +0.000 A 
ATOM     19  C   UNL     1       6.240   5.727  16.442  0.00  0.00    +0.000 A 
ATOM     20  C   UNL     1       5.257   6.692  16.222  0.00  0.00    +0.000 A 
ATOM     21  C   UNL     1       4.216   6.844  17.132  0.00  0.00    +0.000 A 
BRANCH  19  22
ATOM     22  O   UNL     1       7.259   5.462  15.557  0.00  0.00    +0.000 OA
BRANCH  22  23
ATOM     23  C   UNL     1       6.964   4.842  14.363  0.00  0.00    +0.000 A 
ATOM     24  C   UNL     1       7.765   5.195  13.277  0.00  0.00    +0.000 A 
ATOM     25  C   UNL     1       7.524   4.632  12.021  0.00  0.00    +0.000 A 
ATOM     26  C   UNL     1       6.484   3.719  11.851  0.00  0.00    +0.000 A 
ATOM     27  C   UNL     1       5.701   3.343  12.940  0.00  0.00    +0.000 A 
ATOM     28  C   UNL     1       5.962   3.878  14.200  0.00  0.00    +0.000 A 
ENDBRANCH  22  23
ENDBRANCH  19  22
ENDBRANCH   5  16
BRANCH   1  30
ATOM     29  N   UNL     1       2.402   2.796  20.026  0.00  0.00    +0.000 NA
ATOM     30  C   UNL     1       2.369   3.954  20.023  0.00  0.00    +0.000 C 
ENDBRANCH   1  30
TORSDOF 7
ENDMDL
MODEL 2
REMARK VINA RESULT:      -8.3      0.319      1.382
REMARK  Name = 
REMARK  7 active torsions:
REMARK  status: ('A' for Active; 'I' for Inactive)
REMARK    1  A    between atoms: C_2  and  C_3
REMARK    2  A    between atoms: N_5  and  C_6
REMARK    3  A    between atoms: C_9  and  C_10
REMARK    4  A    between atoms: C_10  and  O_12
REMARK    5  A    between atoms: C_16  and  C_17
REMARK    6  A    between atoms: C_20  and  O_21
REMARK    7  A    between atoms: O_21  and  C_22
REMARK                            x       y       z     vdW  Elec       q    Type
REMARK                         _______ _______ _______ _____ _____    ______ ____
ROOT
ATOM      1  C   UNL     1       2.322   5.429  20.098  0.00  0.00    +0.000 A 
ATOM      2  C   UNL     1       1.437   6.193  20.834  0.00  0.00    +0.000 A 
ATOM      3  N   UNL     1       1.597   7.523  20.500  0.00  0.00    +0.000 N 
ATOM      4  C   UNL     1       2.607   7.583  19.565  0.00  0.00    +0.000 A 
ATOM      5  C   UNL     1       3.078   6.312  19.291  0.00  0.00    +0.000 A 
ENDROOT
BRANCH   3   6
ATOM      6  C   UNL     1       0.864   8.634  21.007  0.00  0.00    +0.000 A 
ATOM      7  C   UNL     1       0.401   9.632  20.142  0.00  0.00    +0.000 A 
ATOM      8  C   UNL     1      -0.322  10.719  20.643  0.00  0.00    +0.000 A 
ATOM      9  C   UNL     1      -0.582  10.832  22.013  0.00  0.00    +0.000 A 
ATOM     10  C   UNL     1      -0.131   9.835  22.883  0.00  0.00    +0.000 A 
ATOM     11  C   UNL     1       0.589   8.745  22.383  0.00  0.00    +0.000 A 
BRANCH   9  12
ATOM     12  C   UNL     1      -1.390  11.989  22.469  0.00  0.00    +0.000 C 
ATOM     13  O   UNL     1      -2.530  12.186  22.081  0.00  0.00    +0.000 OA
BRANCH  12  14
ATOM     14  O   UNL     1      -0.755  12.823  23.317  0.00  0.00    +0.000 OA
ATOM     15  H   UNL     1       0.182  13.002  23.116  0.00  0.00    +0.000 HD
ENDBRANCH  12  14
ENDBRANCH   9  12
ENDBRANCH   3   6
BRANCH   5  16
ATOM     16  C   UNL     1       4.146   6.085  18.330  0.00  0.00    +0.000 A 
ATOM     17  C   UNL     1       4.183   6.762  17.105  0.00  0.00    +0.000 A 
ATOM     18  C   UNL     1       5.229   6.538  16.206  0.00  0.00    +0.000 A 
ATOM     19  C   UNL     1       6.240   5.630  16.519  0.00  0.00    +0.000 A 
ATOM     20  C   UNL     1       6.166   4.893  17.702  0.00  0.00    +0.000 A 
ATOM     21  C   UNL     1       5.152   5.150  18.617  0.00  0.00    +0.000 A 
BRANCH  19  22
ATOM     22  O   UNL     1       7.252   5.491  15.598  0.00  0.00    +0.000 OA
BRANCH  22  23
ATOM     23  C   UNL     1       6.983   4.875  14.395  0.00  0.00    +0.000 A 
ATOM     24  C   UNL     1       7.765   5.278  13.313  0.00  0.00    +0.000 A 
ATOM     25  C   UNL     1       7.548   4.723  12.051  0.00  0.00    +0.000 A 
ATOM     26  C   UNL     1       6.549   3.767  11.869  0.00  0.00    +0.000 A 
ATOM     27  C   UNL     1       5.786   3.341  12.953  0.00  0.00    +0.000 A 
ATOM     28  C   UNL     1       6.025   3.870  14.220  0.00  0.00    +0.000 A 
ENDBRANCH  22  23
ENDBRANCH  19  22
ENDBRANCH   5  16
BRANCH   1  30
ATOM     29  N   UNL     1       2.466   2.846  20.226  0.00  0.00    +0.000 NA
ATOM     30  C   UNL     1       2.396   4.001  20.168  0.00  0.00    +0.000 C 
ENDBRANCH   1  30
TORSDOF 7
ENDMDL
MODEL 3
REMARK VINA RESULT:      -8.2      0.225      1.286
REMARK  Name = 
REMARK  7 active torsions:
REMARK  status: ('A' for Active; 'I' for Inactive)
REMARK    1  A    between atoms: C_2  and  C_3
REMARK    2  A    between atoms: N_5  and  C_6
REMARK    3  A    between atoms: C_9  and  C_10
REMARK    4  A    between atoms: C_10  and  O_12
REMARK    5  A    between atoms: C_16  and  C_17
REMARK    6  A    between atoms: C_20  and  O_21
REMARK    7  A    between atoms: O_21  and  C_22
REMARK                            x       y       z     vdW  Elec       q    Type
REMARK                         _______ _______ _______ _____ _____    ______ ____
ROOT
ATOM      1  C   UNL     1       2.367   5.376  19.990  0.00  0.00    +0.000 A 
ATOM      2  C   UNL     1       1.460   6.118  20.721  0.00  0.00    +0.000 A 
ATOM      3  N   UNL     1       1.614   7.455  20.416  0.00  0.00    +0.000 N 
ATOM      4  C   UNL     1       2.643   7.543  19.504  0.00  0.00    +0.000 A 
ATOM      5  C   UNL     1       3.132   6.281  19.216  0.00  0.00    +0.000 A 
ENDROOT
BRANCH   3   6
ATOM      6  C   UNL     1       0.859   8.550  20.927  0.00  0.00    +0.000 A 
ATOM      7  C   UNL     1       0.479   9.603  20.087  0.00  0.00    +0.000 A 
ATOM      8  C   UNL     1      -0.265  10.673  20.593  0.00  0.00    +0.000 A 
ATOM      9  C   UNL     1      -0.629  10.715  21.942  0.00  0.00    +0.000 A 
ATOM     10  C   UNL     1      -0.262   9.663  22.786  0.00  0.00    +0.000 A 
ATOM     11  C   UNL     1       0.480   8.590  22.282  0.00  0.00    +0.000 A 
BRANCH   9  12
ATOM     12  C   UNL     1      -1.454  11.860  22.400  0.00  0.00    +0.000 C 
ATOM     13  O   UNL     1      -1.299  12.991  21.971  0.00  0.00    +0.000 OA
BRANCH  12  14
ATOM     14  O   UNL     1      -2.363  11.558  23.349  0.00  0.00    +0.000 OA
ATOM     15  H   UNL     1      -3.006  10.863  23.118  0.00  0.00    +0.000 HD
ENDBRANCH  12  14
ENDBRANCH   9  12
ENDBRANCH   3   6
BRANCH   5  16
ATOM     16  C   UNL     1       4.223   6.082  18.275  0.00  0.00    +0.000 A 
ATOM     17  C   UNL     1       5.319   5.270  18.589  0.00  0.00    +0.000 A 
ATOM     18  C   UNL     1       6.346   5.082  17.660  0.00  0.00    +0.000 A 
ATOM     19  C   UNL     1       6.291   5.711  16.417  0.00  0.00    +0.000 A 
ATOM     20  C   UNL     1       5.242   6.584  16.129  0.00  0.00    +0.000 A 
ATOM     21  C   UNL     1       4.196   6.734  17.033  0.00  0.00    +0.000 A 
BRANCH  19  22
ATOM     22  O   UNL     1       7.323   5.447  15.546  0.00  0.00    +0.000 OA
BRANCH  22  23
ATOM     23  C   UNL     1       7.039   4.877  14.324  0.00  0.00    +0.000 A 
ATOM     24  C   UNL     1       5.974   3.976  14.303  0.00  0.00    +0.000 A 
ATOM     25  C   UNL     1       5.629   3.333  13.113  0.00  0.00    +0.000 A 
ATOM     26  C   UNL     1       6.347   3.588  11.945  0.00  0.00    +0.000 A 
ATOM     27  C   UNL     1       7.393   4.509  11.957  0.00  0.00    +0.000 A 
ATOM     28  C   UNL     1       7.716   5.176  13.137  0.00  0.00    +0.000 A 
ENDBRANCH  22  23
ENDBRANCH  19  22
ENDBRANCH   5  16
BRANCH   1  30
ATOM     29  N   UNL     1       2.525   2.791  20.061  0.00  0.00    +0.000 NA
ATOM     30  C   UNL     1       2.454   3.947  20.035  0.00  0.00    +0.000 C 
ENDBRANCH   1  30
TORSDOF 7
ENDMDL
MODEL 4
REMARK VINA RESULT:      -8.2      0.385      1.386
REMARK  Name = 
REMARK  7 active torsions:
REMARK  status: ('A' for Active; 'I' for Inactive)
REMARK    1  A    between atoms: C_2  and  C_3
REMARK    2  A    between atoms: N_5  and  C_6
REMARK    3  A    between atoms: C_9  and  C_10
REMARK    4  A    between atoms: C_10  and  O_12
REMARK    5  A    between atoms: C_16  and  C_17
REMARK    6  A    between atoms: C_20  and  O_21
REMARK    7  A    between atoms: O_21  and  C_22
REMARK                            x       y       z     vdW  Elec       q    Type
REMARK                         _______ _______ _______ _____ _____    ______ ____
ROOT
ATOM      1  C   UNL     1       2.442   5.423  20.061  0.00  0.00    +0.000 A 
ATOM      2  C   UNL     1       1.538   6.189  20.770  0.00  0.00    +0.000 A 
ATOM      3  N   UNL     1       1.664   7.510  20.390  0.00  0.00    +0.000 N 
ATOM      4  C   UNL     1       2.672   7.564  19.454  0.00  0.00    +0.000 A 
ATOM      5  C   UNL     1       3.176   6.296  19.223  0.00  0.00    +0.000 A 
ENDROOT
BRANCH   3   6
ATOM      6  C   UNL     1       0.901   8.619  20.859  0.00  0.00    +0.000 A 
ATOM      7  C   UNL     1       0.586   8.740  22.217  0.00  0.00    +0.000 A 
ATOM      8  C   UNL     1      -0.159   9.832  22.673  0.00  0.00    +0.000 A 
ATOM      9  C   UNL     1      -0.609  10.810  21.781  0.00  0.00    +0.000 A 
ATOM     10  C   UNL     1      -0.291  10.702  20.424  0.00  0.00    +0.000 A 
ATOM     11  C   UNL     1       0.456   9.612  19.966  0.00  0.00    +0.000 A 
BRANCH   9  12
ATOM     12  C   UNL     1      -1.359  11.961  22.340  0.00  0.00    +0.000 C 
ATOM     13  O   UNL     1      -2.477  12.262  21.958  0.00  0.00    +0.000 OA
BRANCH  12  14
ATOM     14  O   UNL     1      -0.693  12.667  23.277  0.00  0.00    +0.000 OA
ATOM     15  H   UNL     1      -0.633  12.255  24.158  0.00  0.00    +0.000 HD
ENDBRANCH  12  14
ENDBRANCH   9  12
ENDBRANCH   3   6
BRANCH   5  16
ATOM     16  C   UNL     1       4.250   6.064  18.271  0.00  0.00    +0.000 A 
ATOM     17  C   UNL     1       4.255   6.674  17.011  0.00  0.00    +0.000 A 
ATOM     18  C   UNL     1       5.307   6.447  16.121  0.00  0.00    +0.000 A 
ATOM     19  C   UNL     1       6.357   5.601  16.477  0.00  0.00    +0.000 A 
ATOM     20  C   UNL     1       6.318   4.928  17.698  0.00  0.00    +0.000 A 
ATOM     21  C   UNL     1       5.296   5.189  18.604  0.00  0.00    +0.000 A 
BRANCH  19  22
ATOM     22  O   UNL     1       7.371   5.457  15.560  0.00  0.00    +0.000 OA
BRANCH  22  23
ATOM     23  C   UNL     1       7.090   4.895  14.333  0.00  0.00    +0.000 A 
ATOM     24  C   UNL     1       6.064   3.950  14.313  0.00  0.00    +0.000 A 
ATOM     25  C   UNL     1       5.725   3.314  13.118  0.00  0.00    +0.000 A 
ATOM     26  C   UNL     1       6.411   3.620  11.943  0.00  0.00    +0.000 A 
ATOM     27  C   UNL     1       7.416   4.584  11.953  0.00  0.00    +0.000 A 
ATOM     28  C   UNL     1       7.732   5.244  13.139  0.00  0.00    +0.000 A 
ENDBRANCH  22  23
ENDBRANCH  19  22
ENDBRANCH   5  16
BRANCH   1  30
ATOM     29  N   UNL     1       2.653   2.850  20.280  0.00  0.00    +0.000 NA
ATOM     30  C   UNL     1       2.553   4.000  20.180  0.00  0.00    +0.000 C 
ENDBRANCH   1  30
TORSDOF 7
ENDMDL
MODEL 5
REMARK VINA RESULT:      -8.2      0.330      1.076
REMARK  Name = 
REMARK  7 active torsions:
REMARK  status: ('A' for Active; 'I' for Inactive)
REMARK    1  A    between atoms: C_2  and  C_3
REMARK    2  A    between atoms: N_5  and  C_6
REMARK    3  A    between atoms: C_9  and  C_10
REMARK    4  A    between atoms: C_10  and  O_12
REMARK    5  A    between atoms: C_16  and  C_17
REMARK    6  A    between atoms: C_20  and  O_21
REMARK    7  A    between atoms: O_21  and  C_22
REMARK                            x       y       z     vdW  Elec       q    Type
REMARK                         _______ _______ _______ _____ _____    ______ ____
ROOT
ATOM      1  C   UNL     1       2.369   5.359  20.071  0.00  0.00    +0.000 A 
ATOM      2  C   UNL     1       1.449   6.095  20.792  0.00  0.00    +0.000 A 
ATOM      3  N   UNL     1       1.571   7.429  20.458  0.00  0.00    +0.000 N 
ATOM      4  C   UNL     1       2.592   7.520  19.538  0.00  0.00    +0.000 A 
ATOM      5  C   UNL     1       3.108   6.265  19.273  0.00  0.00    +0.000 A 
ENDROOT
BRANCH   3   6
ATOM      6  C   UNL     1       0.794   8.517  20.952  0.00  0.00    +0.000 A 
ATOM      7  C   UNL     1       0.533   9.627  20.141  0.00  0.00    +0.000 A 
ATOM      8  C   UNL     1      -0.233  10.690  20.629  0.00  0.00    +0.000 A 
ATOM      9  C   UNL     1      -0.737  10.667  21.933  0.00  0.00    +0.000 A 
ATOM     10  C   UNL     1      -0.489   9.558  22.747  0.00  0.00    +0.000 A 
ATOM     11  C   UNL     1       0.275   8.492  22.260  0.00  0.00    +0.000 A 
BRANCH   9  12
ATOM     12  C   UNL     1      -1.576  11.810  22.369  0.00  0.00    +0.000 C 
ATOM     13  O   UNL     1      -2.207  11.799  23.412  0.00  0.00    +0.000 OA
BRANCH  12  14
ATOM     14  O   UNL     1      -1.612  12.846  21.506  0.00  0.00    +0.000 OA
ATOM     15  H   UNL     1      -1.201  13.673  21.815  0.00  0.00    +0.000 HD
ENDBRANCH  12  14
ENDBRANCH   9  12
ENDBRANCH   3   6
BRANCH   5  16
ATOM     16  C   UNL     1       4.197   6.071  18.329  0.00  0.00    +0.000 A 
ATOM     17  C   UNL     1       5.259   5.203  18.607  0.00  0.00    +0.000 A 
ATOM     18  C   UNL     1       6.285   5.022  17.676  0.00  0.00    +0.000 A 
ATOM     19  C   UNL     1       6.263   5.713  16.465  0.00  0.00    +0.000 A 
ATOM     20  C   UNL     1       5.250   6.639  16.216  0.00  0.00    +0.000 A 
ATOM     21  C   UNL     1       4.204   6.785  17.121  0.00  0.00    +0.000 A 
BRANCH  19  22
ATOM     22  O   UNL     1       7.290   5.454  15.588  0.00  0.00    +0.000 OA
BRANCH  22  23
ATOM     23  C   UNL     1       7.005   4.850  14.383  0.00  0.00    +0.000 A 
ATOM     24  C   UNL     1       7.798   5.237  13.302  0.00  0.00    +0.000 A 
ATOM     25  C   UNL     1       7.566   4.692  12.037  0.00  0.00    +0.000 A 
ATOM     26  C   UNL     1       6.543   3.763  11.852  0.00  0.00    +0.000 A 
ATOM     27  C   UNL     1       5.768   3.353  12.935  0.00  0.00    +0.000 A 
ATOM     28  C   UNL     1       6.021   3.871  14.203  0.00  0.00    +0.000 A 
ENDBRANCH  22  23
ENDBRANCH  19  22
ENDBRANCH   5  16
BRANCH   1  30
ATOM     29  N   UNL     1       2.593   2.781  20.197  0.00  0.00    +0.000 NA
ATOM     30  C   UNL     1       2.489   3.934  20.144  0.00  0.00    +0.000 C 
ENDBRANCH   1  30
TORSDOF 7
ENDMDL
MODEL 6
REMARK VINA RESULT:      -8.0      3.602      5.670
REMARK  Name = 
REMARK  7 active torsions:
REMARK  status: ('A' for Active; 'I' for Inactive)
REMARK    1  A    between atoms: C_2  and  C_3
REMARK    2  A    between atoms: N_5  and  C_6
REMARK    3  A    between atoms: C_9  and  C_10
REMARK    4  A    between atoms: C_10  and  O_12
REMARK    5  A    between atoms: C_16  and  C_17
REMARK    6  A    between atoms: C_20  and  O_21
REMARK    7  A    between atoms: O_21  and  C_22
REMARK                            x       y       z     vdW  Elec       q    Type
REMARK                         _______ _______ _______ _____ _____    ______ ____
ROOT
ATOM      1  C   UNL     1       0.912  12.020  19.451  0.00  0.00    +0.000 A 
ATOM      2  C   UNL     1      -0.084  12.729  20.092  0.00  0.00    +0.000 A 
ATOM      3  N   UNL     1      -0.938  11.846  20.722  0.00  0.00    +0.000 N 
ATOM      4  C   UNL     1      -0.476  10.577  20.449  0.00  0.00    +0.000 A 
ATOM      5  C   UNL     1       0.664  10.643  19.668  0.00  0.00    +0.000 A 
ENDROOT
BRANCH   3   6
ATOM      6  C   UNL     1      -2.077  12.165  21.516  0.00  0.00    +0.000 A 
ATOM      7  C   UNL     1      -3.217  12.724  20.927  0.00  0.00    +0.000 A 
ATOM      8  C   UNL     1      -4.335  13.031  21.709  0.00  0.00    +0.000 A 
ATOM      9  C   UNL     1      -4.327  12.798  23.087  0.00  0.00    +0.000 A 
ATOM     10  C   UNL     1      -3.196  12.232  23.683  0.00  0.00    +0.000 A 
ATOM     11  C   UNL     1      -2.078  11.920  22.902  0.00  0.00    +0.000 A 
BRANCH   9  12
ATOM     12  C   UNL     1      -5.562  13.110  23.847  0.00  0.00    +0.000 C 
ATOM     13  O   UNL     1      -6.412  12.270  24.089  0.00  0.00    +0.000 OA
BRANCH  12  14
ATOM     14  O   UNL     1      -5.686  14.401  24.219  0.00  0.00    +0.000 OA
ATOM     15  H   UNL     1      -6.340  14.927  23.723  0.00  0.00    +0.000 HD
ENDBRANCH  12  14
ENDBRANCH   9  12
ENDBRANCH   3   6
BRANCH   5  16
ATOM     16  C   UNL     1       1.364   9.444  19.236  0.00  0.00    +0.000 A 
ATOM     17  C   UNL     1       1.816   9.297  17.920  0.00  0.00    +0.000 A 
ATOM     18  C   UNL     1       2.501   8.141  17.534  0.00  0.00    +0.000 A 
ATOM     19  C   UNL     1       2.730   7.121  18.456  0.00  0.00    +0.000 A 
ATOM     20  C   UNL     1       2.212   7.227  19.748  0.00  0.00    +0.000 A 
ATOM     21  C   UNL     1       1.572   8.396  20.145  0.00  0.00    +0.000 A 
BRANCH  19  22
ATOM     22  O   UNL     1       3.440   6.032  18.009  0.00  0.00    +0.000 OA
BRANCH  22  23
ATOM     23  C   UNL     1       4.817   6.061  18.067  0.00  0.00    +0.000 A 
ATOM     24  C   UNL     1       5.397   5.407  19.154  0.00  0.00    +0.000 A 
ATOM     25  C   UNL     1       6.785   5.404  19.306  0.00  0.00    +0.000 A 
ATOM     26  C   UNL     1       7.593   6.054  18.373  0.00  0.00    +0.000 A 
ATOM     27  C   UNL     1       7.018   6.683  17.271  0.00  0.00    +0.000 A 
ATOM     28  C   UNL     1       5.636   6.657  17.101  0.00  0.00    +0.000 A 
ENDBRANCH  22  23
ENDBRANCH  19  22
ENDBRANCH   5  16
BRANCH   1  30
ATOM     29  N   UNL     1       2.868  13.111  18.148  0.00  0.00    +0.000 NA
ATOM     30  C   UNL     1       1.990  12.627  18.729  0.00  0.00    +0.000 C 
ENDBRANCH   1  30
TORSDOF 7
ENDMDL
MODEL 7
REMARK VINA RESULT:      -8.0      4.381      5.987
REMARK  Name = 
REMARK  7 active torsions:
REMARK  status: ('A' for Active; 'I' for Inactive)
REMARK    1  A    between atoms: C_2  and  C_3
REMARK    2  A    between atoms: N_5  and  C_6
REMARK    3  A    between atoms: C_9  and  C_10
REMARK    4  A    between atoms: C_10  and  O_12
REMARK    5  A    between atoms: C_16  and  C_17
REMARK    6  A    between atoms: C_20  and  O_21
REMARK    7  A    between atoms: O_21  and  C_22
REMARK                            x       y       z     vdW  Elec       q    Type
REMARK                         _______ _______ _______ _____ _____    ______ ____
ROOT
ATOM      1  C   UNL     1       0.906  11.918  19.440  0.00  0.00    +0.000 A 
ATOM      2  C   UNL     1      -0.095  12.646  20.055  0.00  0.00    +0.000 A 
ATOM      3  N   UNL     1      -0.956  11.780  20.699  0.00  0.00    +0.000 N 
ATOM      4  C   UNL     1      -0.495  10.504  20.461  0.00  0.00    +0.000 A 
ATOM      5  C   UNL     1       0.652  10.548  19.688  0.00  0.00    +0.000 A 
ENDROOT
BRANCH   3   6
ATOM      6  C   UNL     1      -2.102  12.121  21.475  0.00  0.00    +0.000 A 
ATOM      7  C   UNL     1      -2.110  11.908  22.858  0.00  0.00    +0.000 A 
ATOM      8  C   UNL     1      -3.235  12.248  23.616  0.00  0.00    +0.000 A 
ATOM      9  C   UNL     1      -4.369  12.792  23.004  0.00  0.00    +0.000 A 
ATOM     10  C   UNL     1      -4.366  13.017  21.625  0.00  0.00    +0.000 A 
ATOM     11  C   UNL     1      -3.240  12.680  20.865  0.00  0.00    +0.000 A 
BRANCH   9  12
ATOM     12  C   UNL     1      -5.510  13.167  23.875  0.00  0.00    +0.000 C 
ATOM     13  O   UNL     1      -6.382  12.374  24.189  0.00  0.00    +0.000 OA
BRANCH  12  14
ATOM     14  O   UNL     1      -5.524  14.458  24.263  0.00  0.00    +0.000 OA
ATOM     15  H   UNL     1      -5.772  14.623  25.191  0.00  0.00    +0.000 HD
ENDBRANCH  12  14
ENDBRANCH   9  12
ENDBRANCH   3   6
BRANCH   5  16
ATOM     16  C   UNL     1       1.352   9.337  19.292  0.00  0.00    +0.000 A 
ATOM     17  C   UNL     1       1.603   8.307  20.206  0.00  0.00    +0.000 A 
ATOM     18  C   UNL     1       2.263   7.145  19.795  0.00  0.00    +0.000 A 
ATOM     19  C   UNL     1       2.687   7.009  18.474  0.00  0.00    +0.000 A 
ATOM     20  C   UNL     1       2.511   8.065  17.579  0.00  0.00    +0.000 A 
ATOM     21  C   UNL     1       1.813   9.201  17.974  0.00  0.00    +0.000 A 
BRANCH  19  22
ATOM     22  O   UNL     1       3.298   5.823  18.141  0.00  0.00    +0.000 OA
BRANCH  22  23
ATOM     23  C   UNL     1       2.801   4.646  18.655  0.00  0.00    +0.000 A 
ATOM     24  C   UNL     1       1.647   4.152  18.047  0.00  0.00    +0.000 A 
ATOM     25  C   UNL     1       1.060   2.976  18.517  0.00  0.00    +0.000 A 
ATOM     26  C   UNL     1       1.624   2.293  19.594  0.00  0.00    +0.000 A 
ATOM     27  C   UNL     1       2.793   2.768  20.185  0.00  0.00    +0.000 A 
ATOM     28  C   UNL     1       3.398   3.923  19.695  0.00  0.00    +0.000 A 
ENDBRANCH  22  23
ENDBRANCH  19  22
ENDBRANCH   5  16
BRANCH   1  30
ATOM     29  N   UNL     1       2.874  12.984  18.135  0.00  0.00    +0.000 NA
ATOM     30  C   UNL     1       1.992  12.506  18.713  0.00  0.00    +0.000 C 
ENDBRANCH   1  30
TORSDOF 7
ENDMDL
MODEL 8
REMARK VINA RESULT:      -7.9      1.425      1.969
REMARK  Name = 
REMARK  7 active torsions:
REMARK  status: ('A' for Active; 'I' for Inactive)
REMARK    1  A    between atoms: C_2  and  C_3
REMARK    2  A    between atoms: N_5  and  C_6
REMARK    3  A    between atoms: C_9  and  C_10
REMARK    4  A    between atoms: C_10  and  O_12
REMARK    5  A    between atoms: C_16  and  C_17
REMARK    6  A    between atoms: C_20  and  O_21
REMARK    7  A    between atoms: O_21  and  C_22
REMARK                            x       y       z     vdW  Elec       q    Type
REMARK                         _______ _______ _______ _____ _____    ______ ____
ROOT
ATOM      1  C   UNL     1       3.412   4.814  19.391  0.00  0.00    +0.000 A 
ATOM      2  C   UNL     1       2.630   5.603  20.211  0.00  0.00    +0.000 A 
ATOM      3  N   UNL     1       2.453   6.839  19.621  0.00  0.00    +0.000 N 
ATOM      4  C   UNL     1       3.153   6.819  18.434  0.00  0.00    +0.000 A 
ATOM      5  C   UNL     1       3.756   5.587  18.257  0.00  0.00    +0.000 A 
ENDROOT
BRANCH   3   6
ATOM      6  C   UNL     1       1.691   7.934  20.121  0.00  0.00    +0.000 A 
ATOM      7  C   UNL     1       1.226   7.929  21.442  0.00  0.00    +0.000 A 
ATOM      8  C   UNL     1       0.482   9.007  21.930  0.00  0.00    +0.000 A 
ATOM      9  C   UNL     1       0.181  10.097  21.107  0.00  0.00    +0.000 A 
ATOM     10  C   UNL     1       0.650  10.114  19.790  0.00  0.00    +0.000 A 
ATOM     11  C   UNL     1       1.397   9.038  19.300  0.00  0.00    +0.000 A 
BRANCH   9  12
ATOM     12  C   UNL     1      -0.577  11.224  21.704  0.00  0.00    +0.000 C 
ATOM     13  O   UNL     1      -0.447  11.555  22.870  0.00  0.00    +0.000 OA
BRANCH  12  14
ATOM     14  O   UNL     1      -1.442  11.829  20.865  0.00  0.00    +0.000 OA
ATOM     15  H   UNL     1      -1.098  12.043  19.979  0.00  0.00    +0.000 HD
ENDBRANCH  12  14
ENDBRANCH   9  12
ENDBRANCH   3   6
BRANCH   5  16
ATOM     16  C   UNL     1       4.556   5.292  17.079  0.00  0.00    +0.000 A 
ATOM     17  C   UNL     1       4.908   3.978  16.746  0.00  0.00    +0.000 A 
ATOM     18  C   UNL     1       5.663   3.720  15.599  0.00  0.00    +0.000 A 
ATOM     19  C   UNL     1       6.081   4.770  14.783  0.00  0.00    +0.000 A 
ATOM     20  C   UNL     1       5.802   6.086  15.152  0.00  0.00    +0.000 A 
ATOM     21  C   UNL     1       5.011   6.341  16.267  0.00  0.00    +0.000 A 
BRANCH  19  22
ATOM     22  O   UNL     1       6.791   4.430  13.655  0.00  0.00    +0.000 OA
BRANCH  22  23
ATOM     23  C   UNL     1       6.203   3.612  12.715  0.00  0.00    +0.000 A 
ATOM     24  C   UNL     1       4.889   3.927  12.366  0.00  0.00    +0.000 A 
ATOM     25  C   UNL     1       4.207   3.138  11.438  0.00  0.00    +0.000 A 
ATOM     26  C   UNL     1       4.835   2.036  10.859  0.00  0.00    +0.000 A 
ATOM     27  C   UNL     1       6.156   1.736  11.184  0.00  0.00    +0.000 A 
ATOM     28  C   UNL     1       6.848   2.542  12.085  0.00  0.00    +0.000 A 
ENDBRANCH  22  23
ENDBRANCH  19  22
ENDBRANCH   5  16
BRANCH   1  30
ATOM     29  N   UNL     1       4.042   2.359  19.926  0.00  0.00    +0.000 NA
ATOM     30  C   UNL     1       3.759   3.455  19.682  0.00  0.00    +0.000 C 
ENDBRANCH   1  30
TORSDOF 7
ENDMDL
MODEL 9
REMARK VINA RESULT:      -7.9      4.363      6.061
REMARK  Name = 
REMARK  7 active torsions:
REMARK  status: ('A' for Active; 'I' for Inactive)
REMARK    1  A    between atoms: C_2  and  C_3
REMARK    2  A    between atoms: N_5  and  C_6
REMARK    3  A    between atoms: C_9  and  C_10
REMARK    4  A    between atoms: C_10  and  O_12
REMARK    5  A    between atoms: C_16  and  C_17
REMARK    6  A    between atoms: C_20  and  O_21
REMARK    7  A    between atoms: O_21  and  C_22
REMARK                            x       y       z     vdW  Elec       q    Type
REMARK                         _______ _______ _______ _____ _____    ______ ____
ROOT
ATOM      1  C   UNL     1       0.903  11.940  19.462  0.00  0.00    +0.000 A 
ATOM      2  C   UNL     1      -0.079  12.688  20.083  0.00  0.00    +0.000 A 
ATOM      3  N   UNL     1      -0.952  11.841  20.735  0.00  0.00    +0.000 N 
ATOM      4  C   UNL     1      -0.518  10.556  20.496  0.00  0.00    +0.000 A 
ATOM      5  C   UNL     1       0.624  10.576  19.716  0.00  0.00    +0.000 A 
ENDROOT
BRANCH   3   6
ATOM      6  C   UNL     1      -2.085  12.206  21.518  0.00  0.00    +0.000 A 
ATOM      7  C   UNL     1      -3.178  12.851  20.926  0.00  0.00    +0.000 A 
ATOM      8  C   UNL     1      -4.289  13.203  21.698  0.00  0.00    +0.000 A 
ATOM      9  C   UNL     1      -4.322  12.930  23.069  0.00  0.00    +0.000 A 
ATOM     10  C   UNL     1      -3.239  12.279  23.666  0.00  0.00    +0.000 A 
ATOM     11  C   UNL     1      -2.127  11.922  22.896  0.00  0.00    +0.000 A 
BRANCH   9  12
ATOM     12  C   UNL     1      -5.550  13.296  23.816  0.00  0.00    +0.000 C 
ATOM     13  O   UNL     1      -6.098  14.377  23.686  0.00  0.00    +0.000 OA
BRANCH  12  14
ATOM     14  O   UNL     1      -5.991  12.352  24.673  0.00  0.00    +0.000 OA
ATOM     15  H   UNL     1      -6.828  11.915  24.431  0.00  0.00    +0.000 HD
ENDBRANCH  12  14
ENDBRANCH   9  12
ENDBRANCH   3   6
BRANCH   5  16
ATOM     16  C   UNL     1       1.298   9.350  19.317  0.00  0.00    +0.000 A 
ATOM     17  C   UNL     1       1.682   9.127  17.990  0.00  0.00    +0.000 A 
ATOM     18  C   UNL     1       2.344   7.948  17.636  0.00  0.00    +0.000 A 
ATOM     19  C   UNL     1       2.616   6.980  18.601  0.00  0.00    +0.000 A 
ATOM     20  C   UNL     1       2.164   7.161  19.909  0.00  0.00    +0.000 A 
ATOM     21  C   UNL     1       1.548   8.354  20.272  0.00  0.00    +0.000 A 
BRANCH  19  22
ATOM     22  O   UNL     1       3.300   5.864  18.180  0.00  0.00    +0.000 OA
BRANCH  22  23
ATOM     23  C   UNL     1       2.884   4.622  18.608  0.00  0.00    +0.000 A 
ATOM     24  C   UNL     1       1.686   4.157  18.065  0.00  0.00    +0.000 A 
ATOM     25  C   UNL     1       1.176   2.918  18.458  0.00  0.00    +0.000 A 
ATOM     26  C   UNL     1       1.862   2.144  19.394  0.00  0.00    +0.000 A 
ATOM     27  C   UNL     1       3.073   2.592  19.917  0.00  0.00    +0.000 A 
ATOM     28  C   UNL     1       3.598   3.813  19.499  0.00  0.00    +0.000 A 
ENDBRANCH  22  23
ENDBRANCH  19  22
ENDBRANCH   5  16
BRANCH   1  30
ATOM     29  N   UNL     1       2.882  12.964  18.141  0.00  0.00    +0.000 NA
ATOM     30  C   UNL     1       1.995  12.505  18.727  0.00  0.00    +0.000 C 
ENDBRANCH   1  30
TORSDOF 7
ENDMDL
