MODEL 1
REMARK VINA RESULT:      -7.7      0.000      0.000
REMARK  Name = 
REMARK  2 active torsions:
REMARK  status: ('A' for Active; 'I' for Inactive)
REMARK    1  A    between atoms: C_8  and  S_9
REMARK    2  A    between atoms: S_9  and  C_10
REMARK                            x       y       z     vdW  Elec       q    Type
REMARK                         _______ _______ _______ _____ _____    ______ ____
ROOT
ATOM      1  O   UNL     1       7.998   5.217  20.404  0.00  0.00    +0.000 OA
ATOM      2  C   UNL     1       7.700   5.834  19.395  0.00  0.00    +0.000 A 
ATOM      3  N   UNL     1       8.341   6.991  18.924  0.00  0.00    +0.000 N 
ATOM      4  N   UNL     1       7.767   7.435  17.751  0.00  0.00    +0.000 NA
ATOM      5  C   UNL     1       6.818   6.576  17.534  0.00  0.00    +0.000 A 
ATOM      6  C   UNL     1       5.875   6.553  16.412  0.00  0.00    +0.000 A 
ATOM      7  C   UNL     1       4.975   5.560  16.367  0.00  0.00    +0.000 A 
ATOM      8  C   UNL     1       5.017   4.550  17.455  0.00  0.00    +0.000 A 
ATOM      9  N   UNL     1       5.830   4.556  18.462  0.00  0.00    +0.000 NA
ATOM     10  N   UNL     1       6.709   5.598  18.466  0.00  0.00    +0.000 N 
ATOM     11  H   UNL     1       9.130   7.449  19.360  0.00  0.00    +0.000 HD
ENDROOT
BRANCH   8  12
ATOM     12  S   UNL     1       3.889   3.226  17.257  0.00  0.00    +0.000 S 
BRANCH  12  13
ATOM     13  C   UNL     1       2.831   3.412  18.679  0.00  0.00    +0.000 A 
ATOM     14  C   UNL     1       2.220   2.314  19.295  0.00  0.00    +0.000 A 
ATOM     15  C   UNL     1       1.376   2.498  20.396  0.00  0.00    +0.000 A 
ATOM     16  C   UNL     1       1.131   3.782  20.881  0.00  0.00    +0.000 A 
ATOM     17  C   UNL     1       1.718   4.878  20.254  0.00  0.00    +0.000 A 
ATOM     18 CL   UNL     1       1.403   6.466  20.837  0.00  0.00    +0.000 Cl
ATOM     19  C   UNL     1       2.560   4.700  19.155  0.00  0.00    +0.000 A 
ENDBRANCH  12  13
ENDBRANCH   8  12
TORSDOF 2
ENDMDL
MODEL 2
REMARK VINA RESULT:      -7.4      3.693      4.558
REMARK  Name = 
REMARK  2 active torsions:
REMARK  status: ('A' for Active; 'I' for Inactive)
REMARK    1  A    between atoms: C_8  and  S_9
REMARK    2  A    between atoms: S_9  and  C_10
REMARK                            x       y       z     vdW  Elec       q    Type
REMARK                         _______ _______ _______ _____ _____    ______ ____
ROOT
ATOM      1  O   UNL     1       8.941   6.130  12.954  0.00  0.00    +0.000 OA
ATOM      2  C   UNL     1       8.024   5.334  13.057  0.00  0.00    +0.000 A 
ATOM      3  N   UNL     1       7.510   4.537  12.020  0.00  0.00    +0.000 N 
ATOM      4  N   UNL     1       6.482   3.736  12.470  0.00  0.00    +0.000 NA
ATOM      5  C   UNL     1       6.385   4.047  13.727  0.00  0.00    +0.000 A 
ATOM      6  C   UNL     1       5.450   3.496  14.713  0.00  0.00    +0.000 A 
ATOM      7  C   UNL     1       5.528   3.944  15.974  0.00  0.00    +0.000 A 
ATOM      8  C   UNL     1       6.571   4.958  16.275  0.00  0.00    +0.000 A 
ATOM      9  N   UNL     1       7.398   5.469  15.421  0.00  0.00    +0.000 NA
ATOM     10  N   UNL     1       7.260   4.990  14.152  0.00  0.00    +0.000 N 
ATOM     11  H   UNL     1       7.843   4.524  11.065  0.00  0.00    +0.000 HD
ENDROOT
BRANCH   8  12
ATOM     12  S   UNL     1       6.683   5.401  17.965  0.00  0.00    +0.000 S 
BRANCH  12  13
ATOM     13  C   UNL     1       5.008   5.877  18.345  0.00  0.00    +0.000 A 
ATOM     14  C   UNL     1       4.357   6.906  17.655  0.00  0.00    +0.000 A 
ATOM     15  C   UNL     1       3.050   7.270  17.994  0.00  0.00    +0.000 A 
ATOM     16  C   UNL     1       2.389   6.613  19.031  0.00  0.00    +0.000 A 
ATOM     17  C   UNL     1       3.043   5.605  19.735  0.00  0.00    +0.000 A 
ATOM     18 CL   UNL     1       2.239   4.806  21.029  0.00  0.00    +0.000 Cl
ATOM     19  C   UNL     1       4.348   5.240  19.402  0.00  0.00    +0.000 A 
ENDBRANCH  12  13
ENDBRANCH   8  12
TORSDOF 2
ENDMDL
MODEL 3
REMARK VINA RESULT:      -7.4      2.072      2.377
REMARK  Name = 
REMARK  2 active torsions:
REMARK  status: ('A' for Active; 'I' for Inactive)
REMARK    1  A    between atoms: C_8  and  S_9
REMARK    2  A    between atoms: S_9  and  C_10
REMARK                            x       y       z     vdW  Elec       q    Type
REMARK                         _______ _______ _______ _____ _____    ______ ____
ROOT
ATOM      1  O   UNL     1       7.942   4.336  18.553  0.00  0.00    +0.000 OA
ATOM      2  C   UNL     1       7.435   4.852  17.572  0.00  0.00    +0.000 A 
ATOM      3  N   UNL     1       7.982   4.863  16.278  0.00  0.00    +0.000 N 
ATOM      4  N   UNL     1       7.152   5.521  15.394  0.00  0.00    +0.000 NA
ATOM      5  C   UNL     1       6.152   5.890  16.134  0.00  0.00    +0.000 A 
ATOM      6  C   UNL     1       4.958   6.632  15.716  0.00  0.00    +0.000 A 
ATOM      7  C   UNL     1       4.027   6.899  16.643  0.00  0.00    +0.000 A 
ATOM      8  C   UNL     1       4.275   6.408  18.023  0.00  0.00    +0.000 A 
ATOM      9  N   UNL     1       5.326   5.763  18.418  0.00  0.00    +0.000 NA
ATOM     10  N   UNL     1       6.246   5.537  17.439  0.00  0.00    +0.000 N 
ATOM     11  H   UNL     1       8.857   4.439  16.002  0.00  0.00    +0.000 HD
ENDROOT
BRANCH   8  12
ATOM     12  S   UNL     1       2.960   6.695  19.141  0.00  0.00    +0.000 S 
BRANCH  12  13
ATOM     13  C   UNL     1       2.194   5.089  19.247  0.00  0.00    +0.000 A 
ATOM     14  C   UNL     1       1.649   4.454  18.125  0.00  0.00    +0.000 A 
ATOM     15  C   UNL     1       1.034   3.203  18.248  0.00  0.00    +0.000 A 
ATOM     16  C   UNL     1       0.953   2.585  19.494  0.00  0.00    +0.000 A 
ATOM     17  C   UNL     1       1.472   3.226  20.616  0.00  0.00    +0.000 A 
ATOM     18 CL   UNL     1       1.355   2.475  22.160  0.00  0.00    +0.000 Cl
ATOM     19  C   UNL     1       2.085   4.474  20.500  0.00  0.00    +0.000 A 
ENDBRANCH  12  13
ENDBRANCH   8  12
TORSDOF 2
ENDMDL
MODEL 4
REMARK VINA RESULT:      -7.3      2.819      3.211
REMARK  Name = 
REMARK  2 active torsions:
REMARK  status: ('A' for Active; 'I' for Inactive)
REMARK    1  A    between atoms: C_8  and  S_9
REMARK    2  A    between atoms: S_9  and  C_10
REMARK                            x       y       z     vdW  Elec       q    Type
REMARK                         _______ _______ _______ _____ _____    ______ ____
ROOT
ATOM      1  O   UNL     1       6.533   3.730  13.868  0.00  0.00    +0.000 OA
ATOM      2  C   UNL     1       6.588   4.543  14.775  0.00  0.00    +0.000 A 
ATOM      3  N   UNL     1       7.638   5.448  15.002  0.00  0.00    +0.000 N 
ATOM      4  N   UNL     1       7.386   6.237  16.105  0.00  0.00    +0.000 NA
ATOM      5  C   UNL     1       6.230   5.815  16.521  0.00  0.00    +0.000 A 
ATOM      6  C   UNL     1       5.464   6.303  17.671  0.00  0.00    +0.000 A 
ATOM      7  C   UNL     1       4.274   5.739  17.919  0.00  0.00    +0.000 A 
ATOM      8  C   UNL     1       3.819   4.668  16.996  0.00  0.00    +0.000 A 
ATOM      9  N   UNL     1       4.483   4.211  15.982  0.00  0.00    +0.000 NA
ATOM     10  N   UNL     1       5.692   4.809  15.790  0.00  0.00    +0.000 N 
ATOM     11  H   UNL     1       8.472   5.539  14.438  0.00  0.00    +0.000 HD
ENDROOT
BRANCH   8  12
ATOM     12  S   UNL     1       2.207   4.068  17.320  0.00  0.00    +0.000 S 
BRANCH  12  13
ATOM     13  C   UNL     1       2.347   3.491  19.001  0.00  0.00    +0.000 A 
ATOM     14  C   UNL     1       1.375   3.780  19.965  0.00  0.00    +0.000 A 
ATOM     15  C   UNL     1       1.527   3.332  21.281  0.00  0.00    +0.000 A 
ATOM     16  C   UNL     1       2.658   2.601  21.643  0.00  0.00    +0.000 A 
ATOM     17  C   UNL     1       3.639   2.334  20.692  0.00  0.00    +0.000 A 
ATOM     18 CL   UNL     1       5.045   1.450  21.139  0.00  0.00    +0.000 Cl
ATOM     19  C   UNL     1       3.493   2.780  19.377  0.00  0.00    +0.000 A 
ENDBRANCH  12  13
ENDBRANCH   8  12
TORSDOF 2
ENDMDL
MODEL 5
REMARK VINA RESULT:      -7.2      3.899      6.293
REMARK  Name = 
REMARK  2 active torsions:
REMARK  status: ('A' for Active; 'I' for Inactive)
REMARK    1  A    between atoms: C_8  and  S_9
REMARK    2  A    between atoms: S_9  and  C_10
REMARK                            x       y       z     vdW  Elec       q    Type
REMARK                         _______ _______ _______ _____ _____    ______ ____
ROOT
ATOM      1  O   UNL     1       1.554   2.208  17.767  0.00  0.00    +0.000 OA
ATOM      2  C   UNL     1       1.421   2.958  18.720  0.00  0.00    +0.000 A 
ATOM      3  N   UNL     1       0.777   2.642  19.927  0.00  0.00    +0.000 N 
ATOM      4  N   UNL     1       0.809   3.708  20.802  0.00  0.00    +0.000 NA
ATOM      5  C   UNL     1       1.445   4.625  20.138  0.00  0.00    +0.000 A 
ATOM      6  C   UNL     1       1.776   5.981  20.585  0.00  0.00    +0.000 A 
ATOM      7  C   UNL     1       2.460   6.771  19.745  0.00  0.00    +0.000 A 
ATOM      8  C   UNL     1       2.841   6.200  18.428  0.00  0.00    +0.000 A 
ATOM      9  N   UNL     1       2.549   5.012  18.006  0.00  0.00    +0.000 NA
ATOM     10  N   UNL     1       1.837   4.261  18.893  0.00  0.00    +0.000 N 
ATOM     11  H   UNL     1       0.352   1.753  20.155  0.00  0.00    +0.000 HD
ENDROOT
BRANCH   8  12
ATOM     12  S   UNL     1       3.831   7.253  17.441  0.00  0.00    +0.000 S 
BRANCH  12  13
ATOM     13  C   UNL     1       5.210   6.201  17.028  0.00  0.00    +0.000 A 
ATOM     14  C   UNL     1       6.254   5.963  17.929  0.00  0.00    +0.000 A 
ATOM     15  C   UNL     1       7.333   5.151  17.565  0.00  0.00    +0.000 A 
ATOM     16  C   UNL     1       7.378   4.579  16.294  0.00  0.00    +0.000 A 
ATOM     17  C   UNL     1       6.352   4.834  15.387  0.00  0.00    +0.000 A 
ATOM     18 CL   UNL     1       6.414   4.147  13.811  0.00  0.00    +0.000 Cl
ATOM     19  C   UNL     1       5.275   5.645  15.745  0.00  0.00    +0.000 A 
ENDBRANCH  12  13
ENDBRANCH   8  12
TORSDOF 2
ENDMDL
MODEL 6
REMARK VINA RESULT:      -7.2      2.991      3.881
REMARK  Name = 
REMARK  2 active torsions:
REMARK  status: ('A' for Active; 'I' for Inactive)
REMARK    1  A    between atoms: C_8  and  S_9
REMARK    2  A    between atoms: S_9  and  C_10
REMARK                            x       y       z     vdW  Elec       q    Type
REMARK                         _______ _______ _______ _____ _____    ______ ____
ROOT
ATOM      1  O   UNL     1       7.798   6.976  16.999  0.00  0.00    +0.000 OA
ATOM      2  C   UNL     1       7.125   6.057  16.563  0.00  0.00    +0.000 A 
ATOM      3  N   UNL     1       7.433   5.280  15.434  0.00  0.00    +0.000 N 
ATOM      4  N   UNL     1       6.471   4.316  15.217  0.00  0.00    +0.000 NA
ATOM      5  C   UNL     1       5.621   4.514  16.178  0.00  0.00    +0.000 A 
ATOM      6  C   UNL     1       4.388   3.768  16.447  0.00  0.00    +0.000 A 
ATOM      7  C   UNL     1       3.656   4.125  17.511  0.00  0.00    +0.000 A 
ATOM      8  C   UNL     1       4.163   5.245  18.345  0.00  0.00    +0.000 A 
ATOM      9  N   UNL     1       5.241   5.926  18.122  0.00  0.00    +0.000 NA
ATOM     10  N   UNL     1       5.934   5.532  17.017  0.00  0.00    +0.000 N 
ATOM     11  H   UNL     1       8.252   5.384  14.850  0.00  0.00    +0.000 HD
ENDROOT
BRANCH   8  12
ATOM     12  S   UNL     1       3.212   5.569  19.778  0.00  0.00    +0.000 S 
BRANCH  12  13
ATOM     13  C   UNL     1       2.410   7.106  19.362  0.00  0.00    +0.000 A 
ATOM     14  C   UNL     1       2.486   7.655  18.077  0.00  0.00    +0.000 A 
ATOM     15  C   UNL     1       1.864   8.875  17.791  0.00  0.00    +0.000 A 
ATOM     16  C   UNL     1       1.172   9.558  18.790  0.00  0.00    +0.000 A 
ATOM     17  C   UNL     1       1.117   9.025  20.076  0.00  0.00    +0.000 A 
ATOM     18 CL   UNL     1       0.281   9.874  21.317  0.00  0.00    +0.000 Cl
ATOM     19  C   UNL     1       1.736   7.809  20.368  0.00  0.00    +0.000 A 
ENDBRANCH  12  13
ENDBRANCH   8  12
TORSDOF 2
ENDMDL
MODEL 7
REMARK VINA RESULT:      -7.2      3.347      5.941
REMARK  Name = 
REMARK  2 active torsions:
REMARK  status: ('A' for Active; 'I' for Inactive)
REMARK    1  A    between atoms: C_8  and  S_9
REMARK    2  A    between atoms: S_9  and  C_10
REMARK                            x       y       z     vdW  Elec       q    Type
REMARK                         _______ _______ _______ _____ _____    ______ ____
ROOT
ATOM      1  O   UNL     1       1.470   5.612  20.799  0.00  0.00    +0.000 OA
ATOM      2  C   UNL     1       1.647   4.486  20.366  0.00  0.00    +0.000 A 
ATOM      3  N   UNL     1       1.051   3.315  20.863  0.00  0.00    +0.000 N 
ATOM      4  N   UNL     1       1.452   2.209  20.144  0.00  0.00    +0.000 NA
ATOM      5  C   UNL     1       2.261   2.702  19.255  0.00  0.00    +0.000 A 
ATOM      6  C   UNL     1       2.988   1.977  18.210  0.00  0.00    +0.000 A 
ATOM      7  C   UNL     1       3.764   2.684  17.376  0.00  0.00    +0.000 A 
ATOM      8  C   UNL     1       3.814   4.155  17.572  0.00  0.00    +0.000 A 
ATOM      9  N   UNL     1       3.192   4.817  18.495  0.00  0.00    +0.000 NA
ATOM     10  N   UNL     1       2.434   4.045  19.323  0.00  0.00    +0.000 N 
ATOM     11  H   UNL     1       0.398   3.265  21.634  0.00  0.00    +0.000 HD
ENDROOT
BRANCH   8  12
ATOM     12  S   UNL     1       4.754   5.014  16.371  0.00  0.00    +0.000 S 
BRANCH  12  13
ATOM     13  C   UNL     1       6.111   5.651  17.335  0.00  0.00    +0.000 A 
ATOM     14  C   UNL     1       6.745   4.881  18.317  0.00  0.00    +0.000 A 
ATOM     15  C   UNL     1       7.792   5.419  19.073  0.00  0.00    +0.000 A 
ATOM     16  C   UNL     1       8.205   6.733  18.857  0.00  0.00    +0.000 A 
ATOM     17  C   UNL     1       7.559   7.509  17.897  0.00  0.00    +0.000 A 
ATOM     18 CL   UNL     1       8.052   9.137  17.642  0.00  0.00    +0.000 Cl
ATOM     19  C   UNL     1       6.513   6.978  17.142  0.00  0.00    +0.000 A 
ENDBRANCH  12  13
ENDBRANCH   8  12
TORSDOF 2
ENDMDL
MODEL 8
REMARK VINA RESULT:      -7.2      3.663      6.029
REMARK  Name = 
REMARK  2 active torsions:
REMARK  status: ('A' for Active; 'I' for Inactive)
REMARK    1  A    between atoms: C_8  and  S_9
REMARK    2  A    between atoms: S_9  and  C_10
REMARK                            x       y       z     vdW  Elec       q    Type
REMARK                         _______ _______ _______ _____ _____    ______ ____
ROOT
ATOM      1  O   UNL     1       1.587   1.537  18.730  0.00  0.00    +0.000 OA
ATOM      2  C   UNL     1       1.557   2.670  19.179  0.00  0.00    +0.000 A 
ATOM      3  N   UNL     1       0.795   3.095  20.280  0.00  0.00    +0.000 N 
ATOM      4  N   UNL     1       0.995   4.435  20.535  0.00  0.00    +0.000 NA
ATOM      5  C   UNL     1       1.840   4.796  19.618  0.00  0.00    +0.000 A 
ATOM      6  C   UNL     1       2.416   6.128  19.409  0.00  0.00    +0.000 A 
ATOM      7  C   UNL     1       3.292   6.284  18.407  0.00  0.00    +0.000 A 
ATOM      8  C   UNL     1       3.621   5.086  17.593  0.00  0.00    +0.000 A 
ATOM      9  N   UNL     1       3.117   3.904  17.750  0.00  0.00    +0.000 NA
ATOM     10  N   UNL     1       2.219   3.809  18.771  0.00  0.00    +0.000 N 
ATOM     11  H   UNL     1       0.185   2.511  20.837  0.00  0.00    +0.000 HD
ENDROOT
BRANCH   8  12
ATOM     12  S   UNL     1       4.859   5.349  16.384  0.00  0.00    +0.000 S 
BRANCH  12  13
ATOM     13  C   UNL     1       6.231   5.928  17.365  0.00  0.00    +0.000 A 
ATOM     14  C   UNL     1       6.838   5.122  18.335  0.00  0.00    +0.000 A 
ATOM     15  C   UNL     1       7.897   5.615  19.103  0.00  0.00    +0.000 A 
ATOM     16  C   UNL     1       8.350   6.920  18.913  0.00  0.00    +0.000 A 
ATOM     17  C   UNL     1       7.730   7.732  17.966  0.00  0.00    +0.000 A 
ATOM     18 CL   UNL     1       8.272   9.349  17.742  0.00  0.00    +0.000 Cl
ATOM     19  C   UNL     1       6.672   7.245  17.198  0.00  0.00    +0.000 A 
ENDBRANCH  12  13
ENDBRANCH   8  12
TORSDOF 2
ENDMDL
MODEL 9
REMARK VINA RESULT:      -7.1      2.989      3.624
REMARK  Name = 
REMARK  2 active torsions:
REMARK  status: ('A' for Active; 'I' for Inactive)
REMARK    1  A    between atoms: C_8  and  S_9
REMARK    2  A    between atoms: S_9  and  C_10
REMARK                            x       y       z     vdW  Elec       q    Type
REMARK                         _______ _______ _______ _____ _____    ______ ____
ROOT
ATOM      1  O   UNL     1       5.392   3.782  13.142  0.00  0.00    +0.000 OA
ATOM      2  C   UNL     1       6.044   4.305  14.030  0.00  0.00    +0.000 A 
ATOM      3  N   UNL     1       7.227   5.041  13.851  0.00  0.00    +0.000 N 
ATOM      4  N   UNL     1       7.709   5.507  15.057  0.00  0.00    +0.000 NA
ATOM      5  C   UNL     1       6.848   5.061  15.920  0.00  0.00    +0.000 A 
ATOM      6  C   UNL     1       6.857   5.258  17.373  0.00  0.00    +0.000 A 
ATOM      7  C   UNL     1       5.856   4.724  18.086  0.00  0.00    +0.000 A 
ATOM      8  C   UNL     1       4.805   3.984  17.342  0.00  0.00    +0.000 A 
ATOM      9  N   UNL     1       4.781   3.786  16.063  0.00  0.00    +0.000 NA
ATOM     10  N   UNL     1       5.833   4.335  15.392  0.00  0.00    +0.000 N 
ATOM     11  H   UNL     1       7.677   5.232  12.966  0.00  0.00    +0.000 HD
ENDROOT
BRANCH   8  12
ATOM     12  S   UNL     1       3.475   3.423  18.333  0.00  0.00    +0.000 S 
BRANCH  12  13
ATOM     13  C   UNL     1       2.858   4.940  19.036  0.00  0.00    +0.000 A 
ATOM     14  C   UNL     1       2.321   4.991  20.327  0.00  0.00    +0.000 A 
ATOM     15  C   UNL     1       1.824   6.194  20.840  0.00  0.00    +0.000 A 
ATOM     16  C   UNL     1       1.853   7.350  20.062  0.00  0.00    +0.000 A 
ATOM     17  C   UNL     1       2.365   7.296  18.767  0.00  0.00    +0.000 A 
ATOM     18 CL   UNL     1       2.384   8.715  17.796  0.00  0.00    +0.000 Cl
ATOM     19  C   UNL     1       2.860   6.098  18.250  0.00  0.00    +0.000 A 
ENDBRANCH  12  13
ENDBRANCH   8  12
TORSDOF 2
ENDMDL
