MODEL 1
REMARK VINA RESULT:      -7.9      0.000      0.000
REMARK  Name = 
REMARK  7 active torsions:
REMARK  status: ('A' for Active; 'I' for Inactive)
REMARK    1  A    between atoms: C_1  and  O_2
REMARK    2  A    between atoms: O_2  and  C_3
REMARK    3  A    between atoms: C_3  and  C_5
REMARK    4  A    between atoms: C_8  and  N_9
REMARK    5  A    between atoms: C_13  and  S_14
REMARK    6  A    between atoms: S_14  and  C_15
REMARK    7  A    between atoms: C_15  and  C_16
REMARK                            x       y       z     vdW  Elec       q    Type
REMARK                         _______ _______ _______ _____ _____    ______ ____
ROOT
ATOM      1  N   UNL     1       9.159   8.908  19.204  0.00  0.00    +0.000 N 
ATOM      2  C   UNL     1       8.359   8.190  18.383  0.00  0.00    +0.000 A 
ATOM      3  N   UNL     1       7.765   8.477  17.242  0.00  0.00    +0.000 NA
ATOM      4  N   UNL     1       6.988   7.398  16.863  0.00  0.00    +0.000 NA
ATOM      5  C   UNL     1       7.121   6.488  17.792  0.00  0.00    +0.000 A 
ATOM      6  N   UNL     1       7.997   6.916  18.739  0.00  0.00    +0.000 N 
ATOM      7  H   UNL     1       9.557   8.469  20.025  0.00  0.00    +0.000 HD
ATOM      8  H   UNL     1       8.262   6.417  19.570  0.00  0.00    +0.000 HD
ENDROOT
BRANCH   1  12
ATOM      9  C   UNL     1       9.711  13.120  19.167  0.00  0.00    +0.000 A 
ATOM     10  C   UNL     1       9.678  12.379  17.983  0.00  0.00    +0.000 A 
ATOM     11  C   UNL     1       9.460  10.997  18.019  0.00  0.00    +0.000 A 
ATOM     12  C   UNL     1       9.286  10.316  19.236  0.00  0.00    +0.000 A 
ATOM     13  C   UNL     1       9.304  11.073  20.413  0.00  0.00    +0.000 A 
ATOM     14  C   UNL     1       9.517  12.459  20.384  0.00  0.00    +0.000 A 
BRANCH   9  15
ATOM     15  C   UNL     1       9.946  14.586  19.076  0.00  0.00    +0.000 C 
ATOM     16  O   UNL     1      10.511  15.232  19.942  0.00  0.00    +0.000 OA
BRANCH  15  18
ATOM     17  C   UNL     1      10.285  16.072  17.302  0.00  0.00    +0.000 C 
ATOM     18  O   UNL     1       9.457  15.078  17.910  0.00  0.00    +0.000 OA
ENDBRANCH  15  18
ENDBRANCH   9  15
ENDBRANCH   1  12
BRANCH   5  19
ATOM     19  S   UNL     1       6.336   4.967  17.947  0.00  0.00    +0.000 S 
BRANCH  19  20
ATOM     20  C   UNL     1       4.737   5.334  17.160  0.00  0.00    +0.000 C 
BRANCH  20  21
ATOM     21  C   UNL     1       3.681   4.328  17.561  0.00  0.00    +0.000 A 
ATOM     22  C   UNL     1       3.993   2.963  17.652  0.00  0.00    +0.000 A 
ATOM     23  C   UNL     1       3.015   2.032  18.007  0.00  0.00    +0.000 A 
ATOM     24  C   UNL     1       1.713   2.453  18.273  0.00  0.00    +0.000 A 
ATOM     25  C   UNL     1       1.389   3.805  18.182  0.00  0.00    +0.000 A 
ATOM     26  C   UNL     1       2.366   4.738  17.827  0.00  0.00    +0.000 A 
ENDBRANCH  20  21
ENDBRANCH  19  20
ENDBRANCH   5  19
TORSDOF 6
ENDMDL
MODEL 2
REMARK VINA RESULT:      -7.8      0.454      1.074
REMARK  Name = 
REMARK  7 active torsions:
REMARK  status: ('A' for Active; 'I' for Inactive)
REMARK    1  A    between atoms: C_1  and  O_2
REMARK    2  A    between atoms: O_2  and  C_3
REMARK    3  A    between atoms: C_3  and  C_5
REMARK    4  A    between atoms: C_8  and  N_9
REMARK    5  A    between atoms: C_13  and  S_14
REMARK    6  A    between atoms: S_14  and  C_15
REMARK    7  A    between atoms: C_15  and  C_16
REMARK                            x       y       z     vdW  Elec       q    Type
REMARK                         _______ _______ _______ _____ _____    ______ ____
ROOT
ATOM      1  N   UNL     1       9.045   8.729  19.162  0.00  0.00    +0.000 N 
ATOM      2  C   UNL     1       8.273   7.999  18.325  0.00  0.00    +0.000 A 
ATOM      3  N   UNL     1       7.715   8.270  17.161  0.00  0.00    +0.000 NA
ATOM      4  N   UNL     1       6.952   7.185  16.771  0.00  0.00    +0.000 NA
ATOM      5  C   UNL     1       7.057   6.288  17.716  0.00  0.00    +0.000 A 
ATOM      6  N   UNL     1       7.901   6.729  18.685  0.00  0.00    +0.000 N 
ATOM      7  H   UNL     1       9.416   8.301  20.001  0.00  0.00    +0.000 HD
ATOM      8  H   UNL     1       8.140   6.241  19.530  0.00  0.00    +0.000 HD
ENDROOT
BRANCH   1  12
ATOM      9  C   UNL     1       9.268  12.966  19.373  0.00  0.00    +0.000 A 
ATOM     10  C   UNL     1       9.352  12.174  20.521  0.00  0.00    +0.000 A 
ATOM     11  C   UNL     1       9.312  10.778  20.422  0.00  0.00    +0.000 A 
ATOM     12  C   UNL     1       9.168  10.137  19.180  0.00  0.00    +0.000 A 
ATOM     13  C   UNL     1       9.102  10.943  18.036  0.00  0.00    +0.000 A 
ATOM     14  C   UNL     1       9.148  12.341  18.127  0.00  0.00    +0.000 A 
BRANCH   9  15
ATOM     15  C   UNL     1       9.316  14.444  19.531  0.00  0.00    +0.000 C 
ATOM     16  O   UNL     1       9.563  15.000  20.588  0.00  0.00    +0.000 OA
BRANCH  15  18
ATOM     17  C   UNL     1      10.095  15.943  17.914  0.00  0.00    +0.000 C 
ATOM     18  O   UNL     1       9.058  15.061  18.350  0.00  0.00    +0.000 OA
ENDBRANCH  15  18
ENDBRANCH   9  15
ENDBRANCH   1  12
BRANCH   5  19
ATOM     19  S   UNL     1       6.269   4.767  17.864  0.00  0.00    +0.000 S 
BRANCH  19  20
ATOM     20  C   UNL     1       4.628   5.172  17.191  0.00  0.00    +0.000 C 
BRANCH  20  21
ATOM     21  C   UNL     1       3.568   4.234  17.720  0.00  0.00    +0.000 A 
ATOM     22  C   UNL     1       3.760   2.845  17.684  0.00  0.00    +0.000 A 
ATOM     23  C   UNL     1       2.775   1.977  18.158  0.00  0.00    +0.000 A 
ATOM     24  C   UNL     1       1.583   2.486  18.672  0.00  0.00    +0.000 A 
ATOM     25  C   UNL     1       1.377   3.864  18.710  0.00  0.00    +0.000 A 
ATOM     26  C   UNL     1       2.362   4.733  18.236  0.00  0.00    +0.000 A 
ENDBRANCH  20  21
ENDBRANCH  19  20
ENDBRANCH   5  19
TORSDOF 6
ENDMDL
MODEL 3
REMARK VINA RESULT:      -7.7      1.045      1.639
REMARK  Name = 
REMARK  7 active torsions:
REMARK  status: ('A' for Active; 'I' for Inactive)
REMARK    1  A    between atoms: C_1  and  O_2
REMARK    2  A    between atoms: O_2  and  C_3
REMARK    3  A    between atoms: C_3  and  C_5
REMARK    4  A    between atoms: C_8  and  N_9
REMARK    5  A    between atoms: C_13  and  S_14
REMARK    6  A    between atoms: S_14  and  C_15
REMARK    7  A    between atoms: C_15  and  C_16
REMARK                            x       y       z     vdW  Elec       q    Type
REMARK                         _______ _______ _______ _____ _____    ______ ____
ROOT
ATOM      1  N   UNL     1       8.870   8.487  18.996  0.00  0.00    +0.000 N 
ATOM      2  C   UNL     1       8.025   7.759  18.229  0.00  0.00    +0.000 A 
ATOM      3  N   UNL     1       7.422   8.009  17.084  0.00  0.00    +0.000 NA
ATOM      4  N   UNL     1       6.593   6.945  16.778  0.00  0.00    +0.000 NA
ATOM      5  C   UNL     1       6.707   6.082  17.753  0.00  0.00    +0.000 A 
ATOM      6  N   UNL     1       7.618   6.523  18.660  0.00  0.00    +0.000 N 
ATOM      7  H   UNL     1       9.265   8.076  19.833  0.00  0.00    +0.000 HD
ATOM      8  H   UNL     1       7.878   6.059  19.513  0.00  0.00    +0.000 HD
ENDROOT
BRANCH   1  12
ATOM      9  C   UNL     1       9.308  12.711  19.033  0.00  0.00    +0.000 A 
ATOM     10  C   UNL     1       9.556  11.944  20.174  0.00  0.00    +0.000 A 
ATOM     11  C   UNL     1       9.438  10.550  20.127  0.00  0.00    +0.000 A 
ATOM     12  C   UNL     1       9.055   9.887  18.948  0.00  0.00    +0.000 A 
ATOM     13  C   UNL     1       8.826  10.668  17.809  0.00  0.00    +0.000 A 
ATOM     14  C   UNL     1       8.948  12.065  17.847  0.00  0.00    +0.000 A 
BRANCH   9  15
ATOM     15  C   UNL     1       9.446  14.190  19.134  0.00  0.00    +0.000 C 
ATOM     16  O   UNL     1       8.911  14.857  20.004  0.00  0.00    +0.000 OA
BRANCH  15  18
ATOM     17  C   UNL     1       9.956  16.013  17.762  0.00  0.00    +0.000 C 
ATOM     18  O   UNL     1      10.242  14.666  18.143  0.00  0.00    +0.000 OA
ENDBRANCH  15  18
ENDBRANCH   9  15
ENDBRANCH   1  12
BRANCH   5  19
ATOM     19  S   UNL     1       5.863   4.606  18.004  0.00  0.00    +0.000 S 
BRANCH  19  20
ATOM     20  C   UNL     1       4.619   5.133  19.222  0.00  0.00    +0.000 C 
BRANCH  20  21
ATOM     21  C   UNL     1       3.361   4.300  19.123  0.00  0.00    +0.000 A 
ATOM     22  C   UNL     1       2.322   4.462  20.051  0.00  0.00    +0.000 A 
ATOM     23  C   UNL     1       1.166   3.683  19.969  0.00  0.00    +0.000 A 
ATOM     24  C   UNL     1       1.035   2.731  18.960  0.00  0.00    +0.000 A 
ATOM     25  C   UNL     1       2.062   2.557  18.033  0.00  0.00    +0.000 A 
ATOM     26  C   UNL     1       3.218   3.335  18.114  0.00  0.00    +0.000 A 
ENDBRANCH  20  21
ENDBRANCH  19  20
ENDBRANCH   5  19
TORSDOF 6
ENDMDL
MODEL 4
REMARK VINA RESULT:      -7.7      6.934      9.414
REMARK  Name = 
REMARK  7 active torsions:
REMARK  status: ('A' for Active; 'I' for Inactive)
REMARK    1  A    between atoms: C_1  and  O_2
REMARK    2  A    between atoms: O_2  and  C_3
REMARK    3  A    between atoms: C_3  and  C_5
REMARK    4  A    between atoms: C_8  and  N_9
REMARK    5  A    between atoms: C_13  and  S_14
REMARK    6  A    between atoms: S_14  and  C_15
REMARK    7  A    between atoms: C_15  and  C_16
REMARK                            x       y       z     vdW  Elec       q    Type
REMARK                         _______ _______ _______ _____ _____    ______ ____
ROOT
ATOM      1  N   UNL     1       3.100   6.034  18.963  0.00  0.00    +0.000 N 
ATOM      2  C   UNL     1       2.377   7.149  19.216  0.00  0.00    +0.000 A 
ATOM      3  N   UNL     1       1.955   8.132  18.446  0.00  0.00    +0.000 NA
ATOM      4  N   UNL     1       1.322   9.074  19.235  0.00  0.00    +0.000 NA
ATOM      5  C   UNL     1       1.388   8.643  20.468  0.00  0.00    +0.000 A 
ATOM      6  N   UNL     1       1.997   7.429  20.504  0.00  0.00    +0.000 N 
ATOM      7  H   UNL     1       3.274   5.371  19.709  0.00  0.00    +0.000 HD
ATOM      8  H   UNL     1       2.192   6.888  21.328  0.00  0.00    +0.000 HD
ENDROOT
BRANCH   1  12
ATOM      9  C   UNL     1       5.651   5.162  15.681  0.00  0.00    +0.000 A 
ATOM     10  C   UNL     1       4.859   4.173  16.271  0.00  0.00    +0.000 A 
ATOM     11  C   UNL     1       4.000   4.493  17.329  0.00  0.00    +0.000 A 
ATOM     12  C   UNL     1       3.921   5.801  17.837  0.00  0.00    +0.000 A 
ATOM     13  C   UNL     1       4.707   6.784  17.225  0.00  0.00    +0.000 A 
ATOM     14  C   UNL     1       5.566   6.473  16.161  0.00  0.00    +0.000 A 
BRANCH   9  15
ATOM     15  C   UNL     1       6.548   4.772  14.560  0.00  0.00    +0.000 C 
ATOM     16  O   UNL     1       7.606   5.329  14.319  0.00  0.00    +0.000 OA
BRANCH  15  18
ATOM     17  C   UNL     1       6.492   3.624  12.523  0.00  0.00    +0.000 C 
ATOM     18  O   UNL     1       6.026   3.726  13.870  0.00  0.00    +0.000 OA
ENDBRANCH  15  18
ENDBRANCH   9  15
ENDBRANCH   1  12
BRANCH   5  19
ATOM     19  S   UNL     1       0.871   9.409  21.917  0.00  0.00    +0.000 S 
BRANCH  19  20
ATOM     20  C   UNL     1       0.635  11.115  21.330  0.00  0.00    +0.000 C 
BRANCH  20  21
ATOM     21  C   UNL     1      -0.756  11.618  21.638  0.00  0.00    +0.000 A 
ATOM     22  C   UNL     1      -1.557  12.169  20.627  0.00  0.00    +0.000 A 
ATOM     23  C   UNL     1      -2.837  12.648  20.915  0.00  0.00    +0.000 A 
ATOM     24  C   UNL     1      -3.332  12.584  22.216  0.00  0.00    +0.000 A 
ATOM     25  C   UNL     1      -2.545  12.042  23.231  0.00  0.00    +0.000 A 
ATOM     26  C   UNL     1      -1.265  11.563  22.946  0.00  0.00    +0.000 A 
ENDBRANCH  20  21
ENDBRANCH  19  20
ENDBRANCH   5  19
TORSDOF 6
ENDMDL
MODEL 5
REMARK VINA RESULT:      -7.7      1.020      1.532
REMARK  Name = 
REMARK  7 active torsions:
REMARK  status: ('A' for Active; 'I' for Inactive)
REMARK    1  A    between atoms: C_1  and  O_2
REMARK    2  A    between atoms: O_2  and  C_3
REMARK    3  A    between atoms: C_3  and  C_5
REMARK    4  A    between atoms: C_8  and  N_9
REMARK    5  A    between atoms: C_13  and  S_14
REMARK    6  A    between atoms: S_14  and  C_15
REMARK    7  A    between atoms: C_15  and  C_16
REMARK                            x       y       z     vdW  Elec       q    Type
REMARK                         _______ _______ _______ _____ _____    ______ ____
ROOT
ATOM      1  N   UNL     1       8.929   8.531  19.035  0.00  0.00    +0.000 N 
ATOM      2  C   UNL     1       8.064   7.862  18.239  0.00  0.00    +0.000 A 
ATOM      3  N   UNL     1       7.435   8.192  17.128  0.00  0.00    +0.000 NA
ATOM      4  N   UNL     1       6.595   7.155  16.769  0.00  0.00    +0.000 NA
ATOM      5  C   UNL     1       6.727   6.226  17.678  0.00  0.00    +0.000 A 
ATOM      6  N   UNL     1       7.661   6.600  18.592  0.00  0.00    +0.000 N 
ATOM      7  H   UNL     1       9.342   8.062  19.831  0.00  0.00    +0.000 HD
ATOM      8  H   UNL     1       7.938   6.076  19.404  0.00  0.00    +0.000 HD
ENDROOT
BRANCH   1  12
ATOM      9  C   UNL     1       9.641  12.719  19.007  0.00  0.00    +0.000 A 
ATOM     10  C   UNL     1       9.338  12.024  17.833  0.00  0.00    +0.000 A 
ATOM     11  C   UNL     1       9.073  10.650  17.873  0.00  0.00    +0.000 A 
ATOM     12  C   UNL     1       9.120   9.931  19.080  0.00  0.00    +0.000 A 
ATOM     13  C   UNL     1       9.409  10.643  20.250  0.00  0.00    +0.000 A 
ATOM     14  C   UNL     1       9.670  12.021  20.218  0.00  0.00    +0.000 A 
BRANCH   9  15
ATOM     15  C   UNL     1       9.916  14.178  18.911  0.00  0.00    +0.000 C 
ATOM     16  O   UNL     1       9.619  14.856  17.942  0.00  0.00    +0.000 OA
BRANCH  15  18
ATOM     17  C   UNL     1      11.852  15.107  19.835  0.00  0.00    +0.000 C 
ATOM     18  O   UNL     1      10.523  14.626  20.040  0.00  0.00    +0.000 OA
ENDBRANCH  15  18
ENDBRANCH   9  15
ENDBRANCH   1  12
BRANCH   5  19
ATOM     19  S   UNL     1       5.882   4.738  17.845  0.00  0.00    +0.000 S 
BRANCH  19  20
ATOM     20  C   UNL     1       4.727   5.157  19.187  0.00  0.00    +0.000 C 
BRANCH  20  21
ATOM     21  C   UNL     1       3.457   4.343  19.097  0.00  0.00    +0.000 A 
ATOM     22  C   UNL     1       2.435   4.506  20.044  0.00  0.00    +0.000 A 
ATOM     23  C   UNL     1       1.267   3.744  19.970  0.00  0.00    +0.000 A 
ATOM     24  C   UNL     1       1.107   2.807  18.950  0.00  0.00    +0.000 A 
ATOM     25  C   UNL     1       2.116   2.633  18.005  0.00  0.00    +0.000 A 
ATOM     26  C   UNL     1       3.285   3.394  18.077  0.00  0.00    +0.000 A 
ENDBRANCH  20  21
ENDBRANCH  19  20
ENDBRANCH   5  19
TORSDOF 6
ENDMDL
MODEL 6
REMARK VINA RESULT:      -7.7      0.667      1.061
REMARK  Name = 
REMARK  7 active torsions:
REMARK  status: ('A' for Active; 'I' for Inactive)
REMARK    1  A    between atoms: C_1  and  O_2
REMARK    2  A    between atoms: O_2  and  C_3
REMARK    3  A    between atoms: C_3  and  C_5
REMARK    4  A    between atoms: C_8  and  N_9
REMARK    5  A    between atoms: C_13  and  S_14
REMARK    6  A    between atoms: S_14  and  C_15
REMARK    7  A    between atoms: C_15  and  C_16
REMARK                            x       y       z     vdW  Elec       q    Type
REMARK                         _______ _______ _______ _____ _____    ______ ____
ROOT
ATOM      1  N   UNL     1       8.990   8.615  19.090  0.00  0.00    +0.000 N 
ATOM      2  C   UNL     1       8.176   7.944  18.243  0.00  0.00    +0.000 A 
ATOM      3  N   UNL     1       7.575   8.289  17.121  0.00  0.00    +0.000 NA
ATOM      4  N   UNL     1       6.784   7.237  16.700  0.00  0.00    +0.000 NA
ATOM      5  C   UNL     1       6.917   6.283  17.584  0.00  0.00    +0.000 A 
ATOM      6  N   UNL     1       7.805   6.658  18.542  0.00  0.00    +0.000 N 
ATOM      7  H   UNL     1       9.391   8.134  19.886  0.00  0.00    +0.000 HD
ATOM      8  H   UNL     1       8.072   6.118  19.347  0.00  0.00    +0.000 HD
ENDROOT
BRANCH   1  12
ATOM      9  C   UNL     1       9.558  12.823  19.219  0.00  0.00    +0.000 A 
ATOM     10  C   UNL     1       9.319  12.157  18.014  0.00  0.00    +0.000 A 
ATOM     11  C   UNL     1       9.099  10.774  18.002  0.00  0.00    +0.000 A 
ATOM     12  C   UNL     1       9.131  10.019  19.186  0.00  0.00    +0.000 A 
ATOM     13  C   UNL     1       9.356  10.701  20.388  0.00  0.00    +0.000 A 
ATOM     14  C   UNL     1       9.570  12.087  20.408  0.00  0.00    +0.000 A 
BRANCH   9  15
ATOM     15  C   UNL     1       9.786  14.293  19.179  0.00  0.00    +0.000 C 
ATOM     16  O   UNL     1       9.266  15.032  18.360  0.00  0.00    +0.000 OA
BRANCH  15  18
ATOM     17  C   UNL     1      10.178  15.804  20.919  0.00  0.00    +0.000 C 
ATOM     18  O   UNL     1      10.630  14.674  20.171  0.00  0.00    +0.000 OA
ENDBRANCH  15  18
ENDBRANCH   9  15
ENDBRANCH   1  12
BRANCH   5  19
ATOM     19  S   UNL     1       6.118   4.764  17.674  0.00  0.00    +0.000 S 
BRANCH  19  20
ATOM     20  C   UNL     1       4.396   5.272  17.383  0.00  0.00    +0.000 C 
BRANCH  20  21
ATOM     21  C   UNL     1       3.423   4.198  17.814  0.00  0.00    +0.000 A 
ATOM     22  C   UNL     1       3.868   2.894  18.076  0.00  0.00    +0.000 A 
ATOM     23  C   UNL     1       2.968   1.898  18.459  0.00  0.00    +0.000 A 
ATOM     24  C   UNL     1       1.611   2.191  18.582  0.00  0.00    +0.000 A 
ATOM     25  C   UNL     1       1.154   3.482  18.321  0.00  0.00    +0.000 A 
ATOM     26  C   UNL     1       2.053   4.480  17.938  0.00  0.00    +0.000 A 
ENDBRANCH  20  21
ENDBRANCH  19  20
ENDBRANCH   5  19
TORSDOF 6
ENDMDL
MODEL 7
REMARK VINA RESULT:      -7.7      1.097      1.451
REMARK  Name = 
REMARK  7 active torsions:
REMARK  status: ('A' for Active; 'I' for Inactive)
REMARK    1  A    between atoms: C_1  and  O_2
REMARK    2  A    between atoms: O_2  and  C_3
REMARK    3  A    between atoms: C_3  and  C_5
REMARK    4  A    between atoms: C_8  and  N_9
REMARK    5  A    between atoms: C_13  and  S_14
REMARK    6  A    between atoms: S_14  and  C_15
REMARK    7  A    between atoms: C_15  and  C_16
REMARK                            x       y       z     vdW  Elec       q    Type
REMARK                         _______ _______ _______ _____ _____    ______ ____
ROOT
ATOM      1  N   UNL     1       8.939   8.509  19.043  0.00  0.00    +0.000 N 
ATOM      2  C   UNL     1       8.043   7.863  18.262  0.00  0.00    +0.000 A 
ATOM      3  N   UNL     1       7.377   8.224  17.183  0.00  0.00    +0.000 NA
ATOM      4  N   UNL     1       6.519   7.200  16.827  0.00  0.00    +0.000 NA
ATOM      5  C   UNL     1       6.678   6.248  17.708  0.00  0.00    +0.000 A 
ATOM      6  N   UNL     1       7.646   6.594  18.597  0.00  0.00    +0.000 N 
ATOM      7  H   UNL     1       9.377   8.018  19.812  0.00  0.00    +0.000 HD
ATOM      8  H   UNL     1       7.949   6.049  19.386  0.00  0.00    +0.000 HD
ENDROOT
BRANCH   1  12
ATOM      9  C   UNL     1       9.700  12.687  19.121  0.00  0.00    +0.000 A 
ATOM     10  C   UNL     1       9.555  11.995  17.916  0.00  0.00    +0.000 A 
ATOM     11  C   UNL     1       9.269  10.625  17.916  0.00  0.00    +0.000 A 
ATOM     12  C   UNL     1       9.139   9.906  19.117  0.00  0.00    +0.000 A 
ATOM     13  C   UNL     1       9.270  10.615  20.317  0.00  0.00    +0.000 A 
ATOM     14  C   UNL     1       9.550  11.989  20.324  0.00  0.00    +0.000 A 
BRANCH   9  15
ATOM     15  C   UNL     1      10.003  14.143  19.067  0.00  0.00    +0.000 C 
ATOM     16  O   UNL     1      11.020  14.600  18.573  0.00  0.00    +0.000 OA
BRANCH  15  18
ATOM     17  C   UNL     1       9.170  16.277  19.531  0.00  0.00    +0.000 C 
ATOM     18  O   UNL     1       8.999  14.862  19.629  0.00  0.00    +0.000 OA
ENDBRANCH  15  18
ENDBRANCH   9  15
ENDBRANCH   1  12
BRANCH   5  19
ATOM     19  S   UNL     1       5.832   4.760  17.868  0.00  0.00    +0.000 S 
BRANCH  19  20
ATOM     20  C   UNL     1       4.178   5.252  17.293  0.00  0.00    +0.000 C 
BRANCH  20  21
ATOM     21  C   UNL     1       3.104   4.827  18.269  0.00  0.00    +0.000 A 
ATOM     22  C   UNL     1       3.020   5.417  19.539  0.00  0.00    +0.000 A 
ATOM     23  C   UNL     1       2.038   5.015  20.447  0.00  0.00    +0.000 A 
ATOM     24  C   UNL     1       1.130   4.017  20.098  0.00  0.00    +0.000 A 
ATOM     25  C   UNL     1       1.205   3.420  18.840  0.00  0.00    +0.000 A 
ATOM     26  C   UNL     1       2.186   3.821  17.931  0.00  0.00    +0.000 A 
ENDBRANCH  20  21
ENDBRANCH  19  20
ENDBRANCH   5  19
TORSDOF 6
ENDMDL
MODEL 8
REMARK VINA RESULT:      -7.6      1.227      1.790
REMARK  Name = 
REMARK  7 active torsions:
REMARK  status: ('A' for Active; 'I' for Inactive)
REMARK    1  A    between atoms: C_1  and  O_2
REMARK    2  A    between atoms: O_2  and  C_3
REMARK    3  A    between atoms: C_3  and  C_5
REMARK    4  A    between atoms: C_8  and  N_9
REMARK    5  A    between atoms: C_13  and  S_14
REMARK    6  A    between atoms: S_14  and  C_15
REMARK    7  A    between atoms: C_15  and  C_16
REMARK                            x       y       z     vdW  Elec       q    Type
REMARK                         _______ _______ _______ _____ _____    ______ ____
ROOT
ATOM      1  N   UNL     1       9.305   9.326  19.203  0.00  0.00    +0.000 N 
ATOM      2  C   UNL     1       8.521   8.507  18.465  0.00  0.00    +0.000 A 
ATOM      3  N   UNL     1       7.768   8.713  17.403  0.00  0.00    +0.000 NA
ATOM      4  N   UNL     1       7.104   7.539  17.096  0.00  0.00    +0.000 NA
ATOM      5  C   UNL     1       7.464   6.655  17.988  0.00  0.00    +0.000 A 
ATOM      6  N   UNL     1       8.376   7.196  18.838  0.00  0.00    +0.000 N 
ATOM      7  H   UNL     1       9.850   8.943  19.966  0.00  0.00    +0.000 HD
ATOM      8  H   UNL     1       8.799   6.735  19.625  0.00  0.00    +0.000 HD
ENDROOT
BRANCH   1  12
ATOM      9  C   UNL     1       8.969  13.551  19.478  0.00  0.00    +0.000 A 
ATOM     10  C   UNL     1       9.111  12.756  20.618  0.00  0.00    +0.000 A 
ATOM     11  C   UNL     1       9.255  11.369  20.499  0.00  0.00    +0.000 A 
ATOM     12  C   UNL     1       9.245  10.738  19.244  0.00  0.00    +0.000 A 
ATOM     13  C   UNL     1       9.119  11.548  18.109  0.00  0.00    +0.000 A 
ATOM     14  C   UNL     1       8.979  12.940  18.221  0.00  0.00    +0.000 A 
BRANCH   9  15
ATOM     15  C   UNL     1       8.819  15.021  19.657  0.00  0.00    +0.000 C 
ATOM     16  O   UNL     1       9.584  15.839  19.175  0.00  0.00    +0.000 OA
BRANCH  15  18
ATOM     17  C   UNL     1       6.507  15.369  19.669  0.00  0.00    +0.000 C 
ATOM     18  O   UNL     1       7.726  15.302  20.411  0.00  0.00    +0.000 OA
ENDBRANCH  15  18
ENDBRANCH   9  15
ENDBRANCH   1  12
BRANCH   5  19
ATOM     19  S   UNL     1       6.913   5.041  18.204  0.00  0.00    +0.000 S 
BRANCH  19  20
ATOM     20  C   UNL     1       5.814   4.866  16.765  0.00  0.00    +0.000 C 
BRANCH  20  21
ATOM     21  C   UNL     1       4.370   4.714  17.187  0.00  0.00    +0.000 A 
ATOM     22  C   UNL     1       3.703   3.490  17.024  0.00  0.00    +0.000 A 
ATOM     23  C   UNL     1       2.366   3.353  17.401  0.00  0.00    +0.000 A 
ATOM     24  C   UNL     1       1.677   4.437  17.942  0.00  0.00    +0.000 A 
ATOM     25  C   UNL     1       2.326   5.660  18.106  0.00  0.00    +0.000 A 
ATOM     26  C   UNL     1       3.664   5.799  17.730  0.00  0.00    +0.000 A 
ENDBRANCH  20  21
ENDBRANCH  19  20
ENDBRANCH   5  19
TORSDOF 6
ENDMDL
MODEL 9
REMARK VINA RESULT:      -7.5      8.028     10.696
REMARK  Name = 
REMARK  7 active torsions:
REMARK  status: ('A' for Active; 'I' for Inactive)
REMARK    1  A    between atoms: C_1  and  O_2
REMARK    2  A    between atoms: O_2  and  C_3
REMARK    3  A    between atoms: C_3  and  C_5
REMARK    4  A    between atoms: C_8  and  N_9
REMARK    5  A    between atoms: C_13  and  S_14
REMARK    6  A    between atoms: S_14  and  C_15
REMARK    7  A    between atoms: C_15  and  C_16
REMARK                            x       y       z     vdW  Elec       q    Type
REMARK                         _______ _______ _______ _____ _____    ______ ____
ROOT
ATOM      1  N   UNL     1       2.115   7.765  20.501  0.00  0.00    +0.000 N 
ATOM      2  C   UNL     1       1.139   8.529  21.043  0.00  0.00    +0.000 A 
ATOM      3  N   UNL     1      -0.024   8.234  21.591  0.00  0.00    +0.000 NA
ATOM      4  N   UNL     1      -0.674   9.411  21.911  0.00  0.00    +0.000 NA
ATOM      5  C   UNL     1       0.106  10.391  21.537  0.00  0.00    +0.000 A 
ATOM      6  N   UNL     1       1.265   9.894  21.030  0.00  0.00    +0.000 N 
ATOM      7  H   UNL     1       2.969   8.201  20.175  0.00  0.00    +0.000 HD
ATOM      8  H   UNL     1       2.027  10.432  20.655  0.00  0.00    +0.000 HD
ENDROOT
BRANCH   1  12
ATOM      9  C   UNL     1       1.604   3.839  18.961  0.00  0.00    +0.000 A 
ATOM     10  C   UNL     1       2.007   4.897  18.141  0.00  0.00    +0.000 A 
ATOM     11  C   UNL     1       2.202   6.174  18.679  0.00  0.00    +0.000 A 
ATOM     12  C   UNL     1       1.985   6.434  20.043  0.00  0.00    +0.000 A 
ATOM     13  C   UNL     1       1.599   5.361  20.856  0.00  0.00    +0.000 A 
ATOM     14  C   UNL     1       1.406   4.078  20.324  0.00  0.00    +0.000 A 
BRANCH   9  15
ATOM     15  C   UNL     1       1.410   2.501  18.341  0.00  0.00    +0.000 C 
ATOM     16  O   UNL     1       0.370   1.868  18.419  0.00  0.00    +0.000 OA
BRANCH  15  18
ATOM     17  C   UNL     1       3.531   1.538  18.534  0.00  0.00    +0.000 C 
ATOM     18  O   UNL     1       2.532   2.108  17.687  0.00  0.00    +0.000 OA
ENDBRANCH  15  18
ENDBRANCH   9  15
ENDBRANCH   1  12
BRANCH   5  19
ATOM     19  S   UNL     1      -0.180  12.085  21.576  0.00  0.00    +0.000 S 
BRANCH  19  20
ATOM     20  C   UNL     1      -0.091  12.481  19.803  0.00  0.00    +0.000 C 
BRANCH  20  21
ATOM     21  C   UNL     1      -1.161  11.753  19.021  0.00  0.00    +0.000 A 
ATOM     22  C   UNL     1      -2.511  12.114  19.149  0.00  0.00    +0.000 A 
ATOM     23  C   UNL     1      -3.500  11.432  18.438  0.00  0.00    +0.000 A 
ATOM     24  C   UNL     1      -3.154  10.380  17.592  0.00  0.00    +0.000 A 
ATOM     25  C   UNL     1      -1.818  10.010  17.457  0.00  0.00    +0.000 A 
ATOM     26  C   UNL     1      -0.826  10.690  18.167  0.00  0.00    +0.000 A 
ENDBRANCH  20  21
ENDBRANCH  19  20
ENDBRANCH   5  19
TORSDOF 6
ENDMDL
