MODEL 1
REMARK VINA RESULT:      -7.4      0.000      0.000
REMARK  Name = 
REMARK  2 active torsions:
REMARK  status: ('A' for Active; 'I' for Inactive)
REMARK    1  A    between atoms: C_1  and  N_2
REMARK    2  A    between atoms: N_8  and  C_9
REMARK                            x       y       z     vdW  Elec       q    Type
REMARK                         _______ _______ _______ _____ _____    ______ ____
ROOT
ATOM      1  C   UNL     1       0.767   7.770  21.134  0.00  0.00    +0.000 C 
ATOM      2  N   UNL     1       1.652   7.737  19.998  0.00  0.00    +0.000 N 
ATOM      3  C   UNL     1       1.832   8.811  19.163  0.00  0.00    +0.000 A 
ATOM      4  N   UNL     1       2.680   8.543  18.201  0.00  0.00    +0.000 NA
ATOM      5  C   UNL     1       3.065   7.239  18.421  0.00  0.00    +0.000 A 
ATOM      6  C   UNL     1       3.999   6.474  17.607  0.00  0.00    +0.000 A 
ATOM      7  O   UNL     1       4.552   6.984  16.635  0.00  0.00    +0.000 OA
ATOM      8  N   UNL     1       4.218   5.123  18.011  0.00  0.00    +0.000 N 
ATOM      9  C   UNL     1       3.563   4.553  19.184  0.00  0.00    +0.000 A 
ATOM     10  C   UNL     1       3.782   3.222  19.584  0.00  0.00    +0.000 A 
ATOM     11  C   UNL     1       3.159   2.680  20.714  0.00  0.00    +0.000 A 
ATOM     12  C   UNL     1       2.301   3.458  21.470  0.00  0.00    +0.000 A 
ATOM     13  C   UNL     1       2.056   4.779  21.102  0.00  0.00    +0.000 A 
ATOM     14  C   UNL     1       2.670   5.340  19.971  0.00  0.00    +0.000 A 
ATOM     15  C   UNL     1       2.439   6.711  19.534  0.00  0.00    +0.000 A 
ENDROOT
BRANCH   8  16
ATOM     16  C   UNL     1       5.150   4.328  17.196  0.00  0.00    +0.000 C 
ATOM     17  C   UNL     1       4.802   4.271  15.707  0.00  0.00    +0.000 C 
ATOM     18  C   UNL     1       6.112   3.918  15.019  0.00  0.00    +0.000 C 
ATOM     19  C   UNL     1       7.238   4.377  15.940  0.00  0.00    +0.000 C 
ATOM     20  C   UNL     1       6.609   4.790  17.266  0.00  0.00    +0.000 C 
ENDBRANCH   8  16
TORSDOF 1
ENDMDL
MODEL 2
REMARK VINA RESULT:      -6.9      2.579      5.278
REMARK  Name = 
REMARK  2 active torsions:
REMARK  status: ('A' for Active; 'I' for Inactive)
REMARK    1  A    between atoms: C_1  and  N_2
REMARK    2  A    between atoms: N_8  and  C_9
REMARK                            x       y       z     vdW  Elec       q    Type
REMARK                         _______ _______ _______ _____ _____    ______ ____
ROOT
ATOM      1  C   UNL     1       7.318   7.882  17.328  0.00  0.00    +0.000 C 
ATOM      2  N   UNL     1       7.002   6.583  17.865  0.00  0.00    +0.000 N 
ATOM      3  C   UNL     1       7.960   5.645  18.157  0.00  0.00    +0.000 A 
ATOM      4  N   UNL     1       7.433   4.542  18.630  0.00  0.00    +0.000 NA
ATOM      5  C   UNL     1       6.077   4.775  18.644  0.00  0.00    +0.000 A 
ATOM      6  C   UNL     1       5.051   3.838  19.082  0.00  0.00    +0.000 A 
ATOM      7  O   UNL     1       5.357   2.728  19.515  0.00  0.00    +0.000 OA
ATOM      8  N   UNL     1       3.703   4.290  18.972  0.00  0.00    +0.000 N 
ATOM      9  C   UNL     1       3.374   5.622  18.474  0.00  0.00    +0.000 A 
ATOM     10  C   UNL     1       2.044   6.069  18.370  0.00  0.00    +0.000 A 
ATOM     11  C   UNL     1       1.732   7.350  17.899  0.00  0.00    +0.000 A 
ATOM     12  C   UNL     1       2.745   8.213  17.522  0.00  0.00    +0.000 A 
ATOM     13  C   UNL     1       4.074   7.804  17.607  0.00  0.00    +0.000 A 
ATOM     14  C   UNL     1       4.406   6.523  18.074  0.00  0.00    +0.000 A 
ATOM     15  C   UNL     1       5.778   6.039  18.171  0.00  0.00    +0.000 A 
ENDROOT
BRANCH   8  16
ATOM     16  C   UNL     1       2.650   3.354  19.398  0.00  0.00    +0.000 C 
ATOM     17  C   UNL     1       1.678   3.920  20.435  0.00  0.00    +0.000 C 
ATOM     18  C   UNL     1       0.430   3.059  20.302  0.00  0.00    +0.000 C 
ATOM     19  C   UNL     1       0.430   2.488  18.887  0.00  0.00    +0.000 C 
ATOM     20  C   UNL     1       1.779   2.817  18.258  0.00  0.00    +0.000 C 
ENDBRANCH   8  16
TORSDOF 1
ENDMDL
MODEL 3
REMARK VINA RESULT:      -6.8      2.059      5.603
REMARK  Name = 
REMARK  2 active torsions:
REMARK  status: ('A' for Active; 'I' for Inactive)
REMARK    1  A    between atoms: C_1  and  N_2
REMARK    2  A    between atoms: N_8  and  C_9
REMARK                            x       y       z     vdW  Elec       q    Type
REMARK                         _______ _______ _______ _____ _____    ______ ____
ROOT
ATOM      1  C   UNL     1       3.660   1.380  18.520  0.00  0.00    +0.000 C 
ATOM      2  N   UNL     1       2.973   2.458  19.183  0.00  0.00    +0.000 N 
ATOM      3  C   UNL     1       2.099   2.256  20.222  0.00  0.00    +0.000 A 
ATOM      4  N   UNL     1       1.594   3.384  20.660  0.00  0.00    +0.000 NA
ATOM      5  C   UNL     1       2.165   4.357  19.872  0.00  0.00    +0.000 A 
ATOM      6  C   UNL     1       1.916   5.789  19.964  0.00  0.00    +0.000 A 
ATOM      7  O   UNL     1       1.156   6.242  20.819  0.00  0.00    +0.000 OA
ATOM      8  N   UNL     1       2.598   6.605  19.014  0.00  0.00    +0.000 N 
ATOM      9  C   UNL     1       3.511   6.040  18.025  0.00  0.00    +0.000 A 
ATOM     10  C   UNL     1       4.187   6.845  17.091  0.00  0.00    +0.000 A 
ATOM     11  C   UNL     1       5.067   6.301  16.149  0.00  0.00    +0.000 A 
ATOM     12  C   UNL     1       5.292   4.936  16.121  0.00  0.00    +0.000 A 
ATOM     13  C   UNL     1       4.637   4.106  17.028  0.00  0.00    +0.000 A 
ATOM     14  C   UNL     1       3.749   4.633  17.978  0.00  0.00    +0.000 A 
ATOM     15  C   UNL     1       3.028   3.810  18.941  0.00  0.00    +0.000 A 
ENDROOT
BRANCH   8  16
ATOM     16  C   UNL     1       2.350   8.054  19.082  0.00  0.00    +0.000 C 
ATOM     17  C   UNL     1       1.575   8.623  17.891  0.00  0.00    +0.000 C 
ATOM     18  C   UNL     1       0.969   9.918  18.410  0.00  0.00    +0.000 C 
ATOM     19  C   UNL     1       0.850   9.781  19.925  0.00  0.00    +0.000 C 
ATOM     20  C   UNL     1       1.589   8.510  20.331  0.00  0.00    +0.000 C 
ENDBRANCH   8  16
TORSDOF 1
ENDMDL
MODEL 4
REMARK VINA RESULT:      -6.7      1.369      1.721
REMARK  Name = 
REMARK  2 active torsions:
REMARK  status: ('A' for Active; 'I' for Inactive)
REMARK    1  A    between atoms: C_1  and  N_2
REMARK    2  A    between atoms: N_8  and  C_9
REMARK                            x       y       z     vdW  Elec       q    Type
REMARK                         _______ _______ _______ _____ _____    ______ ____
ROOT
ATOM      1  C   UNL     1       1.355   6.317  20.477  0.00  0.00    +0.000 C 
ATOM      2  N   UNL     1       2.250   6.609  19.387  0.00  0.00    +0.000 N 
ATOM      3  C   UNL     1       2.486   7.885  18.940  0.00  0.00    +0.000 A 
ATOM      4  N   UNL     1       3.331   7.902  17.938  0.00  0.00    +0.000 NA
ATOM      5  C   UNL     1       3.655   6.581  17.727  0.00  0.00    +0.000 A 
ATOM      6  C   UNL     1       4.563   6.075  16.706  0.00  0.00    +0.000 A 
ATOM      7  O   UNL     1       5.148   6.845  15.947  0.00  0.00    +0.000 OA
ATOM      8  N   UNL     1       4.718   4.658  16.654  0.00  0.00    +0.000 N 
ATOM      9  C   UNL     1       4.026   3.772  17.585  0.00  0.00    +0.000 A 
ATOM     10  C   UNL     1       4.182   2.374  17.535  0.00  0.00    +0.000 A 
ATOM     11  C   UNL     1       3.524   1.527  18.434  0.00  0.00    +0.000 A 
ATOM     12  C   UNL     1       2.693   2.060  19.404  0.00  0.00    +0.000 A 
ATOM     13  C   UNL     1       2.511   3.439  19.481  0.00  0.00    +0.000 A 
ATOM     14  C   UNL     1       3.161   4.304  18.586  0.00  0.00    +0.000 A 
ATOM     15  C   UNL     1       2.995   5.752  18.614  0.00  0.00    +0.000 A 
ENDROOT
BRANCH   8  16
ATOM     16  C   UNL     1       5.622   4.125  15.623  0.00  0.00    +0.000 C 
ATOM     17  C   UNL     1       5.033   4.106  14.210  0.00  0.00    +0.000 C 
ATOM     18  C   UNL     1       6.244   4.072  13.290  0.00  0.00    +0.000 C 
ATOM     19  C   UNL     1       7.411   4.680  14.062  0.00  0.00    +0.000 C 
ATOM     20  C   UNL     1       6.960   4.864  15.507  0.00  0.00    +0.000 C 
ENDBRANCH   8  16
TORSDOF 1
ENDMDL
MODEL 5
REMARK VINA RESULT:      -6.6      2.043      3.929
REMARK  Name = 
REMARK  2 active torsions:
REMARK  status: ('A' for Active; 'I' for Inactive)
REMARK    1  A    between atoms: C_1  and  N_2
REMARK    2  A    between atoms: N_8  and  C_9
REMARK                            x       y       z     vdW  Elec       q    Type
REMARK                         _______ _______ _______ _____ _____    ______ ____
ROOT
ATOM      1  C   UNL     1       1.432   3.825  21.039  0.00  0.00    +0.000 C 
ATOM      2  N   UNL     1       2.334   3.379  20.008  0.00  0.00    +0.000 N 
ATOM      3  C   UNL     1       2.728   2.071  19.880  0.00  0.00    +0.000 A 
ATOM      4  N   UNL     1       3.553   1.907  18.874  0.00  0.00    +0.000 NA
ATOM      5  C   UNL     1       3.698   3.163  18.328  0.00  0.00    +0.000 A 
ATOM      6  C   UNL     1       4.529   3.507  17.182  0.00  0.00    +0.000 A 
ATOM      7  O   UNL     1       5.164   2.642  16.583  0.00  0.00    +0.000 OA
ATOM      8  N   UNL     1       4.550   4.886  16.817  0.00  0.00    +0.000 N 
ATOM      9  C   UNL     1       3.767   5.887  17.536  0.00  0.00    +0.000 A 
ATOM     10  C   UNL     1       3.785   7.246  17.173  0.00  0.00    +0.000 A 
ATOM     11  C   UNL     1       3.027   8.202  17.859  0.00  0.00    +0.000 A 
ATOM     12  C   UNL     1       2.232   7.819  18.924  0.00  0.00    +0.000 A 
ATOM     13  C   UNL     1       2.191   6.482  19.315  0.00  0.00    +0.000 A 
ATOM     14  C   UNL     1       2.947   5.509  18.641  0.00  0.00    +0.000 A 
ATOM     15  C   UNL     1       2.952   4.101  19.016  0.00  0.00    +0.000 A 
ENDROOT
BRANCH   8  16
ATOM     16  C   UNL     1       5.392   5.258  15.669  0.00  0.00    +0.000 C 
ATOM     17  C   UNL     1       6.896   5.240  15.952  0.00  0.00    +0.000 C 
ATOM     18  C   UNL     1       7.543   5.093  14.583  0.00  0.00    +0.000 C 
ATOM     19  C   UNL     1       6.516   4.427  13.672  0.00  0.00    +0.000 C 
ATOM     20  C   UNL     1       5.191   4.386  14.426  0.00  0.00    +0.000 C 
ENDBRANCH   8  16
TORSDOF 1
ENDMDL
MODEL 6
REMARK VINA RESULT:      -6.4      2.322      3.825
REMARK  Name = 
REMARK  2 active torsions:
REMARK  status: ('A' for Active; 'I' for Inactive)
REMARK    1  A    between atoms: C_1  and  N_2
REMARK    2  A    between atoms: N_8  and  C_9
REMARK                            x       y       z     vdW  Elec       q    Type
REMARK                         _______ _______ _______ _____ _____    ______ ____
ROOT
ATOM      1  C   UNL     1       0.606   4.770  20.588  0.00  0.00    +0.000 C 
ATOM      2  N   UNL     1       1.466   3.872  19.860  0.00  0.00    +0.000 N 
ATOM      3  C   UNL     1       1.436   2.511  20.031  0.00  0.00    +0.000 A 
ATOM      4  N   UNL     1       2.309   1.904  19.265  0.00  0.00    +0.000 NA
ATOM      5  C   UNL     1       2.932   2.916  18.569  0.00  0.00    +0.000 A 
ATOM      6  C   UNL     1       3.995   2.751  17.587  0.00  0.00    +0.000 A 
ATOM      7  O   UNL     1       4.405   1.631  17.286  0.00  0.00    +0.000 OA
ATOM      8  N   UNL     1       4.513   3.952  17.018  0.00  0.00    +0.000 N 
ATOM      9  C   UNL     1       3.990   5.265  17.382  0.00  0.00    +0.000 A 
ATOM     10  C   UNL     1       4.498   6.450  16.818  0.00  0.00    +0.000 A 
ATOM     11  C   UNL     1       3.989   7.707  17.162  0.00  0.00    +0.000 A 
ATOM     12  C   UNL     1       2.959   7.808  18.079  0.00  0.00    +0.000 A 
ATOM     13  C   UNL     1       2.433   6.657  18.662  0.00  0.00    +0.000 A 
ATOM     14  C   UNL     1       2.932   5.388  18.331  0.00  0.00    +0.000 A 
ATOM     15  C   UNL     1       2.428   4.154  18.920  0.00  0.00    +0.000 A 
ENDROOT
BRANCH   8  16
ATOM     16  C   UNL     1       5.597   3.808  16.033  0.00  0.00    +0.000 C 
ATOM     17  C   UNL     1       5.225   4.237  14.612  0.00  0.00    +0.000 C 
ATOM     18  C   UNL     1       6.557   4.536  13.940  0.00  0.00    +0.000 C 
ATOM     19  C   UNL     1       7.546   4.889  15.046  0.00  0.00    +0.000 C 
ATOM     20  C   UNL     1       6.875   4.579  16.380  0.00  0.00    +0.000 C 
ENDBRANCH   8  16
TORSDOF 1
ENDMDL
MODEL 7
REMARK VINA RESULT:      -6.4      2.374      5.361
REMARK  Name = 
REMARK  2 active torsions:
REMARK  status: ('A' for Active; 'I' for Inactive)
REMARK    1  A    between atoms: C_1  and  N_2
REMARK    2  A    between atoms: N_8  and  C_9
REMARK                            x       y       z     vdW  Elec       q    Type
REMARK                         _______ _______ _______ _____ _____    ______ ____
ROOT
ATOM      1  C   UNL     1       7.380   7.610  17.059  0.00  0.00    +0.000 C 
ATOM      2  N   UNL     1       6.898   6.417  17.705  0.00  0.00    +0.000 N 
ATOM      3  C   UNL     1       7.713   5.358  18.017  0.00  0.00    +0.000 A 
ATOM      4  N   UNL     1       7.050   4.387  18.595  0.00  0.00    +0.000 NA
ATOM      5  C   UNL     1       5.750   4.836  18.661  0.00  0.00    +0.000 A 
ATOM      6  C   UNL     1       4.620   4.105  19.218  0.00  0.00    +0.000 A 
ATOM      7  O   UNL     1       4.774   2.992  19.716  0.00  0.00    +0.000 OA
ATOM      8  N   UNL     1       3.355   4.761  19.144  0.00  0.00    +0.000 N 
ATOM      9  C   UNL     1       3.209   6.093  18.566  0.00  0.00    +0.000 A 
ATOM     10  C   UNL     1       1.961   6.740  18.496  0.00  0.00    +0.000 A 
ATOM     11  C   UNL     1       1.826   8.021  17.949  0.00  0.00    +0.000 A 
ATOM     12  C   UNL     1       2.936   8.684  17.458  0.00  0.00    +0.000 A 
ATOM     13  C   UNL     1       4.187   8.073  17.506  0.00  0.00    +0.000 A 
ATOM     14  C   UNL     1       4.343   6.788  18.049  0.00  0.00    +0.000 A 
ATOM     15  C   UNL     1       5.624   6.098  18.112  0.00  0.00    +0.000 A 
ENDROOT
BRANCH   8  16
ATOM     16  C   UNL     1       2.197   4.035  19.691  0.00  0.00    +0.000 C 
ATOM     17  C   UNL     1       1.983   2.641  19.097  0.00  0.00    +0.000 C 
ATOM     18  C   UNL     1       1.156   1.903  20.139  0.00  0.00    +0.000 C 
ATOM     19  C   UNL     1       1.428   2.572  21.483  0.00  0.00    +0.000 C 
ATOM     20  C   UNL     1       2.229   3.841  21.210  0.00  0.00    +0.000 C 
ENDBRANCH   8  16
TORSDOF 1
ENDMDL
MODEL 8
REMARK VINA RESULT:      -6.0      2.257      5.409
REMARK  Name = 
REMARK  2 active torsions:
REMARK  status: ('A' for Active; 'I' for Inactive)
REMARK    1  A    between atoms: C_1  and  N_2
REMARK    2  A    between atoms: N_8  and  C_9
REMARK                            x       y       z     vdW  Elec       q    Type
REMARK                         _______ _______ _______ _____ _____    ______ ____
ROOT
ATOM      1  C   UNL     1       5.525   6.888  15.045  0.00  0.00    +0.000 C 
ATOM      2  N   UNL     1       5.303   5.567  15.574  0.00  0.00    +0.000 N 
ATOM      3  C   UNL     1       5.856   4.440  15.019  0.00  0.00    +0.000 A 
ATOM      4  N   UNL     1       5.510   3.356  15.670  0.00  0.00    +0.000 NA
ATOM      5  C   UNL     1       4.698   3.800  16.690  0.00  0.00    +0.000 A 
ATOM      6  C   UNL     1       4.050   2.966  17.693  0.00  0.00    +0.000 A 
ATOM      7  O   UNL     1       4.222   1.748  17.704  0.00  0.00    +0.000 OA
ATOM      8  N   UNL     1       3.224   3.648  18.634  0.00  0.00    +0.000 N 
ATOM      9  C   UNL     1       3.058   5.098  18.607  0.00  0.00    +0.000 A 
ATOM     10  C   UNL     1       2.246   5.771  19.538  0.00  0.00    +0.000 A 
ATOM     11  C   UNL     1       2.096   7.163  19.514  0.00  0.00    +0.000 A 
ATOM     12  C   UNL     1       2.755   7.913  18.558  0.00  0.00    +0.000 A 
ATOM     13  C   UNL     1       3.565   7.281  17.616  0.00  0.00    +0.000 A 
ATOM     14  C   UNL     1       3.726   5.887  17.623  0.00  0.00    +0.000 A 
ATOM     15  C   UNL     1       4.550   5.174  16.655  0.00  0.00    +0.000 A 
ENDROOT
BRANCH   8  16
ATOM     16  C   UNL     1       2.550   2.823  19.649  0.00  0.00    +0.000 C 
ATOM     17  C   UNL     1       3.241   2.803  21.014  0.00  0.00    +0.000 C 
ATOM     18  C   UNL     1       2.148   2.401  21.992  0.00  0.00    +0.000 C 
ATOM     19  C   UNL     1       0.816   2.795  21.362  0.00  0.00    +0.000 C 
ATOM     20  C   UNL     1       1.095   3.218  19.923  0.00  0.00    +0.000 C 
ENDBRANCH   8  16
TORSDOF 1
ENDMDL
MODEL 9
REMARK VINA RESULT:      -6.0      1.828      5.180
REMARK  Name = 
REMARK  2 active torsions:
REMARK  status: ('A' for Active; 'I' for Inactive)
REMARK    1  A    between atoms: C_1  and  N_2
REMARK    2  A    between atoms: N_8  and  C_9
REMARK                            x       y       z     vdW  Elec       q    Type
REMARK                         _______ _______ _______ _____ _____    ______ ____
ROOT
ATOM      1  C   UNL     1       6.083   3.385  15.624  0.00  0.00    +0.000 C 
ATOM      2  N   UNL     1       5.653   4.693  16.047  0.00  0.00    +0.000 N 
ATOM      3  C   UNL     1       6.348   5.838  15.748  0.00  0.00    +0.000 A 
ATOM      4  N   UNL     1       5.767   6.904  16.242  0.00  0.00    +0.000 NA
ATOM      5  C   UNL     1       4.648   6.429  16.890  0.00  0.00    +0.000 A 
ATOM      6  C   UNL     1       3.670   7.232  17.611  0.00  0.00    +0.000 A 
ATOM      7  O   UNL     1       3.779   8.456  17.665  0.00  0.00    +0.000 OA
ATOM      8  N   UNL     1       2.608   6.513  18.234  0.00  0.00    +0.000 N 
ATOM      9  C   UNL     1       2.496   5.061  18.134  0.00  0.00    +0.000 A 
ATOM     10  C   UNL     1       1.445   4.353  18.746  0.00  0.00    +0.000 A 
ATOM     11  C   UNL     1       1.336   2.961  18.640  0.00  0.00    +0.000 A 
ATOM     12  C   UNL     1       2.275   2.247  17.919  0.00  0.00    +0.000 A 
ATOM     13  C   UNL     1       3.332   2.914  17.303  0.00  0.00    +0.000 A 
ATOM     14  C   UNL     1       3.460   4.308  17.399  0.00  0.00    +0.000 A 
ATOM     15  C   UNL     1       4.552   5.054  16.786  0.00  0.00    +0.000 A 
ENDROOT
BRANCH   8  16
ATOM     16  C   UNL     1       1.616   7.305  18.979  0.00  0.00    +0.000 C 
ATOM     17  C   UNL     1       1.954   7.521  20.456  0.00  0.00    +0.000 C 
ATOM     18  C   UNL     1       1.160   8.756  20.854  0.00  0.00    +0.000 C 
ATOM     19  C   UNL     1       0.914   9.560  19.581  0.00  0.00    +0.000 C 
ATOM     20  C   UNL     1       1.355   8.700  18.402  0.00  0.00    +0.000 C 
ENDBRANCH   8  16
TORSDOF 1
ENDMDL
