MODEL 1
REMARK VINA RESULT:      -5.2      0.000      0.000
REMARK  Name = 
REMARK  2 active torsions:
REMARK  status: ('A' for Active; 'I' for Inactive)
REMARK    1  A    between atoms: C_2  and  C_4
REMARK    2  A    between atoms: C_4  and  C_5
REMARK                            x       y       z     vdW  Elec       q    Type
REMARK                         _______ _______ _______ _____ _____    ______ ____
ROOT
ATOM      1  C   UNL     1       7.296   6.296  17.023  0.00  0.00    +0.000 C 
ATOM      2  C   UNL     1       5.847   6.742  16.706  0.00  0.00    +0.000 C 
ATOM      3  O   UNL     1       5.468   6.361  15.377  0.00  0.00    +0.000 OA
ATOM      4  C   UNL     1       5.562   4.939  15.227  0.00  0.00    +0.000 C 
ATOM      5  C   UNL     1       6.997   4.460  15.477  0.00  0.00    +0.000 C 
ATOM      6  N   UNL     1       7.492   4.833  16.816  0.00  0.00    +0.000 NA
ATOM      7  H   UNL     1       8.492   4.624  16.857  0.00  0.00    +0.000 HD
ENDROOT
BRANCH   1   8
ATOM      8  C   UNL     1       7.715   6.714  18.438  0.00  0.00    +0.000 C 
BRANCH   8  10
ATOM      9  N   UNL     1       8.574   5.246  20.171  0.00  0.00    +0.000 N 
ATOM     10  C   UNL     1       7.472   5.647  19.476  0.00  0.00    +0.000 C 
ATOM     11  O   UNL     1       6.366   5.173  19.715  0.00  0.00    +0.000 OA
ATOM     12  H   UNL     1       8.485   4.432  20.771  0.00  0.00    +0.000 HD
ATOM     13  H   UNL     1       9.494   5.423  19.761  0.00  0.00    +0.000 HD
ENDBRANCH   8  10
ENDBRANCH   1   8
TORSDOF 2
ENDMDL
MODEL 2
REMARK VINA RESULT:      -4.9      3.652      4.013
REMARK  Name = 
REMARK  2 active torsions:
REMARK  status: ('A' for Active; 'I' for Inactive)
REMARK    1  A    between atoms: C_2  and  C_4
REMARK    2  A    between atoms: C_4  and  C_5
REMARK                            x       y       z     vdW  Elec       q    Type
REMARK                         _______ _______ _______ _____ _____    ______ ____
ROOT
ATOM      1  C   UNL     1       4.061   3.765  17.301  0.00  0.00    +0.000 C 
ATOM      2  C   UNL     1       2.624   4.271  17.579  0.00  0.00    +0.000 C 
ATOM      3  O   UNL     1       1.685   3.187  17.574  0.00  0.00    +0.000 OA
ATOM      4  C   UNL     1       2.041   2.222  18.572  0.00  0.00    +0.000 C 
ATOM      5  C   UNL     1       3.439   1.652  18.301  0.00  0.00    +0.000 C 
ATOM      6  N   UNL     1       4.477   2.701  18.257  0.00  0.00    +0.000 NA
ATOM      7  H   UNL     1       5.345   2.277  17.922  0.00  0.00    +0.000 HD
ENDROOT
BRANCH   1   8
ATOM      8  C   UNL     1       5.070   4.920  17.289  0.00  0.00    +0.000 C 
BRANCH   8  10
ATOM      9  N   UNL     1       7.284   4.317  18.084  0.00  0.00    +0.000 N 
ATOM     10  C   UNL     1       6.073   4.853  18.412  0.00  0.00    +0.000 C 
ATOM     11  O   UNL     1       5.851   5.265  19.547  0.00  0.00    +0.000 OA
ATOM     12  H   UNL     1       7.933   4.117  18.838  0.00  0.00    +0.000 HD
ATOM     13  H   UNL     1       7.339   3.725  17.253  0.00  0.00    +0.000 HD
ENDBRANCH   8  10
ENDBRANCH   1   8
TORSDOF 2
ENDMDL
MODEL 3
REMARK VINA RESULT:      -4.9      3.188      3.858
REMARK  Name = 
REMARK  2 active torsions:
REMARK  status: ('A' for Active; 'I' for Inactive)
REMARK    1  A    between atoms: C_2  and  C_4
REMARK    2  A    between atoms: C_4  and  C_5
REMARK                            x       y       z     vdW  Elec       q    Type
REMARK                         _______ _______ _______ _____ _____    ______ ____
ROOT
ATOM      1  C   UNL     1       4.885   4.555  18.499  0.00  0.00    +0.000 C 
ATOM      2  C   UNL     1       3.743   5.232  19.297  0.00  0.00    +0.000 C 
ATOM      3  O   UNL     1       2.711   4.290  19.622  0.00  0.00    +0.000 OA
ATOM      4  C   UNL     1       3.252   3.216  20.401  0.00  0.00    +0.000 C 
ATOM      5  C   UNL     1       4.351   2.481  19.623  0.00  0.00    +0.000 C 
ATOM      6  N   UNL     1       5.450   3.378  19.215  0.00  0.00    +0.000 NA
ATOM      7  H   UNL     1       6.061   2.864  18.576  0.00  0.00    +0.000 HD
ENDROOT
BRANCH   1   8
ATOM      8  C   UNL     1       5.985   5.559  18.133  0.00  0.00    +0.000 C 
BRANCH   8  10
ATOM      9  N   UNL     1       7.874   4.341  17.213  0.00  0.00    +0.000 N 
ATOM     10  C   UNL     1       7.379   5.007  18.296  0.00  0.00    +0.000 C 
ATOM     11  O   UNL     1       8.053   5.152  19.311  0.00  0.00    +0.000 OA
ATOM     12  H   UNL     1       8.743   3.829  17.329  0.00  0.00    +0.000 HD
ATOM     13  H   UNL     1       7.210   3.982  16.524  0.00  0.00    +0.000 HD
ENDBRANCH   8  10
ENDBRANCH   1   8
TORSDOF 2
ENDMDL
MODEL 4
REMARK VINA RESULT:      -4.8      3.037      3.432
REMARK  Name = 
REMARK  2 active torsions:
REMARK  status: ('A' for Active; 'I' for Inactive)
REMARK    1  A    between atoms: C_2  and  C_4
REMARK    2  A    between atoms: C_4  and  C_5
REMARK                            x       y       z     vdW  Elec       q    Type
REMARK                         _______ _______ _______ _____ _____    ______ ____
ROOT
ATOM      1  C   UNL     1       5.146   4.784  18.639  0.00  0.00    +0.000 C 
ATOM      2  C   UNL     1       4.630   5.372  17.303  0.00  0.00    +0.000 C 
ATOM      3  O   UNL     1       5.652   6.132  16.644  0.00  0.00    +0.000 OA
ATOM      4  C   UNL     1       6.789   5.301  16.379  0.00  0.00    +0.000 C 
ATOM      5  C   UNL     1       7.368   4.742  17.685  0.00  0.00    +0.000 C 
ATOM      6  N   UNL     1       6.376   3.965  18.455  0.00  0.00    +0.000 NA
ATOM      7  H   UNL     1       6.776   3.757  19.373  0.00  0.00    +0.000 HD
ENDROOT
BRANCH   1   8
ATOM      8  C   UNL     1       4.053   3.983  19.359  0.00  0.00    +0.000 C 
BRANCH   8  10
ATOM      9  N   UNL     1       3.976   1.746  18.420  0.00  0.00    +0.000 N 
ATOM     10  C   UNL     1       4.366   2.514  19.478  0.00  0.00    +0.000 C 
ATOM     11  O   UNL     1       4.951   2.018  20.436  0.00  0.00    +0.000 OA
ATOM     12  H   UNL     1       4.032   0.737  18.521  0.00  0.00    +0.000 HD
ATOM     13  H   UNL     1       3.249   2.111  17.801  0.00  0.00    +0.000 HD
ENDBRANCH   8  10
ENDBRANCH   1   8
TORSDOF 2
ENDMDL
MODEL 5
REMARK VINA RESULT:      -4.8      2.623      2.834
REMARK  Name = 
REMARK  2 active torsions:
REMARK  status: ('A' for Active; 'I' for Inactive)
REMARK    1  A    between atoms: C_2  and  C_4
REMARK    2  A    between atoms: C_4  and  C_5
REMARK                            x       y       z     vdW  Elec       q    Type
REMARK                         _______ _______ _______ _____ _____    ______ ____
ROOT
ATOM      1  C   UNL     1       6.027   4.496  17.836  0.00  0.00    +0.000 C 
ATOM      2  C   UNL     1       5.093   5.716  17.640  0.00  0.00    +0.000 C 
ATOM      3  O   UNL     1       3.715   5.324  17.687  0.00  0.00    +0.000 OA
ATOM      4  C   UNL     1       3.420   4.710  18.947  0.00  0.00    +0.000 C 
ATOM      5  C   UNL     1       4.285   3.461  19.157  0.00  0.00    +0.000 C 
ATOM      6  N   UNL     1       5.729   3.757  19.096  0.00  0.00    +0.000 NA
ATOM      7  H   UNL     1       6.238   2.871  19.087  0.00  0.00    +0.000 HD
ENDROOT
BRANCH   1   8
ATOM      8  C   UNL     1       7.504   4.903  17.772  0.00  0.00    +0.000 C 
BRANCH   8  10
ATOM      9  N   UNL     1       8.015   5.463  20.079  0.00  0.00    +0.000 N 
ATOM     10  C   UNL     1       7.888   5.933  18.804  0.00  0.00    +0.000 C 
ATOM     11  O   UNL     1       8.102   7.112  18.541  0.00  0.00    +0.000 OA
ATOM     12  H   UNL     1       8.126   6.143  20.825  0.00  0.00    +0.000 HD
ATOM     13  H   UNL     1       7.554   4.583  20.316  0.00  0.00    +0.000 HD
ENDBRANCH   8  10
ENDBRANCH   1   8
TORSDOF 2
ENDMDL
MODEL 6
REMARK VINA RESULT:      -4.8      3.467      3.795
REMARK  Name = 
REMARK  2 active torsions:
REMARK  status: ('A' for Active; 'I' for Inactive)
REMARK    1  A    between atoms: C_2  and  C_4
REMARK    2  A    between atoms: C_4  and  C_5
REMARK                            x       y       z     vdW  Elec       q    Type
REMARK                         _______ _______ _______ _____ _____    ______ ____
ROOT
ATOM      1  C   UNL     1       4.954   4.041  18.024  0.00  0.00    +0.000 C 
ATOM      2  C   UNL     1       3.489   4.543  18.021  0.00  0.00    +0.000 C 
ATOM      3  O   UNL     1       2.582   3.490  18.373  0.00  0.00    +0.000 OA
ATOM      4  C   UNL     1       2.898   2.982  19.675  0.00  0.00    +0.000 C 
ATOM      5  C   UNL     1       4.325   2.421  19.706  0.00  0.00    +0.000 C 
ATOM      6  N   UNL     1       5.336   3.428  19.327  0.00  0.00    +0.000 NA
ATOM      7  H   UNL     1       6.235   2.953  19.218  0.00  0.00    +0.000 HD
ENDROOT
BRANCH   1   8
ATOM      8  C   UNL     1       5.931   5.157  17.632  0.00  0.00    +0.000 C 
BRANCH   8  10
ATOM      9  N   UNL     1       7.855   5.173  19.113  0.00  0.00    +0.000 N 
ATOM     10  C   UNL     1       7.374   4.809  17.889  0.00  0.00    +0.000 C 
ATOM     11  O   UNL     1       8.085   4.218  17.082  0.00  0.00    +0.000 OA
ATOM     12  H   UNL     1       8.854   5.092  19.272  0.00  0.00    +0.000 HD
ATOM     13  H   UNL     1       7.359   5.904  19.627  0.00  0.00    +0.000 HD
ENDBRANCH   8  10
ENDBRANCH   1   8
TORSDOF 2
ENDMDL
MODEL 7
REMARK VINA RESULT:      -4.8      3.181      3.405
REMARK  Name = 
REMARK  2 active torsions:
REMARK  status: ('A' for Active; 'I' for Inactive)
REMARK    1  A    between atoms: C_2  and  C_4
REMARK    2  A    between atoms: C_4  and  C_5
REMARK                            x       y       z     vdW  Elec       q    Type
REMARK                         _______ _______ _______ _____ _____    ______ ____
ROOT
ATOM      1  C   UNL     1       5.127   4.679  18.396  0.00  0.00    +0.000 C 
ATOM      2  C   UNL     1       4.672   4.662  16.916  0.00  0.00    +0.000 C 
ATOM      3  O   UNL     1       5.642   5.292  16.069  0.00  0.00    +0.000 OA
ATOM      4  C   UNL     1       6.902   4.618  16.177  0.00  0.00    +0.000 C 
ATOM      5  C   UNL     1       7.418   4.662  17.621  0.00  0.00    +0.000 C 
ATOM      6  N   UNL     1       6.470   4.060  18.578  0.00  0.00    +0.000 NA
ATOM      7  H   UNL     1       6.801   4.260  19.525  0.00  0.00    +0.000 HD
ENDROOT
BRANCH   1   8
ATOM      8  C   UNL     1       4.087   4.021  19.312  0.00  0.00    +0.000 C 
BRANCH   8  10
ATOM      9  N   UNL     1       5.038   1.938  20.118  0.00  0.00    +0.000 N 
ATOM     10  C   UNL     1       4.129   2.515  19.281  0.00  0.00    +0.000 C 
ATOM     11  O   UNL     1       3.391   1.829  18.579  0.00  0.00    +0.000 OA
ATOM     12  H   UNL     1       5.203   0.940  20.022  0.00  0.00    +0.000 HD
ATOM     13  H   UNL     1       5.818   2.508  20.449  0.00  0.00    +0.000 HD
ENDBRANCH   8  10
ENDBRANCH   1   8
TORSDOF 2
ENDMDL
MODEL 8
REMARK VINA RESULT:      -4.8      2.627      3.703
REMARK  Name = 
REMARK  2 active torsions:
REMARK  status: ('A' for Active; 'I' for Inactive)
REMARK    1  A    between atoms: C_2  and  C_4
REMARK    2  A    between atoms: C_4  and  C_5
REMARK                            x       y       z     vdW  Elec       q    Type
REMARK                         _______ _______ _______ _____ _____    ______ ____
ROOT
ATOM      1  C   UNL     1       4.713   4.158  17.081  0.00  0.00    +0.000 C 
ATOM      2  C   UNL     1       4.294   5.645  17.193  0.00  0.00    +0.000 C 
ATOM      3  O   UNL     1       3.229   5.812  18.138  0.00  0.00    +0.000 OA
ATOM      4  C   UNL     1       3.638   5.345  19.429  0.00  0.00    +0.000 C 
ATOM      5  C   UNL     1       4.008   3.858  19.375  0.00  0.00    +0.000 C 
ATOM      6  N   UNL     1       5.082   3.578  18.403  0.00  0.00    +0.000 NA
ATOM      7  H   UNL     1       5.170   2.564  18.306  0.00  0.00    +0.000 HD
ENDROOT
BRANCH   1   8
ATOM      8  C   UNL     1       5.842   3.968  16.060  0.00  0.00    +0.000 C 
BRANCH   8  10
ATOM      9  N   UNL     1       7.774   4.272  17.498  0.00  0.00    +0.000 N 
ATOM     10  C   UNL     1       7.097   4.728  16.405  0.00  0.00    +0.000 C 
ATOM     11  O   UNL     1       7.517   5.678  15.752  0.00  0.00    +0.000 OA
ATOM     12  H   UNL     1       8.538   4.840  17.852  0.00  0.00    +0.000 HD
ATOM     13  H   UNL     1       7.266   3.701  18.176  0.00  0.00    +0.000 HD
ENDBRANCH   8  10
ENDBRANCH   1   8
TORSDOF 2
ENDMDL
MODEL 9
REMARK VINA RESULT:      -4.8      1.038      1.038
REMARK  Name = 
REMARK  2 active torsions:
REMARK  status: ('A' for Active; 'I' for Inactive)
REMARK    1  A    between atoms: C_2  and  C_4
REMARK    2  A    between atoms: C_4  and  C_5
REMARK                            x       y       z     vdW  Elec       q    Type
REMARK                         _______ _______ _______ _____ _____    ______ ____
ROOT
ATOM      1  C   UNL     1       7.191   6.346  16.861  0.00  0.00    +0.000 C 
ATOM      2  C   UNL     1       5.717   6.717  16.562  0.00  0.00    +0.000 C 
ATOM      3  O   UNL     1       5.359   6.368  15.218  0.00  0.00    +0.000 OA
ATOM      4  C   UNL     1       5.537   4.962  15.010  0.00  0.00    +0.000 C 
ATOM      5  C   UNL     1       7.000   4.561  15.240  0.00  0.00    +0.000 C 
ATOM      6  N   UNL     1       7.474   4.908  16.594  0.00  0.00    +0.000 NA
ATOM      7  H   UNL     1       8.484   4.758  16.627  0.00  0.00    +0.000 HD
ENDROOT
BRANCH   1   8
ATOM      8  C   UNL     1       7.588   6.730  18.292  0.00  0.00    +0.000 C 
BRANCH   8  10
ATOM      9  N   UNL     1       6.297   5.061  19.494  0.00  0.00    +0.000 N 
ATOM     10  C   UNL     1       7.539   5.574  19.258  0.00  0.00    +0.000 C 
ATOM     11  O   UNL     1       8.533   5.093  19.793  0.00  0.00    +0.000 OA
ATOM     12  H   UNL     1       6.199   4.384  20.245  0.00  0.00    +0.000 HD
ATOM     13  H   UNL     1       5.486   5.647  19.287  0.00  0.00    +0.000 HD
ENDBRANCH   8  10
ENDBRANCH   1   8
TORSDOF 2
ENDMDL
