MODEL 1
REMARK VINA RESULT:      -8.2      0.000      0.000
REMARK  Name = 
REMARK  6 active torsions:
REMARK  status: ('A' for Active; 'I' for Inactive)
REMARK    1  A    between atoms: C_1  and  C_2
REMARK    2  A    between atoms: C_8  and  N_9
REMARK    3  A    between atoms: C_10  and  C_12
REMARK    4  A    between atoms: C_16  and  C_18
REMARK    5  A    between atoms: N_21  and  C_22
REMARK    6  A    between atoms: C_28  and  N_29
REMARK                            x       y       z     vdW  Elec       q    Type
REMARK                         _______ _______ _______ _____ _____    ______ ____
ROOT
ATOM      1  C   UNL     1       1.710   8.859  20.665  0.00  0.00    +0.000 C 
ATOM      2  C   UNL     1       1.321   9.062  22.138  0.00  0.00    +0.000 C 
ATOM      3  C   UNL     1      -0.178   9.259  22.348  0.00  0.00    +0.000 C 
ATOM      4  N   UNL     1      -0.653  10.355  21.509  0.00  0.00    +0.000 N 
ATOM      5  C   UNL     1      -0.906  11.589  22.127  0.00  0.00    +0.000 C 
ATOM      6  O   UNL     1      -0.731  11.694  23.342  0.00  0.00    +0.000 OA
ATOM      7  C   UNL     1      -0.592  10.031  20.094  0.00  0.00    +0.000 C 
ATOM      8  C   UNL     1       0.830   9.648  19.656  0.00  0.00    +0.000 C 
ENDROOT
BRANCH   5   9
ATOM      9  C   UNL     1      -1.398  12.758  21.386  0.00  0.00    +0.000 A 
ATOM     10  C   UNL     1      -2.721  13.232  21.243  0.00  0.00    +0.000 A 
ATOM     11  N   UNL     1      -2.803  14.453  20.716  0.00  0.00    +0.000 NA
ATOM     12  N   UNL     1      -1.517  14.808  20.446  0.00  0.00    +0.000 N 
ATOM     13  C   UNL     1      -0.640  13.832  20.906  0.00  0.00    +0.000 A 
BRANCH  12  14
ATOM     14  C   UNL     1      -1.272  16.024  19.730  0.00  0.00    +0.000 A 
ATOM     15  C   UNL     1      -0.345  16.022  18.676  0.00  0.00    +0.000 A 
ATOM     16  C   UNL     1      -0.162  17.168  17.893  0.00  0.00    +0.000 A 
ATOM     17  C   UNL     1      -0.880  18.328  18.172  0.00  0.00    +0.000 A 
ATOM     18  C   UNL     1      -1.758  18.358  19.253  0.00  0.00    +0.000 A 
ATOM     19  C   UNL     1      -1.941  17.216  20.041  0.00  0.00    +0.000 A 
ENDBRANCH  12  14
BRANCH  13  20
ATOM     20  N   UNL     1       0.747  13.998  20.990  0.00  0.00    +0.000 N 
ATOM     21  C   UNL     1       1.702  13.341  20.236  0.00  0.00    +0.000 A 
ATOM     22  C   UNL     1       2.955  13.788  20.591  0.00  0.00    +0.000 A 
ATOM     23  C   UNL     1       2.784  14.747  21.609  0.00  0.00    +0.000 A 
ATOM     24  C   UNL     1       1.431  14.849  21.844  0.00  0.00    +0.000 A 
ENDBRANCH  13  20
ENDBRANCH   5   9
BRANCH   1  26
ATOM     25  N   UNL     1       2.476   7.113  19.099  0.00  0.00    +0.000 N 
ATOM     26  C   UNL     1       1.839   7.363  20.325  0.00  0.00    +0.000 C 
ATOM     27  O   UNL     1       1.386   6.517  21.090  0.00  0.00    +0.000 OA
ATOM     28  H   UNL     1       2.696   7.916  18.524  0.00  0.00    +0.000 HD
BRANCH  25  36
ATOM     29  C   UNL     1       4.788   6.657  17.215  0.00  0.00    +0.000 C 
ATOM     30  C   UNL     1       3.751   5.624  17.584  0.00  0.00    +0.000 A 
ATOM     31  C   UNL     1       3.903   4.355  16.974  0.00  0.00    +0.000 A 
ATOM     32  C   UNL     1       3.033   3.308  17.256  0.00  0.00    +0.000 A 
ATOM     33  C   UNL     1       2.015   3.508  18.176  0.00  0.00    +0.000 A 
ATOM     34 CL   UNL     1       0.946   2.214  18.555  0.00  0.00    +0.000 Cl
ATOM     35  C   UNL     1       1.851   4.750  18.794  0.00  0.00    +0.000 A 
ATOM     36  C   UNL     1       2.690   5.834  18.498  0.00  0.00    +0.000 A 
ENDBRANCH  25  36
ENDBRANCH   1  26
TORSDOF 5
ENDMDL
MODEL 2
REMARK VINA RESULT:      -8.1      0.126      1.037
REMARK  Name = 
REMARK  6 active torsions:
REMARK  status: ('A' for Active; 'I' for Inactive)
REMARK    1  A    between atoms: C_1  and  C_2
REMARK    2  A    between atoms: C_8  and  N_9
REMARK    3  A    between atoms: C_10  and  C_12
REMARK    4  A    between atoms: C_16  and  C_18
REMARK    5  A    between atoms: N_21  and  C_22
REMARK    6  A    between atoms: C_28  and  N_29
REMARK                            x       y       z     vdW  Elec       q    Type
REMARK                         _______ _______ _______ _____ _____    ______ ____
ROOT
ATOM      1  C   UNL     1       1.706   8.830  20.562  0.00  0.00    +0.000 C 
ATOM      2  C   UNL     1       1.344   9.030  22.041  0.00  0.00    +0.000 C 
ATOM      3  C   UNL     1      -0.150   9.232  22.278  0.00  0.00    +0.000 C 
ATOM      4  N   UNL     1      -0.636  10.333  21.451  0.00  0.00    +0.000 N 
ATOM      5  C   UNL     1      -0.873  11.566  22.077  0.00  0.00    +0.000 C 
ATOM      6  O   UNL     1      -0.677  11.667  23.289  0.00  0.00    +0.000 OA
ATOM      7  C   UNL     1      -0.602  10.012  20.034  0.00  0.00    +0.000 C 
ATOM      8  C   UNL     1       0.810   9.624  19.570  0.00  0.00    +0.000 C 
ENDROOT
BRANCH   5   9
ATOM      9  C   UNL     1      -1.374  12.738  21.347  0.00  0.00    +0.000 A 
ATOM     10  C   UNL     1      -2.696  13.224  21.238  0.00  0.00    +0.000 A 
ATOM     11  N   UNL     1      -2.781  14.445  20.712  0.00  0.00    +0.000 NA
ATOM     12  N   UNL     1      -1.499  14.788  20.408  0.00  0.00    +0.000 N 
ATOM     13  C   UNL     1      -0.619  13.806  20.847  0.00  0.00    +0.000 A 
BRANCH  12  14
ATOM     14  C   UNL     1      -1.262  16.002  19.685  0.00  0.00    +0.000 A 
ATOM     15  C   UNL     1      -1.944  17.169  20.065  0.00  0.00    +0.000 A 
ATOM     16  C   UNL     1      -1.656  18.390  19.444  0.00  0.00    +0.000 A 
ATOM     17  C   UNL     1      -0.707  18.451  18.425  0.00  0.00    +0.000 A 
ATOM     18  C   UNL     1      -0.069  17.288  18.002  0.00  0.00    +0.000 A 
ATOM     19  C   UNL     1      -0.357  16.064  18.616  0.00  0.00    +0.000 A 
ENDBRANCH  12  14
BRANCH  13  20
ATOM     20  N   UNL     1       0.771  13.960  20.895  0.00  0.00    +0.000 N 
ATOM     21  C   UNL     1       1.479  14.774  21.759  0.00  0.00    +0.000 A 
ATOM     22  C   UNL     1       2.828  14.639  21.516  0.00  0.00    +0.000 A 
ATOM     23  C   UNL     1       2.972  13.721  20.457  0.00  0.00    +0.000 A 
ATOM     24  C   UNL     1       1.704  13.331  20.087  0.00  0.00    +0.000 A 
ENDBRANCH  13  20
ENDBRANCH   5   9
BRANCH   1  26
ATOM     25  N   UNL     1       2.554   7.079  19.044  0.00  0.00    +0.000 N 
ATOM     26  C   UNL     1       1.823   7.334  20.216  0.00  0.00    +0.000 C 
ATOM     27  O   UNL     1       1.285   6.494  20.930  0.00  0.00    +0.000 OA
ATOM     28  H   UNL     1       2.843   7.881  18.500  0.00  0.00    +0.000 HD
BRANCH  25  36
ATOM     29  C   UNL     1       4.844   6.655  17.127  0.00  0.00    +0.000 C 
ATOM     30  C   UNL     1       3.834   5.605  17.519  0.00  0.00    +0.000 A 
ATOM     31  C   UNL     1       4.001   4.335  16.915  0.00  0.00    +0.000 A 
ATOM     32  C   UNL     1       3.157   3.272  17.218  0.00  0.00    +0.000 A 
ATOM     33  C   UNL     1       2.150   3.459  18.153  0.00  0.00    +0.000 A 
ATOM     34 CL   UNL     1       1.113   2.147  18.557  0.00  0.00    +0.000 Cl
ATOM     35  C   UNL     1       1.971   4.701  18.766  0.00  0.00    +0.000 A 
ATOM     36  C   UNL     1       2.784   5.799  18.448  0.00  0.00    +0.000 A 
ENDBRANCH  25  36
ENDBRANCH   1  26
TORSDOF 5
ENDMDL
MODEL 3
REMARK VINA RESULT:      -7.8      5.062      8.048
REMARK  Name = 
REMARK  6 active torsions:
REMARK  status: ('A' for Active; 'I' for Inactive)
REMARK    1  A    between atoms: C_1  and  C_2
REMARK    2  A    between atoms: C_8  and  N_9
REMARK    3  A    between atoms: C_10  and  C_12
REMARK    4  A    between atoms: C_16  and  C_18
REMARK    5  A    between atoms: N_21  and  C_22
REMARK    6  A    between atoms: C_28  and  N_29
REMARK                            x       y       z     vdW  Elec       q    Type
REMARK                         _______ _______ _______ _____ _____    ______ ____
ROOT
ATOM      1  C   UNL     1       5.177  16.147  19.787  0.00  0.00    +0.000 C 
ATOM      2  C   UNL     1       4.760  15.799  21.225  0.00  0.00    +0.000 C 
ATOM      3  C   UNL     1       4.296  14.355  21.388  0.00  0.00    +0.000 C 
ATOM      4  N   UNL     1       3.229  14.068  20.434  0.00  0.00    +0.000 N 
ATOM      5  C   UNL     1       1.913  14.026  20.917  0.00  0.00    +0.000 C 
ATOM      6  O   UNL     1       1.713  14.217  22.118  0.00  0.00    +0.000 OA
ATOM      7  C   UNL     1       3.705  14.073  19.060  0.00  0.00    +0.000 C 
ATOM      8  C   UNL     1       4.363  15.410  18.688  0.00  0.00    +0.000 C 
ENDROOT
BRANCH   5   9
ATOM      9  C   UNL     1       0.762  13.736  20.051  0.00  0.00    +0.000 A 
ATOM     10  C   UNL     1       0.398  14.329  18.822  0.00  0.00    +0.000 A 
ATOM     11  N   UNL     1      -0.558  13.672  18.167  0.00  0.00    +0.000 NA
ATOM     12  N   UNL     1      -0.893  12.633  18.982  0.00  0.00    +0.000 N 
ATOM     13  C   UNL     1      -0.061  12.605  20.095  0.00  0.00    +0.000 A 
BRANCH  12  14
ATOM     14  C   UNL     1      -2.009  11.809  18.626  0.00  0.00    +0.000 A 
ATOM     15  C   UNL     1      -3.295  12.176  19.055  0.00  0.00    +0.000 A 
ATOM     16  C   UNL     1      -4.414  11.448  18.637  0.00  0.00    +0.000 A 
ATOM     17  C   UNL     1      -4.258  10.337  17.811  0.00  0.00    +0.000 A 
ATOM     18  C   UNL     1      -2.982   9.930  17.429  0.00  0.00    +0.000 A 
ATOM     19  C   UNL     1      -1.860  10.652  17.848  0.00  0.00    +0.000 A 
ENDBRANCH  12  14
BRANCH  13  20
ATOM     20  N   UNL     1       0.007  11.538  20.998  0.00  0.00    +0.000 N 
ATOM     21  C   UNL     1       0.805  10.415  20.887  0.00  0.00    +0.000 A 
ATOM     22  C   UNL     1       0.611   9.603  21.982  0.00  0.00    +0.000 A 
ATOM     23  C   UNL     1      -0.350  10.228  22.801  0.00  0.00    +0.000 A 
ATOM     24  C   UNL     1      -0.712  11.400  22.175  0.00  0.00    +0.000 A 
ENDBRANCH  13  20
ENDBRANCH   5   9
BRANCH   1  26
ATOM     25  N   UNL     1       7.181  14.709  19.720  0.00  0.00    +0.000 N 
ATOM     26  C   UNL     1       6.701  16.023  19.605  0.00  0.00    +0.000 C 
ATOM     27  O   UNL     1       7.379  17.025  19.401  0.00  0.00    +0.000 OA
ATOM     28  H   UNL     1       6.516  14.000  20.001  0.00  0.00    +0.000 HD
BRANCH  25  36
ATOM     29  C   UNL     1       8.803  14.299  22.231  0.00  0.00    +0.000 C 
ATOM     30  C   UNL     1       9.324  14.137  20.824  0.00  0.00    +0.000 A 
ATOM     31  C   UNL     1      10.687  13.769  20.712  0.00  0.00    +0.000 A 
ATOM     32  C   UNL     1      11.280  13.556  19.471  0.00  0.00    +0.000 A 
ATOM     33  C   UNL     1      10.507  13.680  18.327  0.00  0.00    +0.000 A 
ATOM     34 CL   UNL     1      11.219  13.395  16.787  0.00  0.00    +0.000 Cl
ATOM     35  C   UNL     1       9.159  14.035  18.416  0.00  0.00    +0.000 A 
ATOM     36  C   UNL     1       8.548  14.294  19.651  0.00  0.00    +0.000 A 
ENDBRANCH  25  36
ENDBRANCH   1  26
TORSDOF 5
ENDMDL
MODEL 4
REMARK VINA RESULT:      -7.7      1.900      3.471
REMARK  Name = 
REMARK  6 active torsions:
REMARK  status: ('A' for Active; 'I' for Inactive)
REMARK    1  A    between atoms: C_1  and  C_2
REMARK    2  A    between atoms: C_8  and  N_9
REMARK    3  A    between atoms: C_10  and  C_12
REMARK    4  A    between atoms: C_16  and  C_18
REMARK    5  A    between atoms: N_21  and  C_22
REMARK    6  A    between atoms: C_28  and  N_29
REMARK                            x       y       z     vdW  Elec       q    Type
REMARK                         _______ _______ _______ _____ _____    ______ ____
ROOT
ATOM      1  C   UNL     1       1.771   9.263  20.246  0.00  0.00    +0.000 C 
ATOM      2  C   UNL     1       0.973   8.814  21.480  0.00  0.00    +0.000 C 
ATOM      3  C   UNL     1      -0.498   9.214  21.429  0.00  0.00    +0.000 C 
ATOM      4  N   UNL     1      -0.611  10.653  21.209  0.00  0.00    +0.000 N 
ATOM      5  C   UNL     1      -0.940  11.459  22.310  0.00  0.00    +0.000 C 
ATOM      6  O   UNL     1      -1.132  10.925  23.403  0.00  0.00    +0.000 OA
ATOM      7  C   UNL     1      -0.151  11.045  19.887  0.00  0.00    +0.000 C 
ATOM      8  C   UNL     1       1.302  10.613  19.636  0.00  0.00    +0.000 C 
ENDROOT
BRANCH   5   9
ATOM      9  C   UNL     1      -1.091  12.917  22.204  0.00  0.00    +0.000 A 
ATOM     10  C   UNL     1      -0.109  13.926  22.314  0.00  0.00    +0.000 A 
ATOM     11  N   UNL     1      -0.526  15.130  21.922  0.00  0.00    +0.000 NA
ATOM     12  N   UNL     1      -1.832  14.956  21.580  0.00  0.00    +0.000 N 
ATOM     13  C   UNL     1      -2.182  13.614  21.673  0.00  0.00    +0.000 A 
BRANCH  12  14
ATOM     14  C   UNL     1      -2.618  16.108  21.250  0.00  0.00    +0.000 A 
ATOM     15  C   UNL     1      -2.352  16.798  20.057  0.00  0.00    +0.000 A 
ATOM     16  C   UNL     1      -3.169  17.862  19.657  0.00  0.00    +0.000 A 
ATOM     17  C   UNL     1      -4.238  18.261  20.456  0.00  0.00    +0.000 A 
ATOM     18  C   UNL     1      -4.474  17.621  21.671  0.00  0.00    +0.000 A 
ATOM     19  C   UNL     1      -3.657  16.559  22.075  0.00  0.00    +0.000 A 
ENDBRANCH  12  14
BRANCH  13  20
ATOM     20  N   UNL     1      -3.374  13.076  21.174  0.00  0.00    +0.000 N 
ATOM     21  C   UNL     1      -4.543  12.868  21.882  0.00  0.00    +0.000 A 
ATOM     22  C   UNL     1      -5.501  12.343  21.044  0.00  0.00    +0.000 A 
ATOM     23  C   UNL     1      -4.912  12.205  19.771  0.00  0.00    +0.000 A 
ATOM     24  C   UNL     1      -3.612  12.646  19.879  0.00  0.00    +0.000 A 
ENDBRANCH  13  20
ENDBRANCH   5   9
BRANCH   1  26
ATOM     25  N   UNL     1       2.440   6.947  19.720  0.00  0.00    +0.000 N 
ATOM     26  C   UNL     1       1.878   8.128  19.210  0.00  0.00    +0.000 C 
ATOM     27  O   UNL     1       1.506   8.313  18.056  0.00  0.00    +0.000 OA
ATOM     28  H   UNL     1       2.802   6.981  20.664  0.00  0.00    +0.000 HD
BRANCH  25  36
ATOM     29  C   UNL     1       1.030   4.366  20.393  0.00  0.00    +0.000 C 
ATOM     30  C   UNL     1       2.081   4.528  19.323  0.00  0.00    +0.000 A 
ATOM     31  C   UNL     1       2.411   3.354  18.602  0.00  0.00    +0.000 A 
ATOM     32  C   UNL     1       3.340   3.377  17.568  0.00  0.00    +0.000 A 
ATOM     33  C   UNL     1       3.931   4.582  17.221  0.00  0.00    +0.000 A 
ATOM     34 CL   UNL     1       5.064   4.631  15.927  0.00  0.00    +0.000 Cl
ATOM     35  C   UNL     1       3.615   5.753  17.914  0.00  0.00    +0.000 A 
ATOM     36  C   UNL     1       2.711   5.750  18.986  0.00  0.00    +0.000 A 
ENDBRANCH  25  36
ENDBRANCH   1  26
TORSDOF 5
ENDMDL
MODEL 5
REMARK VINA RESULT:      -7.7      1.559      3.025
REMARK  Name = 
REMARK  6 active torsions:
REMARK  status: ('A' for Active; 'I' for Inactive)
REMARK    1  A    between atoms: C_1  and  C_2
REMARK    2  A    between atoms: C_8  and  N_9
REMARK    3  A    between atoms: C_10  and  C_12
REMARK    4  A    between atoms: C_16  and  C_18
REMARK    5  A    between atoms: N_21  and  C_22
REMARK    6  A    between atoms: C_28  and  N_29
REMARK                            x       y       z     vdW  Elec       q    Type
REMARK                         _______ _______ _______ _____ _____    ______ ____
ROOT
ATOM      1  C   UNL     1       1.781   9.357  19.910  0.00  0.00    +0.000 C 
ATOM      2  C   UNL     1       1.092   8.951  21.222  0.00  0.00    +0.000 C 
ATOM      3  C   UNL     1      -0.380   9.348  21.282  0.00  0.00    +0.000 C 
ATOM      4  N   UNL     1      -0.516  10.779  21.023  0.00  0.00    +0.000 N 
ATOM      5  C   UNL     1      -0.753  11.623  22.119  0.00  0.00    +0.000 C 
ATOM      6  O   UNL     1      -0.850  11.127  23.242  0.00  0.00    +0.000 OA
ATOM      7  C   UNL     1      -0.171  11.124  19.654  0.00  0.00    +0.000 C 
ATOM      8  C   UNL     1       1.256  10.685  19.296  0.00  0.00    +0.000 C 
ENDROOT
BRANCH   5   9
ATOM      9  C   UNL     1      -0.918  13.075  21.976  0.00  0.00    +0.000 A 
ATOM     10  C   UNL     1       0.066  14.089  21.971  0.00  0.00    +0.000 A 
ATOM     11  N   UNL     1      -0.385  15.278  21.573  0.00  0.00    +0.000 NA
ATOM     12  N   UNL     1      -1.715  15.091  21.344  0.00  0.00    +0.000 N 
ATOM     13  C   UNL     1      -2.051  13.753  21.510  0.00  0.00    +0.000 A 
BRANCH  12  14
ATOM     14  C   UNL     1      -2.529  16.230  21.038  0.00  0.00    +0.000 A 
ATOM     15  C   UNL     1      -2.224  17.006  19.909  0.00  0.00    +0.000 A 
ATOM     16  C   UNL     1      -3.061  18.060  19.527  0.00  0.00    +0.000 A 
ATOM     17  C   UNL     1      -4.192  18.364  20.283  0.00  0.00    +0.000 A 
ATOM     18  C   UNL     1      -4.469  17.638  21.439  0.00  0.00    +0.000 A 
ATOM     19  C   UNL     1      -3.633  16.586  21.826  0.00  0.00    +0.000 A 
ENDBRANCH  12  14
BRANCH  13  20
ATOM     20  N   UNL     1      -3.276  13.197  21.128  0.00  0.00    +0.000 N 
ATOM     21  C   UNL     1      -3.615  12.737  19.868  0.00  0.00    +0.000 A 
ATOM     22  C   UNL     1      -4.899  12.241  19.890  0.00  0.00    +0.000 A 
ATOM     23  C   UNL     1      -5.389  12.406  21.201  0.00  0.00    +0.000 A 
ATOM     24  C   UNL     1      -4.387  13.002  21.933  0.00  0.00    +0.000 A 
ENDBRANCH  13  20
ENDBRANCH   5   9
BRANCH   1  26
ATOM     25  N   UNL     1       2.341   7.002  19.435  0.00  0.00    +0.000 N 
ATOM     26  C   UNL     1       1.803   8.187  18.909  0.00  0.00    +0.000 C 
ATOM     27  O   UNL     1       1.392   8.349  17.764  0.00  0.00    +0.000 OA
ATOM     28  H   UNL     1       2.742   7.051  20.362  0.00  0.00    +0.000 HD
BRANCH  25  36
ATOM     29  C   UNL     1       4.553   6.719  17.403  0.00  0.00    +0.000 C 
ATOM     30  C   UNL     1       3.550   5.647  17.749  0.00  0.00    +0.000 A 
ATOM     31  C   UNL     1       3.684   4.427  17.041  0.00  0.00    +0.000 A 
ATOM     32  C   UNL     1       2.843   3.349  17.291  0.00  0.00    +0.000 A 
ATOM     33  C   UNL     1       1.874   3.466  18.276  0.00  0.00    +0.000 A 
ATOM     34 CL   UNL     1       0.842   2.132  18.615  0.00  0.00    +0.000 Cl
ATOM     35  C   UNL     1       1.729   4.657  18.991  0.00  0.00    +0.000 A 
ATOM     36  C   UNL     1       2.538   5.772  18.731  0.00  0.00    +0.000 A 
ENDBRANCH  25  36
ENDBRANCH   1  26
TORSDOF 5
ENDMDL
MODEL 6
REMARK VINA RESULT:      -7.7      1.781      2.336
REMARK  Name = 
REMARK  6 active torsions:
REMARK  status: ('A' for Active; 'I' for Inactive)
REMARK    1  A    between atoms: C_1  and  C_2
REMARK    2  A    between atoms: C_8  and  N_9
REMARK    3  A    between atoms: C_10  and  C_12
REMARK    4  A    between atoms: C_16  and  C_18
REMARK    5  A    between atoms: N_21  and  C_22
REMARK    6  A    between atoms: C_28  and  N_29
REMARK                            x       y       z     vdW  Elec       q    Type
REMARK                         _______ _______ _______ _____ _____    ______ ____
ROOT
ATOM      1  C   UNL     1       1.681   9.300  19.529  0.00  0.00    +0.000 C 
ATOM      2  C   UNL     1       1.651   8.889  21.009  0.00  0.00    +0.000 C 
ATOM      3  C   UNL     1       0.240   8.701  21.558  0.00  0.00    +0.000 C 
ATOM      4  N   UNL     1      -0.547   9.907  21.317  0.00  0.00    +0.000 N 
ATOM      5  C   UNL     1      -0.772  10.768  22.402  0.00  0.00    +0.000 C 
ATOM      6  O   UNL     1      -0.314  10.469  23.506  0.00  0.00    +0.000 OA
ATOM      7  C   UNL     1      -0.805  10.122  19.904  0.00  0.00    +0.000 C 
ATOM      8  C   UNL     1       0.496  10.205  19.092  0.00  0.00    +0.000 C 
ENDROOT
BRANCH   5   9
ATOM      9  C   UNL     1      -1.560  12.002  22.281  0.00  0.00    +0.000 A 
ATOM     10  C   UNL     1      -2.681  12.423  23.030  0.00  0.00    +0.000 A 
ATOM     11  N   UNL     1      -3.010  13.700  22.839  0.00  0.00    +0.000 NA
ATOM     12  N   UNL     1      -2.129  14.155  21.905  0.00  0.00    +0.000 N 
ATOM     13  C   UNL     1      -1.195  13.171  21.602  0.00  0.00    +0.000 A 
BRANCH  12  14
ATOM     14  C   UNL     1      -2.310  15.471  21.368  0.00  0.00    +0.000 A 
ATOM     15  C   UNL     1      -3.519  15.789  20.730  0.00  0.00    +0.000 A 
ATOM     16  C   UNL     1      -3.764  17.094  20.288  0.00  0.00    +0.000 A 
ATOM     17  C   UNL     1      -2.797  18.082  20.455  0.00  0.00    +0.000 A 
ATOM     18  C   UNL     1      -1.571  17.762  21.033  0.00  0.00    +0.000 A 
ATOM     19  C   UNL     1      -1.320  16.458  21.473  0.00  0.00    +0.000 A 
ENDBRANCH  12  14
BRANCH  13  20
ATOM     20  N   UNL     1      -0.030  13.394  20.860  0.00  0.00    +0.000 N 
ATOM     21  C   UNL     1       0.045  13.655  19.504  0.00  0.00    +0.000 A 
ATOM     22  C   UNL     1       1.361  13.841  19.144  0.00  0.00    +0.000 A 
ATOM     23  C   UNL     1       2.139  13.679  20.308  0.00  0.00    +0.000 A 
ATOM     24  C   UNL     1       1.270  13.395  21.337  0.00  0.00    +0.000 A 
ENDBRANCH  13  20
ENDBRANCH   5   9
BRANCH   1  26
ATOM     25  N   UNL     1       2.437   6.965  19.274  0.00  0.00    +0.000 N 
ATOM     26  C   UNL     1       1.886   8.077  18.616  0.00  0.00    +0.000 C 
ATOM     27  O   UNL     1       1.591   8.141  17.427  0.00  0.00    +0.000 OA
ATOM     28  H   UNL     1       2.731   7.098  20.233  0.00  0.00    +0.000 HD
BRANCH  25  36
ATOM     29  C   UNL     1       1.153   4.399  20.205  0.00  0.00    +0.000 C 
ATOM     30  C   UNL     1       2.215   4.501  19.138  0.00  0.00    +0.000 A 
ATOM     31  C   UNL     1       2.620   3.277  18.553  0.00  0.00    +0.000 A 
ATOM     32  C   UNL     1       3.567   3.239  17.536  0.00  0.00    +0.000 A 
ATOM     33  C   UNL     1       4.100   4.430  17.068  0.00  0.00    +0.000 A 
ATOM     34 CL   UNL     1       5.254   4.401  15.792  0.00  0.00    +0.000 Cl
ATOM     35  C   UNL     1       3.709   5.650  17.625  0.00  0.00    +0.000 A 
ATOM     36  C   UNL     1       2.786   5.713  18.679  0.00  0.00    +0.000 A 
ENDBRANCH  25  36
ENDBRANCH   1  26
TORSDOF 5
ENDMDL
MODEL 7
REMARK VINA RESULT:      -7.6      2.942      4.841
REMARK  Name = 
REMARK  6 active torsions:
REMARK  status: ('A' for Active; 'I' for Inactive)
REMARK    1  A    between atoms: C_1  and  C_2
REMARK    2  A    between atoms: C_8  and  N_9
REMARK    3  A    between atoms: C_10  and  C_12
REMARK    4  A    between atoms: C_16  and  C_18
REMARK    5  A    between atoms: N_21  and  C_22
REMARK    6  A    between atoms: C_28  and  N_29
REMARK                            x       y       z     vdW  Elec       q    Type
REMARK                         _______ _______ _______ _____ _____    ______ ____
ROOT
ATOM      1  C   UNL     1       0.802   8.948  18.755  0.00  0.00    +0.000 C 
ATOM      2  C   UNL     1       1.244  10.155  17.913  0.00  0.00    +0.000 C 
ATOM      3  C   UNL     1       1.589  11.384  18.748  0.00  0.00    +0.000 C 
ATOM      4  N   UNL     1       0.467  11.718  19.621  0.00  0.00    +0.000 N 
ATOM      5  C   UNL     1      -0.343  12.804  19.257  0.00  0.00    +0.000 C 
ATOM      6  O   UNL     1      -0.071  13.435  18.234  0.00  0.00    +0.000 OA
ATOM      7  C   UNL     1       0.251  10.713  20.648  0.00  0.00    +0.000 C 
ATOM      8  C   UNL     1       0.017   9.320  20.044  0.00  0.00    +0.000 C 
ENDROOT
BRANCH   5   9
ATOM      9  C   UNL     1      -1.491  13.239  20.064  0.00  0.00    +0.000 A 
ATOM     10  C   UNL     1      -1.582  14.308  20.982  0.00  0.00    +0.000 A 
ATOM     11  N   UNL     1      -2.829  14.590  21.361  0.00  0.00    +0.000 NA
ATOM     12  N   UNL     1      -3.606  13.667  20.729  0.00  0.00    +0.000 N 
ATOM     13  C   UNL     1      -2.832  12.882  19.882  0.00  0.00    +0.000 A 
BRANCH  12  14
ATOM     14  C   UNL     1      -5.002  13.607  21.046  0.00  0.00    +0.000 A 
ATOM     15  C   UNL     1      -5.867  14.574  20.510  0.00  0.00    +0.000 A 
ATOM     16  C   UNL     1      -7.248  14.480  20.717  0.00  0.00    +0.000 A 
ATOM     17  C   UNL     1      -7.772  13.439  21.481  0.00  0.00    +0.000 A 
ATOM     18  C   UNL     1      -6.916  12.510  22.067  0.00  0.00    +0.000 A 
ATOM     19  C   UNL     1      -5.535  12.602  21.865  0.00  0.00    +0.000 A 
ENDBRANCH  12  14
BRANCH  13  20
ATOM     20  N   UNL     1      -3.356  12.005  18.927  0.00  0.00    +0.000 N 
ATOM     21  C   UNL     1      -2.741  10.874  18.421  0.00  0.00    +0.000 A 
ATOM     22  C   UNL     1      -3.579  10.259  17.519  0.00  0.00    +0.000 A 
ATOM     23  C   UNL     1      -4.753  11.034  17.443  0.00  0.00    +0.000 A 
ATOM     24  C   UNL     1      -4.589  12.100  18.301  0.00  0.00    +0.000 A 
ENDBRANCH  13  20
ENDBRANCH   5   9
BRANCH   1  26
ATOM     25  N   UNL     1       2.552   7.469  17.841  0.00  0.00    +0.000 N 
ATOM     26  C   UNL     1       1.979   7.988  19.012  0.00  0.00    +0.000 C 
ATOM     27  O   UNL     1       2.320   7.729  20.161  0.00  0.00    +0.000 OA
ATOM     28  H   UNL     1       2.091   7.688  16.967  0.00  0.00    +0.000 HD
BRANCH  25  36
ATOM     29  C   UNL     1       1.984   4.506  17.768  0.00  0.00    +0.000 C 
ATOM     30  C   UNL     1       3.360   5.127  17.770  0.00  0.00    +0.000 A 
ATOM     31  C   UNL     1       4.445   4.218  17.741  0.00  0.00    +0.000 A 
ATOM     32  C   UNL     1       5.762   4.664  17.706  0.00  0.00    +0.000 A 
ATOM     33  C   UNL     1       6.009   6.027  17.670  0.00  0.00    +0.000 A 
ATOM     34 CL   UNL     1       7.633   6.594  17.601  0.00  0.00    +0.000 Cl
ATOM     35  C   UNL     1       4.953   6.942  17.691  0.00  0.00    +0.000 A 
ATOM     36  C   UNL     1       3.618   6.519  17.766  0.00  0.00    +0.000 A 
ENDBRANCH  25  36
ENDBRANCH   1  26
TORSDOF 5
ENDMDL
MODEL 8
REMARK VINA RESULT:      -7.6      1.409      1.882
REMARK  Name = 
REMARK  6 active torsions:
REMARK  status: ('A' for Active; 'I' for Inactive)
REMARK    1  A    between atoms: C_1  and  C_2
REMARK    2  A    between atoms: C_8  and  N_9
REMARK    3  A    between atoms: C_10  and  C_12
REMARK    4  A    between atoms: C_16  and  C_18
REMARK    5  A    between atoms: N_21  and  C_22
REMARK    6  A    between atoms: C_28  and  N_29
REMARK                            x       y       z     vdW  Elec       q    Type
REMARK                         _______ _______ _______ _____ _____    ______ ____
ROOT
ATOM      1  C   UNL     1       1.792   9.121  19.346  0.00  0.00    +0.000 C 
ATOM      2  C   UNL     1       1.581   8.864  20.846  0.00  0.00    +0.000 C 
ATOM      3  C   UNL     1       0.116   8.909  21.269  0.00  0.00    +0.000 C 
ATOM      4  N   UNL     1      -0.480  10.175  20.850  0.00  0.00    +0.000 N 
ATOM      5  C   UNL     1      -0.679  11.159  21.830  0.00  0.00    +0.000 C 
ATOM      6  O   UNL     1      -0.361  10.914  22.995  0.00  0.00    +0.000 OA
ATOM      7  C   UNL     1      -0.585  10.281  19.405  0.00  0.00    +0.000 C 
ATOM      8  C   UNL     1       0.781  10.120  18.719  0.00  0.00    +0.000 C 
ENDROOT
BRANCH   5   9
ATOM      9  C   UNL     1      -1.281  12.464  21.527  0.00  0.00    +0.000 A 
ATOM     10  C   UNL     1      -2.533  12.984  21.924  0.00  0.00    +0.000 A 
ATOM     11  N   UNL     1      -2.675  14.288  21.693  0.00  0.00    +0.000 NA
ATOM     12  N   UNL     1      -1.518  14.665  21.081  0.00  0.00    +0.000 N 
ATOM     13  C   UNL     1      -0.627  13.599  21.032  0.00  0.00    +0.000 A 
BRANCH  12  14
ATOM     14  C   UNL     1      -1.412  15.998  20.565  0.00  0.00    +0.000 A 
ATOM     15  C   UNL     1      -0.969  16.187  19.246  0.00  0.00    +0.000 A 
ATOM     16  C   UNL     1      -0.954  17.467  18.682  0.00  0.00    +0.000 A 
ATOM     17  C   UNL     1      -1.355  18.569  19.435  0.00  0.00    +0.000 A 
ATOM     18  C   UNL     1      -1.739  18.398  20.763  0.00  0.00    +0.000 A 
ATOM     19  C   UNL     1      -1.751  17.120  21.332  0.00  0.00    +0.000 A 
ENDBRANCH  12  14
BRANCH  13  20
ATOM     20  N   UNL     1       0.721  13.717  20.680  0.00  0.00    +0.000 N 
ATOM     21  C   UNL     1       1.279  13.425  19.448  0.00  0.00    +0.000 A 
ATOM     22  C   UNL     1       2.630  13.688  19.481  0.00  0.00    +0.000 A 
ATOM     23  C   UNL     1       2.934  14.148  20.778  0.00  0.00    +0.000 A 
ATOM     24  C   UNL     1       1.758  14.144  21.493  0.00  0.00    +0.000 A 
ENDBRANCH  13  20
ENDBRANCH   5   9
BRANCH   1  26
ATOM     25  N   UNL     1       2.522   6.765  19.292  0.00  0.00    +0.000 N 
ATOM     26  C   UNL     1       1.908   7.798  18.566  0.00  0.00    +0.000 C 
ATOM     27  O   UNL     1       1.499   7.727  17.412  0.00  0.00    +0.000 OA
ATOM     28  H   UNL     1       2.908   7.005  20.196  0.00  0.00    +0.000 HD
BRANCH  25  36
ATOM     29  C   UNL     1       1.053   4.365  20.382  0.00  0.00    +0.000 C 
ATOM     30  C   UNL     1       2.154   4.315  19.351  0.00  0.00    +0.000 A 
ATOM     31  C   UNL     1       2.502   3.024  18.885  0.00  0.00    +0.000 A 
ATOM     32  C   UNL     1       3.478   2.845  17.910  0.00  0.00    +0.000 A 
ATOM     33  C   UNL     1       4.097   3.959  17.366  0.00  0.00    +0.000 A 
ATOM     34 CL   UNL     1       5.288   3.756  16.141  0.00  0.00    +0.000 Cl
ATOM     35  C   UNL     1       3.764   5.243  17.806  0.00  0.00    +0.000 A 
ATOM     36  C   UNL     1       2.812   5.448  18.815  0.00  0.00    +0.000 A 
ENDBRANCH  25  36
ENDBRANCH   1  26
TORSDOF 5
ENDMDL
MODEL 9
REMARK VINA RESULT:      -7.6      1.496      1.747
REMARK  Name = 
REMARK  6 active torsions:
REMARK  status: ('A' for Active; 'I' for Inactive)
REMARK    1  A    between atoms: C_1  and  C_2
REMARK    2  A    between atoms: C_8  and  N_9
REMARK    3  A    between atoms: C_10  and  C_12
REMARK    4  A    between atoms: C_16  and  C_18
REMARK    5  A    between atoms: N_21  and  C_22
REMARK    6  A    between atoms: C_28  and  N_29
REMARK                            x       y       z     vdW  Elec       q    Type
REMARK                         _______ _______ _______ _____ _____    ______ ____
ROOT
ATOM      1  C   UNL     1       1.564   9.554  19.432  0.00  0.00    +0.000 C 
ATOM      2  C   UNL     1       1.537   9.141  20.911  0.00  0.00    +0.000 C 
ATOM      3  C   UNL     1       0.127   8.956  21.464  0.00  0.00    +0.000 C 
ATOM      4  N   UNL     1      -0.658  10.164  21.228  0.00  0.00    +0.000 N 
ATOM      5  C   UNL     1      -0.877  11.024  22.314  0.00  0.00    +0.000 C 
ATOM      6  O   UNL     1      -0.416  10.722  23.416  0.00  0.00    +0.000 OA
ATOM      7  C   UNL     1      -0.920  10.381  19.815  0.00  0.00    +0.000 C 
ATOM      8  C   UNL     1       0.379  10.462  18.999  0.00  0.00    +0.000 C 
ENDROOT
BRANCH   5   9
ATOM      9  C   UNL     1      -1.662  12.261  22.196  0.00  0.00    +0.000 A 
ATOM     10  C   UNL     1      -2.825  12.650  22.897  0.00  0.00    +0.000 A 
ATOM     11  N   UNL     1      -3.148  13.933  22.737  0.00  0.00    +0.000 NA
ATOM     12  N   UNL     1      -2.218  14.425  21.873  0.00  0.00    +0.000 N 
ATOM     13  C   UNL     1      -1.264  13.456  21.586  0.00  0.00    +0.000 A 
BRANCH  12  14
ATOM     14  C   UNL     1      -2.374  15.761  21.379  0.00  0.00    +0.000 A 
ATOM     15  C   UNL     1      -3.539  16.096  20.670  0.00  0.00    +0.000 A 
ATOM     16  C   UNL     1      -3.765  17.416  20.265  0.00  0.00    +0.000 A 
ATOM     17  C   UNL     1      -2.822  18.404  20.540  0.00  0.00    +0.000 A 
ATOM     18  C   UNL     1      -1.637  18.069  21.191  0.00  0.00    +0.000 A 
ATOM     19  C   UNL     1      -1.404  16.750  21.593  0.00  0.00    +0.000 A 
ENDBRANCH  12  14
BRANCH  13  20
ATOM     20  N   UNL     1      -0.060  13.711  20.920  0.00  0.00    +0.000 N 
ATOM     21  C   UNL     1       0.108  13.881  19.558  0.00  0.00    +0.000 A 
ATOM     22  C   UNL     1       1.433  14.136  19.287  0.00  0.00    +0.000 A 
ATOM     23  C   UNL     1       2.123  14.112  20.515  0.00  0.00    +0.000 A 
ATOM     24  C   UNL     1       1.194  13.838  21.494  0.00  0.00    +0.000 A 
ENDBRANCH  13  20
ENDBRANCH   5   9
BRANCH   1  26
ATOM     25  N   UNL     1       2.345   7.228  19.163  0.00  0.00    +0.000 N 
ATOM     26  C   UNL     1       1.762   8.330  18.517  0.00  0.00    +0.000 C 
ATOM     27  O   UNL     1       1.437   8.387  17.335  0.00  0.00    +0.000 OA
ATOM     28  H   UNL     1       2.661   7.368  20.114  0.00  0.00    +0.000 HD
BRANCH  25  36
ATOM     29  C   UNL     1       4.760   6.998  17.370  0.00  0.00    +0.000 C 
ATOM     30  C   UNL     1       3.805   5.874  17.689  0.00  0.00    +0.000 A 
ATOM     31  C   UNL     1       4.093   4.630  17.078  0.00  0.00    +0.000 A 
ATOM     32  C   UNL     1       3.309   3.506  17.318  0.00  0.00    +0.000 A 
ATOM     33  C   UNL     1       2.243   3.606  18.197  0.00  0.00    +0.000 A 
ATOM     34 CL   UNL     1       1.278   2.219  18.524  0.00  0.00    +0.000 Cl
ATOM     35  C   UNL     1       1.945   4.822  18.817  0.00  0.00    +0.000 A 
ATOM     36  C   UNL     1       2.696   5.979  18.562  0.00  0.00    +0.000 A 
ENDBRANCH  25  36
ENDBRANCH   1  26
TORSDOF 5
ENDMDL
