MODEL 1
REMARK VINA RESULT:      -7.6      0.000      0.000
REMARK  Name = 
REMARK  10 active torsions:
REMARK  status: ('A' for Active; 'I' for Inactive)
REMARK    1  A    between atoms: C_2  and  C_3
REMARK    2  A    between atoms: C_3  and  N_4
REMARK    3  A    between atoms: C_11  and  C_12
REMARK    4  A    between atoms: C_13  and  C_14
REMARK    5  A    between atoms: C_14  and  C_15
REMARK    6  A    between atoms: C_15  and  N_16
REMARK    7  A    between atoms: N_16  and  C_17
REMARK    8  A    between atoms: C_18  and  C_20
REMARK    9  A    between atoms: C_29  and  O_30
REMARK   10  A    between atoms: O_30  and  C_31
REMARK                            x       y       z     vdW  Elec       q    Type
REMARK                         _______ _______ _______ _____ _____    ______ ____
ROOT
ATOM      1  C   UNL     1      -1.884  11.488  19.383  0.00  0.00    +0.000 A 
ATOM      2  C   UNL     1      -0.970  10.495  18.885  0.00  0.00    +0.000 A 
ATOM      3  C   UNL     1      -1.169   9.949  17.607  0.00  0.00    +0.000 A 
ATOM      4  C   UNL     1      -2.284  10.313  16.889  0.00  0.00    +0.000 A 
ATOM      5  C   UNL     1      -3.215  11.198  17.377  0.00  0.00    +0.000 A 
ATOM      6  C   UNL     1      -3.060  11.797  18.623  0.00  0.00    +0.000 A 
ATOM      7  O   UNL     1      -4.228  11.372  16.477  0.00  0.00    +0.000 OA
ATOM      8  C   UNL     1      -3.785  10.573  15.368  0.00  0.00    +0.000 C 
ATOM      9  O   UNL     1      -2.579   9.845  15.646  0.00  0.00    +0.000 OA
ENDROOT
BRANCH   1  17
ATOM     10  N   UNL     1       0.868  14.651  20.673  0.00  0.00    +0.000 N 
ATOM     11  C   UNL     1       1.038  14.896  22.020  0.00  0.00    +0.000 C 
ATOM     12  O   UNL     1       2.037  15.419  22.513  0.00  0.00    +0.000 OA
ATOM     13  N   UNL     1       0.006  14.519  22.836  0.00  0.00    +0.000 N 
ATOM     14  C   UNL     1      -0.953  13.591  22.531  0.00  0.00    +0.000 C 
ATOM     15  O   UNL     1      -1.618  13.046  23.405  0.00  0.00    +0.000 OA
ATOM     16  C   UNL     1      -1.065  13.282  21.085  0.00  0.00    +0.000 C 
ATOM     17  C   UNL     1      -1.720  12.156  20.716  0.00  0.00    +0.000 C 
ATOM     18  C   UNL     1      -0.335  14.184  20.160  0.00  0.00    +0.000 C 
ATOM     19  O   UNL     1      -0.765  14.447  19.041  0.00  0.00    +0.000 OA
ATOM     20  H   UNL     1       0.167  14.669  23.822  0.00  0.00    +0.000 HD
BRANCH  10  21
ATOM     21  C   UNL     1       1.940  15.034  19.762  0.00  0.00    +0.000 C 
BRANCH  21  23
ATOM     22  C   UNL     1       2.433  12.921  18.494  0.00  0.00    +0.000 C 
ATOM     23  C   UNL     1       2.777  13.849  19.394  0.00  0.00    +0.000 C 
ENDBRANCH  21  23
ENDBRANCH  10  21
ENDBRANCH   1  17
BRANCH   6  24
ATOM     24  O   UNL     1      -3.948  12.677  19.194  0.00  0.00    +0.000 OA
ATOM     25  C   UNL     1      -5.244  12.198  19.539  0.00  0.00    +0.000 C 
ENDBRANCH   6  24
BRANCH   2  26
ATOM     26  C   UNL     1       0.270  10.071  19.646  0.00  0.00    +0.000 C 
BRANCH  26  27
ATOM     27  C   UNL     1       1.540   9.610  18.928  0.00  0.00    +0.000 C 
BRANCH  27  28
ATOM     28  N   UNL     1       1.909   8.227  19.188  0.00  0.00    +0.000 N 
ATOM     29  C   UNL     1       1.506   7.697  20.483  0.00  0.00    +0.000 C 
ATOM     30  C   UNL     1       2.522   7.506  18.155  0.00  0.00    +0.000 C 
ATOM     31  O   UNL     1       2.832   8.018  17.078  0.00  0.00    +0.000 OA
BRANCH  30  32
ATOM     32  C   UNL     1       2.830   6.071  18.339  0.00  0.00    +0.000 A 
ATOM     33  C   UNL     1       1.948   5.079  17.904  0.00  0.00    +0.000 A 
ATOM     34  C   UNL     1       2.240   3.735  18.130  0.00  0.00    +0.000 A 
ATOM     35  C   UNL     1       3.448   3.378  18.726  0.00  0.00    +0.000 A 
ATOM     36  C   UNL     1       4.366   4.363  19.097  0.00  0.00    +0.000 A 
ATOM     37  C   UNL     1       4.058   5.710  18.907  0.00  0.00    +0.000 A 
ENDBRANCH  30  32
ENDBRANCH  27  28
ENDBRANCH  26  27
ENDBRANCH   2  26
TORSDOF 8
ENDMDL
MODEL 2
REMARK VINA RESULT:      -7.5      0.932      1.324
REMARK  Name = 
REMARK  10 active torsions:
REMARK  status: ('A' for Active; 'I' for Inactive)
REMARK    1  A    between atoms: C_2  and  C_3
REMARK    2  A    between atoms: C_3  and  N_4
REMARK    3  A    between atoms: C_11  and  C_12
REMARK    4  A    between atoms: C_13  and  C_14
REMARK    5  A    between atoms: C_14  and  C_15
REMARK    6  A    between atoms: C_15  and  N_16
REMARK    7  A    between atoms: N_16  and  C_17
REMARK    8  A    between atoms: C_18  and  C_20
REMARK    9  A    between atoms: C_29  and  O_30
REMARK   10  A    between atoms: O_30  and  C_31
REMARK                            x       y       z     vdW  Elec       q    Type
REMARK                         _______ _______ _______ _____ _____    ______ ____
ROOT
ATOM      1  C   UNL     1      -1.717  11.490  19.293  0.00  0.00    +0.000 A 
ATOM      2  C   UNL     1      -0.717  10.622  18.732  0.00  0.00    +0.000 A 
ATOM      3  C   UNL     1      -0.927  10.050  17.466  0.00  0.00    +0.000 A 
ATOM      4  C   UNL     1      -2.124  10.266  16.825  0.00  0.00    +0.000 A 
ATOM      5  C   UNL     1      -3.128  11.024  17.377  0.00  0.00    +0.000 A 
ATOM      6  C   UNL     1      -2.970  11.642  18.614  0.00  0.00    +0.000 A 
ATOM      7  O   UNL     1      -4.212  11.063  16.547  0.00  0.00    +0.000 OA
ATOM      8  C   UNL     1      -3.742  10.324  15.406  0.00  0.00    +0.000 C 
ATOM      9  O   UNL     1      -2.437   9.759  15.601  0.00  0.00    +0.000 OA
ENDROOT
BRANCH   1  17
ATOM     10  N   UNL     1       1.052  14.655  20.544  0.00  0.00    +0.000 N 
ATOM     11  C   UNL     1       1.218  14.920  21.888  0.00  0.00    +0.000 C 
ATOM     12  O   UNL     1       2.218  15.444  22.376  0.00  0.00    +0.000 OA
ATOM     13  N   UNL     1       0.180  14.563  22.706  0.00  0.00    +0.000 N 
ATOM     14  C   UNL     1      -0.784  13.636  22.411  0.00  0.00    +0.000 C 
ATOM     15  O   UNL     1      -1.456  13.110  23.291  0.00  0.00    +0.000 OA
ATOM     16  C   UNL     1      -0.892  13.305  20.971  0.00  0.00    +0.000 C 
ATOM     17  C   UNL     1      -1.553  12.178  20.617  0.00  0.00    +0.000 C 
ATOM     18  C   UNL     1      -0.153  14.187  20.034  0.00  0.00    +0.000 C 
ATOM     19  O   UNL     1      -0.577  14.436  18.909  0.00  0.00    +0.000 OA
ATOM     20  H   UNL     1       0.338  14.727  23.690  0.00  0.00    +0.000 HD
BRANCH  10  21
ATOM     21  C   UNL     1       2.130  15.016  19.632  0.00  0.00    +0.000 C 
BRANCH  21  23
ATOM     22  C   UNL     1       2.719  13.094  18.124  0.00  0.00    +0.000 C 
ATOM     23  C   UNL     1       2.922  13.809  19.236  0.00  0.00    +0.000 C 
ENDBRANCH  21  23
ENDBRANCH  10  21
ENDBRANCH   1  17
BRANCH   6  24
ATOM     24  O   UNL     1      -3.925  12.402  19.246  0.00  0.00    +0.000 OA
ATOM     25  C   UNL     1      -5.206  11.823  19.472  0.00  0.00    +0.000 C 
ENDBRANCH   6  24
BRANCH   2  26
ATOM     26  C   UNL     1       0.615  10.364  19.408  0.00  0.00    +0.000 C 
BRANCH  26  27
ATOM     27  C   UNL     1       0.928   9.032  20.093  0.00  0.00    +0.000 C 
BRANCH  27  28
ATOM     28  N   UNL     1       1.740   8.123  19.298  0.00  0.00    +0.000 N 
ATOM     29  C   UNL     1       2.316   8.687  18.085  0.00  0.00    +0.000 C 
ATOM     30  C   UNL     1       1.976   6.839  19.805  0.00  0.00    +0.000 C 
ATOM     31  O   UNL     1       1.458   6.428  20.846  0.00  0.00    +0.000 OA
BRANCH  30  32
ATOM     32  C   UNL     1       2.872   5.912  19.080  0.00  0.00    +0.000 A 
ATOM     33  C   UNL     1       4.225   5.806  19.409  0.00  0.00    +0.000 A 
ATOM     34  C   UNL     1       5.058   4.959  18.680  0.00  0.00    +0.000 A 
ATOM     35  C   UNL     1       4.524   4.163  17.668  0.00  0.00    +0.000 A 
ATOM     36  C   UNL     1       3.158   4.212  17.385  0.00  0.00    +0.000 A 
ATOM     37  C   UNL     1       2.330   5.087  18.087  0.00  0.00    +0.000 A 
ENDBRANCH  30  32
ENDBRANCH  27  28
ENDBRANCH  26  27
ENDBRANCH   2  26
TORSDOF 8
ENDMDL
MODEL 3
REMARK VINA RESULT:      -7.2      2.400      4.849
REMARK  Name = 
REMARK  10 active torsions:
REMARK  status: ('A' for Active; 'I' for Inactive)
REMARK    1  A    between atoms: C_2  and  C_3
REMARK    2  A    between atoms: C_3  and  N_4
REMARK    3  A    between atoms: C_11  and  C_12
REMARK    4  A    between atoms: C_13  and  C_14
REMARK    5  A    between atoms: C_14  and  C_15
REMARK    6  A    between atoms: C_15  and  N_16
REMARK    7  A    between atoms: N_16  and  C_17
REMARK    8  A    between atoms: C_18  and  C_20
REMARK    9  A    between atoms: C_29  and  O_30
REMARK   10  A    between atoms: O_30  and  C_31
REMARK                            x       y       z     vdW  Elec       q    Type
REMARK                         _______ _______ _______ _____ _____    ______ ____
ROOT
ATOM      1  C   UNL     1       1.479  12.366  20.384  0.00  0.00    +0.000 A 
ATOM      2  C   UNL     1       1.675  11.834  19.062  0.00  0.00    +0.000 A 
ATOM      3  C   UNL     1       2.381  12.587  18.110  0.00  0.00    +0.000 A 
ATOM      4  C   UNL     1       2.798  13.856  18.436  0.00  0.00    +0.000 A 
ATOM      5  C   UNL     1       2.552  14.418  19.665  0.00  0.00    +0.000 A 
ATOM      6  C   UNL     1       1.884  13.713  20.661  0.00  0.00    +0.000 A 
ATOM      7  O   UNL     1       3.055  15.687  19.722  0.00  0.00    +0.000 OA
ATOM      8  C   UNL     1       3.697  15.813  18.442  0.00  0.00    +0.000 C 
ATOM      9  O   UNL     1       3.485  14.675  17.592  0.00  0.00    +0.000 OA
ENDROOT
BRANCH   1  17
ATOM     10  N   UNL     1      -2.605  12.732  21.944  0.00  0.00    +0.000 N 
ATOM     11  C   UNL     1      -2.930  12.134  23.144  0.00  0.00    +0.000 C 
ATOM     12  O   UNL     1      -3.852  12.494  23.875  0.00  0.00    +0.000 OA
ATOM     13  N   UNL     1      -2.152  11.073  23.520  0.00  0.00    +0.000 N 
ATOM     14  C   UNL     1      -0.887  10.811  23.063  0.00  0.00    +0.000 C 
ATOM     15  O   UNL     1      -0.124  10.077  23.680  0.00  0.00    +0.000 OA
ATOM     16  C   UNL     1      -0.529  11.525  21.815  0.00  0.00    +0.000 C 
ATOM     17  C   UNL     1       0.778  11.610  21.474  0.00  0.00    +0.000 C 
ATOM     18  C   UNL     1      -1.641  12.198  21.098  0.00  0.00    +0.000 C 
ATOM     19  O   UNL     1      -1.661  12.286  19.874  0.00  0.00    +0.000 OA
ATOM     20  H   UNL     1      -2.379  10.676  24.420  0.00  0.00    +0.000 HD
BRANCH  10  21
ATOM     21  C   UNL     1      -3.404  13.867  21.501  0.00  0.00    +0.000 C 
BRANCH  21  23
ATOM     22  C   UNL     1      -5.033  12.957  19.817  0.00  0.00    +0.000 C 
ATOM     23  C   UNL     1      -4.757  13.421  21.041  0.00  0.00    +0.000 C 
ENDBRANCH  21  23
ENDBRANCH  10  21
ENDBRANCH   1  17
BRANCH   6  24
ATOM     24  O   UNL     1       1.581  14.202  21.910  0.00  0.00    +0.000 OA
ATOM     25  C   UNL     1       0.530  15.157  22.022  0.00  0.00    +0.000 C 
ENDBRANCH   6  24
BRANCH   2  26
ATOM     26  C   UNL     1       1.231  10.440  18.668  0.00  0.00    +0.000 C 
BRANCH  26  27
ATOM     27  C   UNL     1       1.476   9.228  19.570  0.00  0.00    +0.000 C 
BRANCH  27  28
ATOM     28  N   UNL     1       2.098   8.096  18.902  0.00  0.00    +0.000 N 
ATOM     29  C   UNL     1       2.739   8.388  17.627  0.00  0.00    +0.000 C 
ATOM     30  C   UNL     1       2.116   6.866  19.571  0.00  0.00    +0.000 C 
ATOM     31  O   UNL     1       1.555   6.689  20.655  0.00  0.00    +0.000 OA
BRANCH  30  32
ATOM     32  C   UNL     1       2.819   5.710  18.974  0.00  0.00    +0.000 A 
ATOM     33  C   UNL     1       4.146   5.421  19.300  0.00  0.00    +0.000 A 
ATOM     34  C   UNL     1       4.801   4.354  18.689  0.00  0.00    +0.000 A 
ATOM     35  C   UNL     1       4.107   3.529  17.805  0.00  0.00    +0.000 A 
ATOM     36  C   UNL     1       2.759   3.770  17.532  0.00  0.00    +0.000 A 
ATOM     37  C   UNL     1       2.113   4.861  18.112  0.00  0.00    +0.000 A 
ENDBRANCH  30  32
ENDBRANCH  27  28
ENDBRANCH  26  27
ENDBRANCH   2  26
TORSDOF 8
ENDMDL
MODEL 4
REMARK VINA RESULT:      -7.0      1.052      1.370
REMARK  Name = 
REMARK  10 active torsions:
REMARK  status: ('A' for Active; 'I' for Inactive)
REMARK    1  A    between atoms: C_2  and  C_3
REMARK    2  A    between atoms: C_3  and  N_4
REMARK    3  A    between atoms: C_11  and  C_12
REMARK    4  A    between atoms: C_13  and  C_14
REMARK    5  A    between atoms: C_14  and  C_15
REMARK    6  A    between atoms: C_15  and  N_16
REMARK    7  A    between atoms: N_16  and  C_17
REMARK    8  A    between atoms: C_18  and  C_20
REMARK    9  A    between atoms: C_29  and  O_30
REMARK   10  A    between atoms: O_30  and  C_31
REMARK                            x       y       z     vdW  Elec       q    Type
REMARK                         _______ _______ _______ _____ _____    ______ ____
ROOT
ATOM      1  C   UNL     1      -1.920  11.390  19.370  0.00  0.00    +0.000 A 
ATOM      2  C   UNL     1      -0.975  10.396  18.938  0.00  0.00    +0.000 A 
ATOM      3  C   UNL     1      -1.102   9.829  17.659  0.00  0.00    +0.000 A 
ATOM      4  C   UNL     1      -2.179  10.176  16.877  0.00  0.00    +0.000 A 
ATOM      5  C   UNL     1      -3.140  11.062  17.300  0.00  0.00    +0.000 A 
ATOM      6  C   UNL     1      -3.055  11.681  18.543  0.00  0.00    +0.000 A 
ATOM      7  O   UNL     1      -4.104  11.217  16.344  0.00  0.00    +0.000 OA
ATOM      8  C   UNL     1      -3.597  10.403  15.273  0.00  0.00    +0.000 C 
ATOM      9  O   UNL     1      -2.404   9.687  15.627  0.00  0.00    +0.000 OA
ENDROOT
BRANCH   1  17
ATOM     10  N   UNL     1       0.715  14.618  20.744  0.00  0.00    +0.000 N 
ATOM     11  C   UNL     1       0.815  14.885  22.093  0.00  0.00    +0.000 C 
ATOM     12  O   UNL     1       1.780  15.431  22.626  0.00  0.00    +0.000 OA
ATOM     13  N   UNL     1      -0.248  14.501  22.865  0.00  0.00    +0.000 N 
ATOM     14  C   UNL     1      -1.176  13.552  22.528  0.00  0.00    +0.000 C 
ATOM     15  O   UNL     1      -1.873  13.009  23.377  0.00  0.00    +0.000 OA
ATOM     16  C   UNL     1      -1.213  13.222  21.083  0.00  0.00    +0.000 C 
ATOM     17  C   UNL     1      -1.831  12.080  20.700  0.00  0.00    +0.000 C 
ATOM     18  C   UNL     1      -0.455  14.123  20.181  0.00  0.00    +0.000 C 
ATOM     19  O   UNL     1      -0.835  14.363  19.039  0.00  0.00    +0.000 OA
ATOM     20  H   UNL     1      -0.137  14.667  23.855  0.00  0.00    +0.000 HD
BRANCH  10  21
ATOM     21  C   UNL     1       1.823  15.007  19.880  0.00  0.00    +0.000 C 
BRANCH  21  23
ATOM     22  C   UNL     1       2.345  13.005  18.453  0.00  0.00    +0.000 C 
ATOM     23  C   UNL     1       2.632  13.813  19.479  0.00  0.00    +0.000 C 
ENDBRANCH  21  23
ENDBRANCH  10  21
ENDBRANCH   1  17
BRANCH   6  24
ATOM     24  O   UNL     1      -3.977  12.564  19.052  0.00  0.00    +0.000 OA
ATOM     25  C   UNL     1      -5.270  12.070  19.388  0.00  0.00    +0.000 C 
ENDBRANCH   6  24
BRANCH   2  26
ATOM     26  C   UNL     1       0.224   9.990  19.771  0.00  0.00    +0.000 C 
BRANCH  26  27
ATOM     27  C   UNL     1       1.578   9.669  19.134  0.00  0.00    +0.000 C 
BRANCH  27  28
ATOM     28  N   UNL     1       1.856   8.248  18.997  0.00  0.00    +0.000 N 
ATOM     29  C   UNL     1       2.142   7.787  17.645  0.00  0.00    +0.000 C 
ATOM     30  C   UNL     1       1.921   7.475  20.163  0.00  0.00    +0.000 C 
ATOM     31  O   UNL     1       1.671   7.933  21.280  0.00  0.00    +0.000 OA
BRANCH  30  32
ATOM     32  C   UNL     1       2.293   6.046  20.083  0.00  0.00    +0.000 A 
ATOM     33  C   UNL     1       3.521   5.645  19.553  0.00  0.00    +0.000 A 
ATOM     34  C   UNL     1       3.829   4.290  19.446  0.00  0.00    +0.000 A 
ATOM     35  C   UNL     1       2.939   3.336  19.934  0.00  0.00    +0.000 A 
ATOM     36  C   UNL     1       1.741   3.735  20.532  0.00  0.00    +0.000 A 
ATOM     37  C   UNL     1       1.414   5.088  20.604  0.00  0.00    +0.000 A 
ENDBRANCH  30  32
ENDBRANCH  27  28
ENDBRANCH  26  27
ENDBRANCH   2  26
TORSDOF 8
ENDMDL
MODEL 5
REMARK VINA RESULT:      -7.0      1.275      1.324
REMARK  Name = 
REMARK  10 active torsions:
REMARK  status: ('A' for Active; 'I' for Inactive)
REMARK    1  A    between atoms: C_2  and  C_3
REMARK    2  A    between atoms: C_3  and  N_4
REMARK    3  A    between atoms: C_11  and  C_12
REMARK    4  A    between atoms: C_13  and  C_14
REMARK    5  A    between atoms: C_14  and  C_15
REMARK    6  A    between atoms: C_15  and  N_16
REMARK    7  A    between atoms: N_16  and  C_17
REMARK    8  A    between atoms: C_18  and  C_20
REMARK    9  A    between atoms: C_29  and  O_30
REMARK   10  A    between atoms: O_30  and  C_31
REMARK                            x       y       z     vdW  Elec       q    Type
REMARK                         _______ _______ _______ _____ _____    ______ ____
ROOT
ATOM      1  C   UNL     1      -1.192  11.546  19.323  0.00  0.00    +0.000 A 
ATOM      2  C   UNL     1      -0.398  10.471  18.793  0.00  0.00    +0.000 A 
ATOM      3  C   UNL     1      -0.803   9.829  17.610  0.00  0.00    +0.000 A 
ATOM      4  C   UNL     1      -1.996  10.188  17.029  0.00  0.00    +0.000 A 
ATOM      5  C   UNL     1      -2.812  11.156  17.562  0.00  0.00    +0.000 A 
ATOM      6  C   UNL     1      -2.454  11.849  18.714  0.00  0.00    +0.000 A 
ATOM      7  O   UNL     1      -3.939  11.305  16.804  0.00  0.00    +0.000 OA
ATOM      8  C   UNL     1      -3.693  10.394  15.720  0.00  0.00    +0.000 C 
ATOM      9  O   UNL     1      -2.488   9.632  15.888  0.00  0.00    +0.000 OA
ENDROOT
BRANCH   1  17
ATOM     10  N   UNL     1       1.469  14.998  19.822  0.00  0.00    +0.000 N 
ATOM     11  C   UNL     1       1.899  15.348  21.085  0.00  0.00    +0.000 C 
ATOM     12  O   UNL     1       2.928  15.981  21.321  0.00  0.00    +0.000 OA
ATOM     13  N   UNL     1       1.105  14.947  22.125  0.00  0.00    +0.000 N 
ATOM     14  C   UNL     1       0.192  13.927  22.083  0.00  0.00    +0.000 C 
ATOM     15  O   UNL     1      -0.218  13.392  23.107  0.00  0.00    +0.000 OA
ATOM     16  C   UNL     1      -0.197  13.512  20.715  0.00  0.00    +0.000 C 
ATOM     17  C   UNL     1      -0.808  12.315  20.554  0.00  0.00    +0.000 C 
ATOM     18  C   UNL     1       0.232  14.403  19.608  0.00  0.00    +0.000 C 
ATOM     19  O   UNL     1      -0.449  14.554  18.599  0.00  0.00    +0.000 OA
ATOM     20  H   UNL     1       1.458  15.176  23.043  0.00  0.00    +0.000 HD
BRANCH  10  21
ATOM     21  C   UNL     1       2.282  15.403  18.681  0.00  0.00    +0.000 C 
BRANCH  21  23
ATOM     22  C   UNL     1       4.602  14.536  18.255  0.00  0.00    +0.000 C 
ATOM     23  C   UNL     1       3.281  14.343  18.335  0.00  0.00    +0.000 C 
ENDBRANCH  21  23
ENDBRANCH  10  21
ENDBRANCH   1  17
BRANCH   6  24
ATOM     24  O   UNL     1      -3.215  12.818  19.325  0.00  0.00    +0.000 OA
ATOM     25  C   UNL     1      -4.430  12.423  19.953  0.00  0.00    +0.000 C 
ENDBRANCH   6  24
BRANCH   2  26
ATOM     26  C   UNL     1       0.923  10.050  19.404  0.00  0.00    +0.000 C 
BRANCH  26  27
ATOM     27  C   UNL     1       1.796   8.964  18.772  0.00  0.00    +0.000 C 
BRANCH  27  28
ATOM     28  N   UNL     1       1.902   7.744  19.558  0.00  0.00    +0.000 N 
ATOM     29  C   UNL     1       1.457   7.842  20.941  0.00  0.00    +0.000 C 
ATOM     30  C   UNL     1       2.322   6.577  18.907  0.00  0.00    +0.000 C 
ATOM     31  O   UNL     1       2.682   6.565  17.728  0.00  0.00    +0.000 OA
BRANCH  30  32
ATOM     32  C   UNL     1       2.355   5.293  19.641  0.00  0.00    +0.000 A 
ATOM     33  C   UNL     1       1.204   4.764  20.228  0.00  0.00    +0.000 A 
ATOM     34  C   UNL     1       1.270   3.577  20.954  0.00  0.00    +0.000 A 
ATOM     35  C   UNL     1       2.474   2.878  21.032  0.00  0.00    +0.000 A 
ATOM     36  C   UNL     1       3.611   3.365  20.384  0.00  0.00    +0.000 A 
ATOM     37  C   UNL     1       3.556   4.574  19.691  0.00  0.00    +0.000 A 
ENDBRANCH  30  32
ENDBRANCH  27  28
ENDBRANCH  26  27
ENDBRANCH   2  26
TORSDOF 8
ENDMDL
MODEL 6
REMARK VINA RESULT:      -6.9      2.508      4.689
REMARK  Name = 
REMARK  10 active torsions:
REMARK  status: ('A' for Active; 'I' for Inactive)
REMARK    1  A    between atoms: C_2  and  C_3
REMARK    2  A    between atoms: C_3  and  N_4
REMARK    3  A    between atoms: C_11  and  C_12
REMARK    4  A    between atoms: C_13  and  C_14
REMARK    5  A    between atoms: C_14  and  C_15
REMARK    6  A    between atoms: C_15  and  N_16
REMARK    7  A    between atoms: N_16  and  C_17
REMARK    8  A    between atoms: C_18  and  C_20
REMARK    9  A    between atoms: C_29  and  O_30
REMARK   10  A    between atoms: O_30  and  C_31
REMARK                            x       y       z     vdW  Elec       q    Type
REMARK                         _______ _______ _______ _____ _____    ______ ____
ROOT
ATOM      1  C   UNL     1       1.356  12.381  20.505  0.00  0.00    +0.000 A 
ATOM      2  C   UNL     1       1.589  11.804  19.209  0.00  0.00    +0.000 A 
ATOM      3  C   UNL     1       2.439  12.458  18.302  0.00  0.00    +0.000 A 
ATOM      4  C   UNL     1       2.966  13.682  18.643  0.00  0.00    +0.000 A 
ATOM      5  C   UNL     1       2.693  14.292  19.842  0.00  0.00    +0.000 A 
ATOM      6  C   UNL     1       1.883  13.682  20.795  0.00  0.00    +0.000 A 
ATOM      7  O   UNL     1       3.325  15.501  19.921  0.00  0.00    +0.000 OA
ATOM      8  C   UNL     1       4.068  15.531  18.691  0.00  0.00    +0.000 C 
ATOM      9  O   UNL     1       3.796  14.405  17.842  0.00  0.00    +0.000 OA
ENDROOT
BRANCH   1  17
ATOM     10  N   UNL     1      -2.809  13.125  21.664  0.00  0.00    +0.000 N 
ATOM     11  C   UNL     1      -3.289  12.604  22.848  0.00  0.00    +0.000 C 
ATOM     12  O   UNL     1      -4.242  13.063  23.477  0.00  0.00    +0.000 OA
ATOM     13  N   UNL     1      -2.636  11.502  23.329  0.00  0.00    +0.000 N 
ATOM     14  C   UNL     1      -1.361  11.124  23.002  0.00  0.00    +0.000 C 
ATOM     15  O   UNL     1      -0.719  10.358  23.712  0.00  0.00    +0.000 OA
ATOM     16  C   UNL     1      -0.835  11.757  21.770  0.00  0.00    +0.000 C 
ATOM     17  C   UNL     1       0.500  11.726  21.550  0.00  0.00    +0.000 C 
ATOM     18  C   UNL     1      -1.819  12.485  20.930  0.00  0.00    +0.000 C 
ATOM     19  O   UNL     1      -1.721  12.524  19.707  0.00  0.00    +0.000 OA
ATOM     20  H   UNL     1      -2.976  11.161  24.218  0.00  0.00    +0.000 HD
BRANCH  10  21
ATOM     21  C   UNL     1      -3.471  14.300  21.111  0.00  0.00    +0.000 C 
BRANCH  21  23
ATOM     22  C   UNL     1      -2.425  16.512  20.534  0.00  0.00    +0.000 C 
ATOM     23  C   UNL     1      -2.694  15.544  21.416  0.00  0.00    +0.000 C 
ENDBRANCH  21  23
ENDBRANCH  10  21
ENDBRANCH   1  17
BRANCH   6  24
ATOM     24  O   UNL     1       1.544  14.227  22.012  0.00  0.00    +0.000 OA
ATOM     25  C   UNL     1       0.779  15.427  22.023  0.00  0.00    +0.000 C 
ENDBRANCH   6  24
BRANCH   2  26
ATOM     26  C   UNL     1       1.027  10.457  18.800  0.00  0.00    +0.000 C 
BRANCH  26  27
ATOM     27  C   UNL     1       1.332   9.182  19.589  0.00  0.00    +0.000 C 
BRANCH  27  28
ATOM     28  N   UNL     1       1.947   8.122  18.804  0.00  0.00    +0.000 N 
ATOM     29  C   UNL     1       2.430   8.510  17.486  0.00  0.00    +0.000 C 
ATOM     30  C   UNL     1       2.110   6.869  19.407  0.00  0.00    +0.000 C 
ATOM     31  O   UNL     1       1.679   6.609  20.533  0.00  0.00    +0.000 OA
BRANCH  30  32
ATOM     32  C   UNL     1       2.815   5.787  18.684  0.00  0.00    +0.000 A 
ATOM     33  C   UNL     1       2.110   4.783  18.018  0.00  0.00    +0.000 A 
ATOM     34  C   UNL     1       2.797   3.749  17.383  0.00  0.00    +0.000 A 
ATOM     35  C   UNL     1       4.190   3.758  17.353  0.00  0.00    +0.000 A 
ATOM     36  C   UNL     1       4.898   4.800  17.955  0.00  0.00    +0.000 A 
ATOM     37  C   UNL     1       4.213   5.814  18.624  0.00  0.00    +0.000 A 
ENDBRANCH  30  32
ENDBRANCH  27  28
ENDBRANCH  26  27
ENDBRANCH   2  26
TORSDOF 8
ENDMDL
MODEL 7
REMARK VINA RESULT:      -6.8      3.706      9.879
REMARK  Name = 
REMARK  10 active torsions:
REMARK  status: ('A' for Active; 'I' for Inactive)
REMARK    1  A    between atoms: C_2  and  C_3
REMARK    2  A    between atoms: C_3  and  N_4
REMARK    3  A    between atoms: C_11  and  C_12
REMARK    4  A    between atoms: C_13  and  C_14
REMARK    5  A    between atoms: C_14  and  C_15
REMARK    6  A    between atoms: C_15  and  N_16
REMARK    7  A    between atoms: N_16  and  C_17
REMARK    8  A    between atoms: C_18  and  C_20
REMARK    9  A    between atoms: C_29  and  O_30
REMARK   10  A    between atoms: O_30  and  C_31
REMARK                            x       y       z     vdW  Elec       q    Type
REMARK                         _______ _______ _______ _____ _____    ______ ____
ROOT
ATOM      1  C   UNL     1       3.031   3.973  18.091  0.00  0.00    +0.000 A 
ATOM      2  C   UNL     1       2.452   5.168  18.642  0.00  0.00    +0.000 A 
ATOM      3  C   UNL     1       1.824   5.119  19.898  0.00  0.00    +0.000 A 
ATOM      4  C   UNL     1       1.702   3.908  20.537  0.00  0.00    +0.000 A 
ATOM      5  C   UNL     1       2.174   2.738  19.994  0.00  0.00    +0.000 A 
ATOM      6  C   UNL     1       2.832   2.724  18.768  0.00  0.00    +0.000 A 
ATOM      7  O   UNL     1       1.909   1.683  20.821  0.00  0.00    +0.000 OA
ATOM      8  C   UNL     1       1.303   2.333  21.950  0.00  0.00    +0.000 C 
ATOM      9  O   UNL     1       1.109   3.742  21.752  0.00  0.00    +0.000 OA
ENDROOT
BRANCH   1  17
ATOM     10  N   UNL     1       6.984   5.524  16.988  0.00  0.00    +0.000 N 
ATOM     11  C   UNL     1       7.317   5.648  15.656  0.00  0.00    +0.000 C 
ATOM     12  O   UNL     1       8.165   6.425  15.218  0.00  0.00    +0.000 OA
ATOM     13  N   UNL     1       6.639   4.837  14.787  0.00  0.00    +0.000 N 
ATOM     14  C   UNL     1       5.430   4.242  15.030  0.00  0.00    +0.000 C 
ATOM     15  O   UNL     1       4.722   3.834  14.117  0.00  0.00    +0.000 OA
ATOM     16  C   UNL     1       5.053   4.191  16.463  0.00  0.00    +0.000 C 
ATOM     17  C   UNL     1       3.760   3.947  16.780  0.00  0.00    +0.000 C 
ATOM     18  C   UNL     1       6.118   4.535  17.437  0.00  0.00    +0.000 C 
ATOM     19  O   UNL     1       6.181   4.001  18.541  0.00  0.00    +0.000 OA
ATOM     20  H   UNL     1       6.868   4.972  13.812  0.00  0.00    +0.000 HD
BRANCH  10  21
ATOM     21  C   UNL     1       7.678   6.368  17.954  0.00  0.00    +0.000 C 
BRANCH  21  23
ATOM     22  C   UNL     1       8.240   8.816  18.037  0.00  0.00    +0.000 C 
ATOM     23  C   UNL     1       7.429   7.817  17.672  0.00  0.00    +0.000 C 
ENDBRANCH  21  23
ENDBRANCH  10  21
ENDBRANCH   1  17
BRANCH   6  24
ATOM     24  O   UNL     1       3.321   1.601  18.144  0.00  0.00    +0.000 OA
ATOM     25  C   UNL     1       4.394   0.899  18.763  0.00  0.00    +0.000 C 
ENDBRANCH   6  24
BRANCH   2  26
ATOM     26  C   UNL     1       2.569   6.520  17.968  0.00  0.00    +0.000 C 
BRANCH  26  27
ATOM     27  C   UNL     1       2.958   7.780  18.745  0.00  0.00    +0.000 C 
BRANCH  27  28
ATOM     28  N   UNL     1       1.831   8.599  19.164  0.00  0.00    +0.000 N 
ATOM     29  C   UNL     1       1.298   8.311  20.489  0.00  0.00    +0.000 C 
ATOM     30  C   UNL     1       1.424   9.639  18.319  0.00  0.00    +0.000 C 
ATOM     31  O   UNL     1       1.925   9.830  17.209  0.00  0.00    +0.000 OA
BRANCH  30  32
ATOM     32  C   UNL     1       0.345  10.557  18.744  0.00  0.00    +0.000 A 
ATOM     33  C   UNL     1       0.619  11.687  19.518  0.00  0.00    +0.000 A 
ATOM     34  C   UNL     1      -0.420  12.512  19.945  0.00  0.00    +0.000 A 
ATOM     35  C   UNL     1      -1.727  12.247  19.538  0.00  0.00    +0.000 A 
ATOM     36  C   UNL     1      -1.996  11.160  18.704  0.00  0.00    +0.000 A 
ATOM     37  C   UNL     1      -0.962  10.312  18.308  0.00  0.00    +0.000 A 
ENDBRANCH  30  32
ENDBRANCH  27  28
ENDBRANCH  26  27
ENDBRANCH   2  26
TORSDOF 8
ENDMDL
MODEL 8
REMARK VINA RESULT:      -6.7      1.233      1.498
REMARK  Name = 
REMARK  10 active torsions:
REMARK  status: ('A' for Active; 'I' for Inactive)
REMARK    1  A    between atoms: C_2  and  C_3
REMARK    2  A    between atoms: C_3  and  N_4
REMARK    3  A    between atoms: C_11  and  C_12
REMARK    4  A    between atoms: C_13  and  C_14
REMARK    5  A    between atoms: C_14  and  C_15
REMARK    6  A    between atoms: C_15  and  N_16
REMARK    7  A    between atoms: N_16  and  C_17
REMARK    8  A    between atoms: C_18  and  C_20
REMARK    9  A    between atoms: C_29  and  O_30
REMARK   10  A    between atoms: O_30  and  C_31
REMARK                            x       y       z     vdW  Elec       q    Type
REMARK                         _______ _______ _______ _____ _____    ______ ____
ROOT
ATOM      1  C   UNL     1      -1.402  11.597  19.382  0.00  0.00    +0.000 A 
ATOM      2  C   UNL     1      -0.580  10.519  18.901  0.00  0.00    +0.000 A 
ATOM      3  C   UNL     1      -0.929   9.860  17.710  0.00  0.00    +0.000 A 
ATOM      4  C   UNL     1      -2.097  10.204  17.072  0.00  0.00    +0.000 A 
ATOM      5  C   UNL     1      -2.941  11.174  17.556  0.00  0.00    +0.000 A 
ATOM      6  C   UNL     1      -2.638  11.884  18.713  0.00  0.00    +0.000 A 
ATOM      7  O   UNL     1      -4.033  11.307  16.746  0.00  0.00    +0.000 OA
ATOM      8  C   UNL     1      -3.735  10.383  15.686  0.00  0.00    +0.000 C 
ATOM      9  O   UNL     1      -2.534   9.630  15.918  0.00  0.00    +0.000 OA
ENDROOT
BRANCH   1  17
ATOM     10  N   UNL     1       1.623  14.695  20.085  0.00  0.00    +0.000 N 
ATOM     11  C   UNL     1       1.930  15.063  21.378  0.00  0.00    +0.000 C 
ATOM     12  O   UNL     1       2.997  15.569  21.724  0.00  0.00    +0.000 OA
ATOM     13  N   UNL     1       0.961  14.835  22.317  0.00  0.00    +0.000 N 
ATOM     14  C   UNL     1      -0.070  13.942  22.196  0.00  0.00    +0.000 C 
ATOM     15  O   UNL     1      -0.679  13.531  23.178  0.00  0.00    +0.000 OA
ATOM     16  C   UNL     1      -0.333  13.498  20.807  0.00  0.00    +0.000 C 
ATOM     17  C   UNL     1      -1.078  12.384  20.618  0.00  0.00    +0.000 C 
ATOM     18  C   UNL     1       0.354  14.255  19.731  0.00  0.00    +0.000 C 
ATOM     19  O   UNL     1      -0.165  14.431  18.633  0.00  0.00    +0.000 OA
ATOM     20  H   UNL     1       1.221  15.073  23.264  0.00  0.00    +0.000 HD
BRANCH  10  21
ATOM     21  C   UNL     1       2.624  14.918  19.048  0.00  0.00    +0.000 C 
BRANCH  21  23
ATOM     22  C   UNL     1       2.796  16.807  17.400  0.00  0.00    +0.000 C 
ATOM     23  C   UNL     1       2.672  16.362  18.654  0.00  0.00    +0.000 C 
ENDBRANCH  21  23
ENDBRANCH  10  21
ENDBRANCH   1  17
BRANCH   6  24
ATOM     24  O   UNL     1      -3.430  12.856  19.276  0.00  0.00    +0.000 OA
ATOM     25  C   UNL     1      -4.621  12.451  19.944  0.00  0.00    +0.000 C 
ENDBRANCH   6  24
BRANCH   2  26
ATOM     26  C   UNL     1       0.714  10.114  19.576  0.00  0.00    +0.000 C 
BRANCH  26  27
ATOM     27  C   UNL     1       1.697   9.141  18.921  0.00  0.00    +0.000 C 
BRANCH  27  28
ATOM     28  N   UNL     1       1.873   7.889  19.640  0.00  0.00    +0.000 N 
ATOM     29  C   UNL     1       1.375   7.870  21.008  0.00  0.00    +0.000 C 
ATOM     30  C   UNL     1       2.406   6.799  18.941  0.00  0.00    +0.000 C 
ATOM     31  O   UNL     1       2.806   6.885  17.777  0.00  0.00    +0.000 OA
BRANCH  30  32
ATOM     32  C   UNL     1       2.517   5.480  19.601  0.00  0.00    +0.000 A 
ATOM     33  C   UNL     1       3.687   4.722  19.514  0.00  0.00    +0.000 A 
ATOM     34  C   UNL     1       3.750   3.462  20.105  0.00  0.00    +0.000 A 
ATOM     35  C   UNL     1       2.669   2.988  20.846  0.00  0.00    +0.000 A 
ATOM     36  C   UNL     1       1.524   3.774  20.998  0.00  0.00    +0.000 A 
ATOM     37  C   UNL     1       1.444   5.019  20.374  0.00  0.00    +0.000 A 
ENDBRANCH  30  32
ENDBRANCH  27  28
ENDBRANCH  26  27
ENDBRANCH   2  26
TORSDOF 8
ENDMDL
MODEL 9
REMARK VINA RESULT:      -6.7      2.463      4.869
REMARK  Name = 
REMARK  10 active torsions:
REMARK  status: ('A' for Active; 'I' for Inactive)
REMARK    1  A    between atoms: C_2  and  C_3
REMARK    2  A    between atoms: C_3  and  N_4
REMARK    3  A    between atoms: C_11  and  C_12
REMARK    4  A    between atoms: C_13  and  C_14
REMARK    5  A    between atoms: C_14  and  C_15
REMARK    6  A    between atoms: C_15  and  N_16
REMARK    7  A    between atoms: N_16  and  C_17
REMARK    8  A    between atoms: C_18  and  C_20
REMARK    9  A    between atoms: C_29  and  O_30
REMARK   10  A    between atoms: O_30  and  C_31
REMARK                            x       y       z     vdW  Elec       q    Type
REMARK                         _______ _______ _______ _____ _____    ______ ____
ROOT
ATOM      1  C   UNL     1       1.591  12.595  20.140  0.00  0.00    +0.000 A 
ATOM      2  C   UNL     1       1.758  12.145  18.784  0.00  0.00    +0.000 A 
ATOM      3  C   UNL     1       2.366  12.992  17.842  0.00  0.00    +0.000 A 
ATOM      4  C   UNL     1       2.715  14.268  18.218  0.00  0.00    +0.000 A 
ATOM      5  C   UNL     1       2.492  14.749  19.485  0.00  0.00    +0.000 A 
ATOM      6  C   UNL     1       1.921  13.951  20.471  0.00  0.00    +0.000 A 
ATOM      7  O   UNL     1       2.913  16.045  19.588  0.00  0.00    +0.000 OA
ATOM      8  C   UNL     1       3.483  16.278  18.289  0.00  0.00    +0.000 C 
ATOM      9  O   UNL     1       3.305  15.173  17.389  0.00  0.00    +0.000 OA
ENDROOT
BRANCH   1  17
ATOM     10  N   UNL     1      -2.436  12.584  21.879  0.00  0.00    +0.000 N 
ATOM     11  C   UNL     1      -2.664  11.909  23.060  0.00  0.00    +0.000 C 
ATOM     12  O   UNL     1      -3.578  12.165  23.844  0.00  0.00    +0.000 OA
ATOM     13  N   UNL     1      -1.796  10.891  23.350  0.00  0.00    +0.000 N 
ATOM     14  C   UNL     1      -0.538  10.745  22.830  0.00  0.00    +0.000 C 
ATOM     15  O   UNL     1       0.303  10.041  23.378  0.00  0.00    +0.000 OA
ATOM     16  C   UNL     1      -0.287  11.541  21.606  0.00  0.00    +0.000 C 
ATOM     17  C   UNL     1       0.995  11.738  21.218  0.00  0.00    +0.000 C 
ATOM     18  C   UNL     1      -1.474  12.164  20.969  0.00  0.00    +0.000 C 
ATOM     19  O   UNL     1      -1.554  12.308  19.753  0.00  0.00    +0.000 OA
ATOM     20  H   UNL     1      -1.955  10.437  24.238  0.00  0.00    +0.000 HD
BRANCH  10  21
ATOM     21  C   UNL     1      -3.333  13.678  21.526  0.00  0.00    +0.000 C 
BRANCH  21  23
ATOM     22  C   UNL     1      -5.331  13.658  20.001  0.00  0.00    +0.000 C 
ATOM     23  C   UNL     1      -4.646  13.153  21.032  0.00  0.00    +0.000 C 
ENDBRANCH  21  23
ENDBRANCH  10  21
ENDBRANCH   1  17
BRANCH   6  24
ATOM     24  O   UNL     1       1.646  14.354  21.756  0.00  0.00    +0.000 OA
ATOM     25  C   UNL     1       2.536  15.276  22.377  0.00  0.00    +0.000 C 
ENDBRANCH   6  24
BRANCH   2  26
ATOM     26  C   UNL     1       1.388  10.746  18.335  0.00  0.00    +0.000 C 
BRANCH  26  27
ATOM     27  C   UNL     1       2.447   9.666  18.101  0.00  0.00    +0.000 C 
BRANCH  27  28
ATOM     28  N   UNL     1       2.151   8.388  18.730  0.00  0.00    +0.000 N 
ATOM     29  C   UNL     1       1.167   8.424  19.803  0.00  0.00    +0.000 C 
ATOM     30  C   UNL     1       2.749   7.239  18.196  0.00  0.00    +0.000 C 
ATOM     31  O   UNL     1       3.573   7.281  17.280  0.00  0.00    +0.000 OA
BRANCH  30  32
ATOM     32  C   UNL     1       2.407   5.907  18.740  0.00  0.00    +0.000 A 
ATOM     33  C   UNL     1       1.814   4.928  17.940  0.00  0.00    +0.000 A 
ATOM     34  C   UNL     1       1.458   3.697  18.488  0.00  0.00    +0.000 A 
ATOM     35  C   UNL     1       1.760   3.417  19.819  0.00  0.00    +0.000 A 
ATOM     36  C   UNL     1       2.420   4.366  20.604  0.00  0.00    +0.000 A 
ATOM     37  C   UNL     1       2.741   5.613  20.068  0.00  0.00    +0.000 A 
ENDBRANCH  30  32
ENDBRANCH  27  28
ENDBRANCH  26  27
ENDBRANCH   2  26
TORSDOF 8
ENDMDL
