MODEL 1
REMARK VINA RESULT:      -7.0      0.000      0.000
REMARK  Name = 
REMARK  5 active torsions:
REMARK  status: ('A' for Active; 'I' for Inactive)
REMARK    1  A    between atoms: C_1  and  C_2
REMARK    2  A    between atoms: C_2  and  C_3
REMARK    3  A    between atoms: N_6  and  C_7
REMARK    4  A    between atoms: C_9  and  N_10
REMARK    5  A    between atoms: C_11  and  C_13
REMARK                            x       y       z     vdW  Elec       q    Type
REMARK                         _______ _______ _______ _____ _____    ______ ____
ROOT
ATOM      1  N   UNL     1       2.952   6.576  19.155  0.00  0.00    +0.000 N 
ATOM      2  C   UNL     1       2.075   6.631  20.222  0.00  0.00    +0.000 C 
ATOM      3  O   UNL     1       1.789   5.650  20.904  0.00  0.00    +0.000 OA
ATOM      4  H   UNL     1       3.185   7.457  18.696  0.00  0.00    +0.000 HD
ENDROOT
BRANCH   2   5
ATOM      5  C   UNL     1       1.479   7.952  20.530  0.00  0.00    +0.000 A 
ATOM      6  C   UNL     1       0.937   8.204  21.806  0.00  0.00    +0.000 A 
ATOM      7  C   UNL     1       0.411   9.456  22.135  0.00  0.00    +0.000 A 
ATOM      8  C   UNL     1       0.398  10.505  21.209  0.00  0.00    +0.000 A 
ATOM      9  C   UNL     1       0.919  10.230  19.942  0.00  0.00    +0.000 A 
ATOM     10  N   UNL     1       1.054  11.003  18.815  0.00  0.00    +0.000 N 
ATOM     11  C   UNL     1       1.631  10.241  17.842  0.00  0.00    +0.000 A 
ATOM     12  N   UNL     1       1.892   9.027  18.269  0.00  0.00    +0.000 NA
ATOM     13  C   UNL     1       1.451   8.993  19.581  0.00  0.00    +0.000 A 
ATOM     14  H   UNL     1       0.776  11.969  18.724  0.00  0.00    +0.000 HD
ENDBRANCH   2   5
BRANCH   1  21
ATOM     15  C   UNL     1       3.039   4.716  17.513  0.00  0.00    +0.000 C 
ATOM     16  C   UNL     1       3.876   3.494  17.100  0.00  0.00    +0.000 C 
ATOM     17  C   UNL     1       5.344   3.857  16.886  0.00  0.00    +0.000 C 
ATOM     18  N   UNL     1       5.920   4.469  18.087  0.00  0.00    +0.000 NA
ATOM     19  C   UNL     1       7.328   4.798  17.868  0.00  0.00    +0.000 C 
ATOM     20  C   UNL     1       5.167   5.667  18.504  0.00  0.00    +0.000 C 
ATOM     21  C   UNL     1       3.671   5.365  18.770  0.00  0.00    +0.000 C 
BRANCH  15  23
ATOM     22  C   UNL     1       1.309   3.075  18.496  0.00  0.00    +0.000 C 
ATOM     23  C   UNL     1       1.554   4.343  17.690  0.00  0.00    +0.000 C 
ENDBRANCH  15  23
ENDBRANCH   1  21
TORSDOF 3
ENDMDL
MODEL 2
REMARK VINA RESULT:      -7.0      1.593      6.649
REMARK  Name = 
REMARK  5 active torsions:
REMARK  status: ('A' for Active; 'I' for Inactive)
REMARK    1  A    between atoms: C_1  and  C_2
REMARK    2  A    between atoms: C_2  and  C_3
REMARK    3  A    between atoms: N_6  and  C_7
REMARK    4  A    between atoms: C_9  and  N_10
REMARK    5  A    between atoms: C_11  and  C_13
REMARK                            x       y       z     vdW  Elec       q    Type
REMARK                         _______ _______ _______ _____ _____    ______ ____
ROOT
ATOM      1  N   UNL     1       3.436   6.526  18.329  0.00  0.00    +0.000 N 
ATOM      2  C   UNL     1       3.443   5.335  17.626  0.00  0.00    +0.000 C 
ATOM      3  O   UNL     1       2.437   4.649  17.461  0.00  0.00    +0.000 OA
ATOM      4  H   UNL     1       4.303   7.063  18.348  0.00  0.00    +0.000 HD
ENDROOT
BRANCH   2   5
ATOM      5  C   UNL     1       4.740   4.905  17.055  0.00  0.00    +0.000 A 
ATOM      6  C   UNL     1       4.802   4.400  15.741  0.00  0.00    +0.000 A 
ATOM      7  C   UNL     1       6.020   4.031  15.164  0.00  0.00    +0.000 A 
ATOM      8  C   UNL     1       7.223   4.144  15.869  0.00  0.00    +0.000 A 
ATOM      9  C   UNL     1       7.140   4.625  17.178  0.00  0.00    +0.000 A 
ATOM     10  N   UNL     1       8.095   4.852  18.138  0.00  0.00    +0.000 N 
ATOM     11  C   UNL     1       7.473   5.330  19.253  0.00  0.00    +0.000 A 
ATOM     12  N   UNL     1       6.178   5.442  19.076  0.00  0.00    +0.000 NA
ATOM     13  C   UNL     1       5.942   5.003  17.784  0.00  0.00    +0.000 A 
ATOM     14  H   UNL     1       9.087   4.693  18.034  0.00  0.00    +0.000 HD
ENDBRANCH   2   5
BRANCH   1  21
ATOM     15  C   UNL     1       2.178   6.934  20.430  0.00  0.00    +0.000 C 
ATOM     16  C   UNL     1       0.930   7.640  20.986  0.00  0.00    +0.000 C 
ATOM     17  C   UNL     1       0.881   9.110  20.577  0.00  0.00    +0.000 C 
ATOM     18  N   UNL     1       0.926   9.259  19.119  0.00  0.00    +0.000 NA
ATOM     19  C   UNL     1       0.865  10.671  18.746  0.00  0.00    +0.000 C 
ATOM     20  C   UNL     1       2.126   8.622  18.543  0.00  0.00    +0.000 C 
ATOM     21  C   UNL     1       2.224   7.117  18.893  0.00  0.00    +0.000 C 
BRANCH  15  23
ATOM     22  C   UNL     1       1.024   4.628  20.483  0.00  0.00    +0.000 C 
ATOM     23  C   UNL     1       2.234   5.461  20.881  0.00  0.00    +0.000 C 
ENDBRANCH  15  23
ENDBRANCH   1  21
TORSDOF 3
ENDMDL
MODEL 3
REMARK VINA RESULT:      -6.7      1.670      2.328
REMARK  Name = 
REMARK  5 active torsions:
REMARK  status: ('A' for Active; 'I' for Inactive)
REMARK    1  A    between atoms: C_1  and  C_2
REMARK    2  A    between atoms: C_2  and  C_3
REMARK    3  A    between atoms: N_6  and  C_7
REMARK    4  A    between atoms: C_9  and  N_10
REMARK    5  A    between atoms: C_11  and  C_13
REMARK                            x       y       z     vdW  Elec       q    Type
REMARK                         _______ _______ _______ _____ _____    ______ ____
ROOT
ATOM      1  N   UNL     1       2.397   6.652  19.381  0.00  0.00    +0.000 N 
ATOM      2  C   UNL     1       2.380   7.811  18.628  0.00  0.00    +0.000 C 
ATOM      3  O   UNL     1       3.154   8.015  17.696  0.00  0.00    +0.000 OA
ATOM      4  H   UNL     1       1.667   6.541  20.085  0.00  0.00    +0.000 HD
ENDROOT
BRANCH   2   5
ATOM      5  C   UNL     1       1.361   8.825  18.986  0.00  0.00    +0.000 A 
ATOM      6  C   UNL     1       0.686   9.538  17.976  0.00  0.00    +0.000 A 
ATOM      7  C   UNL     1      -0.311  10.465  18.287  0.00  0.00    +0.000 A 
ATOM      8  C   UNL     1      -0.673  10.726  19.614  0.00  0.00    +0.000 A 
ATOM      9  C   UNL     1       0.022  10.027  20.603  0.00  0.00    +0.000 A 
ATOM     10  N   UNL     1      -0.065  10.041  21.973  0.00  0.00    +0.000 N 
ATOM     11  C   UNL     1       0.852   9.160  22.467  0.00  0.00    +0.000 A 
ATOM     12  N   UNL     1       1.520   8.565  21.506  0.00  0.00    +0.000 NA
ATOM     13  C   UNL     1       1.022   9.095  20.327  0.00  0.00    +0.000 A 
ATOM     14  H   UNL     1      -0.700  10.604  22.520  0.00  0.00    +0.000 HD
ENDBRANCH   2   5
BRANCH   1  21
ATOM     15  C   UNL     1       2.939   4.845  17.767  0.00  0.00    +0.000 C 
ATOM     16  C   UNL     1       3.957   3.727  17.486  0.00  0.00    +0.000 C 
ATOM     17  C   UNL     1       5.393   4.250  17.505  0.00  0.00    +0.000 C 
ATOM     18  N   UNL     1       5.707   4.896  18.783  0.00  0.00    +0.000 NA
ATOM     19  C   UNL     1       7.086   5.377  18.787  0.00  0.00    +0.000 C 
ATOM     20  C   UNL     1       4.772   5.998  19.080  0.00  0.00    +0.000 C 
ATOM     21  C   UNL     1       3.295   5.532  19.109  0.00  0.00    +0.000 C 
BRANCH  15  23
ATOM     22  C   UNL     1       1.216   3.127  18.625  0.00  0.00    +0.000 C 
ATOM     23  C   UNL     1       1.494   4.311  17.709  0.00  0.00    +0.000 C 
ENDBRANCH  15  23
ENDBRANCH   1  21
TORSDOF 3
ENDMDL
MODEL 4
REMARK VINA RESULT:      -6.7      1.926      2.584
REMARK  Name = 
REMARK  5 active torsions:
REMARK  status: ('A' for Active; 'I' for Inactive)
REMARK    1  A    between atoms: C_1  and  C_2
REMARK    2  A    between atoms: C_2  and  C_3
REMARK    3  A    between atoms: N_6  and  C_7
REMARK    4  A    between atoms: C_9  and  N_10
REMARK    5  A    between atoms: C_11  and  C_13
REMARK                            x       y       z     vdW  Elec       q    Type
REMARK                         _______ _______ _______ _____ _____    ______ ____
ROOT
ATOM      1  N   UNL     1       2.300   6.614  20.084  0.00  0.00    +0.000 N 
ATOM      2  C   UNL     1       2.301   7.598  19.114  0.00  0.00    +0.000 C 
ATOM      3  O   UNL     1       3.018   7.556  18.117  0.00  0.00    +0.000 OA
ATOM      4  H   UNL     1       1.616   6.699  20.836  0.00  0.00    +0.000 HD
ENDROOT
BRANCH   2   5
ATOM      5  C   UNL     1       1.376   8.737  19.317  0.00  0.00    +0.000 A 
ATOM      6  C   UNL     1       0.870   9.445  18.209  0.00  0.00    +0.000 A 
ATOM      7  C   UNL     1      -0.040  10.492  18.372  0.00  0.00    +0.000 A 
ATOM      8  C   UNL     1      -0.480  10.882  19.643  0.00  0.00    +0.000 A 
ATOM      9  C   UNL     1       0.050  10.184  20.731  0.00  0.00    +0.000 A 
ATOM     10  N   UNL     1      -0.149  10.302  22.084  0.00  0.00    +0.000 N 
ATOM     11  C   UNL     1       0.620   9.366  22.711  0.00  0.00    +0.000 A 
ATOM     12  N   UNL     1       1.295   8.639  21.852  0.00  0.00    +0.000 NA
ATOM     13  C   UNL     1       0.958   9.134  20.603  0.00  0.00    +0.000 A 
ATOM     14  H   UNL     1      -0.760  10.966  22.537  0.00  0.00    +0.000 HD
ENDBRANCH   2   5
BRANCH   1  21
ATOM     15  C   UNL     1       2.271   4.216  19.439  0.00  0.00    +0.000 C 
ATOM     16  C   UNL     1       3.178   2.985  19.286  0.00  0.00    +0.000 C 
ATOM     17  C   UNL     1       4.401   3.284  18.422  0.00  0.00    +0.000 C 
ATOM     18  N   UNL     1       5.175   4.405  18.965  0.00  0.00    +0.000 NA
ATOM     19  C   UNL     1       6.347   4.668  18.133  0.00  0.00    +0.000 C 
ATOM     20  C   UNL     1       4.350   5.621  19.100  0.00  0.00    +0.000 C 
ATOM     21  C   UNL     1       3.105   5.398  19.993  0.00  0.00    +0.000 C 
BRANCH  15  23
ATOM     22  C   UNL     1       1.233   2.815  21.339  0.00  0.00    +0.000 C 
ATOM     23  C   UNL     1       1.023   3.890  20.282  0.00  0.00    +0.000 C 
ENDBRANCH  15  23
ENDBRANCH   1  21
TORSDOF 3
ENDMDL
MODEL 5
REMARK VINA RESULT:      -6.6      3.831      5.759
REMARK  Name = 
REMARK  5 active torsions:
REMARK  status: ('A' for Active; 'I' for Inactive)
REMARK    1  A    between atoms: C_1  and  C_2
REMARK    2  A    between atoms: C_2  and  C_3
REMARK    3  A    between atoms: N_6  and  C_7
REMARK    4  A    between atoms: C_9  and  N_10
REMARK    5  A    between atoms: C_11  and  C_13
REMARK                            x       y       z     vdW  Elec       q    Type
REMARK                         _______ _______ _______ _____ _____    ______ ____
ROOT
ATOM      1  N   UNL     1       4.601   4.344  17.264  0.00  0.00    +0.000 N 
ATOM      2  C   UNL     1       3.710   5.135  17.965  0.00  0.00    +0.000 C 
ATOM      3  O   UNL     1       3.509   6.317  17.697  0.00  0.00    +0.000 OA
ATOM      4  H   UNL     1       4.644   3.355  17.513  0.00  0.00    +0.000 HD
ENDROOT
BRANCH   2   5
ATOM      5  C   UNL     1       2.977   4.489  19.079  0.00  0.00    +0.000 A 
ATOM      6  C   UNL     1       1.674   4.914  19.409  0.00  0.00    +0.000 A 
ATOM      7  C   UNL     1       0.946   4.290  20.425  0.00  0.00    +0.000 A 
ATOM      8  C   UNL     1       1.483   3.224  21.157  0.00  0.00    +0.000 A 
ATOM      9  C   UNL     1       2.783   2.832  20.831  0.00  0.00    +0.000 A 
ATOM     10  N   UNL     1       3.603   1.854  21.336  0.00  0.00    +0.000 N 
ATOM     11  C   UNL     1       4.784   1.894  20.655  0.00  0.00    +0.000 A 
ATOM     12  N   UNL     1       4.780   2.826  19.731  0.00  0.00    +0.000 NA
ATOM     13  C   UNL     1       3.537   3.432  19.823  0.00  0.00    +0.000 A 
ATOM     14  H   UNL     1       3.371   1.214  22.081  0.00  0.00    +0.000 HD
ENDBRANCH   2   5
BRANCH   1  21
ATOM     15  C   UNL     1       6.871   4.808  16.373  0.00  0.00    +0.000 C 
ATOM     16  C   UNL     1       7.616   5.233  15.097  0.00  0.00    +0.000 C 
ATOM     17  C   UNL     1       7.239   4.358  13.903  0.00  0.00    +0.000 C 
ATOM     18  N   UNL     1       5.793   4.380  13.663  0.00  0.00    +0.000 NA
ATOM     19  C   UNL     1       5.453   3.549  12.510  0.00  0.00    +0.000 C 
ATOM     20  C   UNL     1       5.037   3.948  14.854  0.00  0.00    +0.000 C 
ATOM     21  C   UNL     1       5.347   4.814  16.100  0.00  0.00    +0.000 C 
BRANCH  15  23
ATOM     22  C   UNL     1       7.148   7.174  17.361  0.00  0.00    +0.000 C 
ATOM     23  C   UNL     1       7.288   5.674  17.578  0.00  0.00    +0.000 C 
ENDBRANCH  15  23
ENDBRANCH   1  21
TORSDOF 3
ENDMDL
MODEL 6
REMARK VINA RESULT:      -6.6      1.878      6.423
REMARK  Name = 
REMARK  5 active torsions:
REMARK  status: ('A' for Active; 'I' for Inactive)
REMARK    1  A    between atoms: C_1  and  C_2
REMARK    2  A    between atoms: C_2  and  C_3
REMARK    3  A    between atoms: N_6  and  C_7
REMARK    4  A    between atoms: C_9  and  N_10
REMARK    5  A    between atoms: C_11  and  C_13
REMARK                            x       y       z     vdW  Elec       q    Type
REMARK                         _______ _______ _______ _____ _____    ______ ____
ROOT
ATOM      1  N   UNL     1       3.345   6.651  18.310  0.00  0.00    +0.000 N 
ATOM      2  C   UNL     1       3.357   5.484  17.570  0.00  0.00    +0.000 C 
ATOM      3  O   UNL     1       2.375   4.756  17.452  0.00  0.00    +0.000 OA
ATOM      4  H   UNL     1       4.186   7.228  18.287  0.00  0.00    +0.000 HD
ENDROOT
BRANCH   2   5
ATOM      5  C   UNL     1       4.629   5.135  16.895  0.00  0.00    +0.000 A 
ATOM      6  C   UNL     1       4.733   3.938  16.158  0.00  0.00    +0.000 A 
ATOM      7  C   UNL     1       5.907   3.609  15.475  0.00  0.00    +0.000 A 
ATOM      8  C   UNL     1       7.025   4.451  15.501  0.00  0.00    +0.000 A 
ATOM      9  C   UNL     1       6.910   5.622  16.256  0.00  0.00    +0.000 A 
ATOM     10  N   UNL     1       7.790   6.646  16.503  0.00  0.00    +0.000 N 
ATOM     11  C   UNL     1       7.170   7.553  17.312  0.00  0.00    +0.000 A 
ATOM     12  N   UNL     1       5.941   7.191  17.595  0.00  0.00    +0.000 NA
ATOM     13  C   UNL     1       5.754   5.980  16.948  0.00  0.00    +0.000 A 
ATOM     14  H   UNL     1       8.731   6.717  16.146  0.00  0.00    +0.000 HD
ENDBRANCH   2   5
BRANCH   1  21
ATOM     15  C   UNL     1       2.193   6.878  20.498  0.00  0.00    +0.000 C 
ATOM     16  C   UNL     1       0.959   7.507  21.166  0.00  0.00    +0.000 C 
ATOM     17  C   UNL     1       0.848   9.000  20.862  0.00  0.00    +0.000 C 
ATOM     18  N   UNL     1       0.810   9.247  19.418  0.00  0.00    +0.000 NA
ATOM     19  C   UNL     1       0.691  10.679  19.147  0.00  0.00    +0.000 C 
ATOM     20  C   UNL     1       1.993   8.688  18.737  0.00  0.00    +0.000 C 
ATOM     21  C   UNL     1       2.151   7.166  18.977  0.00  0.00    +0.000 C 
BRANCH  15  23
ATOM     22  C   UNL     1       1.078   4.553  20.516  0.00  0.00    +0.000 C 
ATOM     23  C   UNL     1       2.313   5.381  20.842  0.00  0.00    +0.000 C 
ENDBRANCH  15  23
ENDBRANCH   1  21
TORSDOF 3
ENDMDL
MODEL 7
REMARK VINA RESULT:      -6.6      3.341      5.338
REMARK  Name = 
REMARK  5 active torsions:
REMARK  status: ('A' for Active; 'I' for Inactive)
REMARK    1  A    between atoms: C_1  and  C_2
REMARK    2  A    between atoms: C_2  and  C_3
REMARK    3  A    between atoms: N_6  and  C_7
REMARK    4  A    between atoms: C_9  and  N_10
REMARK    5  A    between atoms: C_11  and  C_13
REMARK                            x       y       z     vdW  Elec       q    Type
REMARK                         _______ _______ _______ _____ _____    ______ ____
ROOT
ATOM      1  N   UNL     1       4.583   4.902  16.833  0.00  0.00    +0.000 N 
ATOM      2  C   UNL     1       3.797   5.845  17.468  0.00  0.00    +0.000 C 
ATOM      3  O   UNL     1       3.778   7.029  17.143  0.00  0.00    +0.000 OA
ATOM      4  H   UNL     1       4.474   3.930  17.124  0.00  0.00    +0.000 HD
ENDROOT
BRANCH   2   5
ATOM      5  C   UNL     1       2.946   5.365  18.582  0.00  0.00    +0.000 A 
ATOM      6  C   UNL     1       2.590   6.239  19.628  0.00  0.00    +0.000 A 
ATOM      7  C   UNL     1       1.751   5.823  20.665  0.00  0.00    +0.000 A 
ATOM      8  C   UNL     1       1.238   4.521  20.708  0.00  0.00    +0.000 A 
ATOM      9  C   UNL     1       1.620   3.662  19.675  0.00  0.00    +0.000 A 
ATOM     10  N   UNL     1       1.319   2.349  19.411  0.00  0.00    +0.000 N 
ATOM     11  C   UNL     1       1.961   1.987  18.263  0.00  0.00    +0.000 A 
ATOM     12  N   UNL     1       2.647   2.983  17.757  0.00  0.00    +0.000 NA
ATOM     13  C   UNL     1       2.454   4.045  18.625  0.00  0.00    +0.000 A 
ATOM     14  H   UNL     1       0.724   1.755  19.970  0.00  0.00    +0.000 HD
ENDBRANCH   2   5
BRANCH   1  21
ATOM     15  C   UNL     1       6.914   5.306  16.080  0.00  0.00    +0.000 C 
ATOM     16  C   UNL     1       7.763   5.546  14.821  0.00  0.00    +0.000 C 
ATOM     17  C   UNL     1       7.523   4.472  13.762  0.00  0.00    +0.000 C 
ATOM     18  N   UNL     1       6.106   4.394  13.396  0.00  0.00    +0.000 NA
ATOM     19  C   UNL     1       5.898   3.371  12.373  0.00  0.00    +0.000 C 
ATOM     20  C   UNL     1       5.253   4.133  14.571  0.00  0.00    +0.000 C 
ATOM     21  C   UNL     1       5.422   5.205  15.676  0.00  0.00    +0.000 C 
BRANCH  15  23
ATOM     22  C   UNL     1       7.620   5.821  18.507  0.00  0.00    +0.000 C 
ATOM     23  C   UNL     1       7.193   6.375  17.155  0.00  0.00    +0.000 C 
ENDBRANCH  15  23
ENDBRANCH   1  21
TORSDOF 3
ENDMDL
MODEL 8
REMARK VINA RESULT:      -6.5      1.306      2.085
REMARK  Name = 
REMARK  5 active torsions:
REMARK  status: ('A' for Active; 'I' for Inactive)
REMARK    1  A    between atoms: C_1  and  C_2
REMARK    2  A    between atoms: C_2  and  C_3
REMARK    3  A    between atoms: N_6  and  C_7
REMARK    4  A    between atoms: C_9  and  N_10
REMARK    5  A    between atoms: C_11  and  C_13
REMARK                            x       y       z     vdW  Elec       q    Type
REMARK                         _______ _______ _______ _____ _____    ______ ____
ROOT
ATOM      1  N   UNL     1       2.979   6.854  18.589  0.00  0.00    +0.000 N 
ATOM      2  C   UNL     1       2.168   7.176  19.661  0.00  0.00    +0.000 C 
ATOM      3  O   UNL     1       1.944   6.401  20.587  0.00  0.00    +0.000 OA
ATOM      4  H   UNL     1       3.165   7.589  17.906  0.00  0.00    +0.000 HD
ENDROOT
BRANCH   2   5
ATOM      5  C   UNL     1       1.565   8.529  19.659  0.00  0.00    +0.000 A 
ATOM      6  C   UNL     1       1.517   9.281  18.468  0.00  0.00    +0.000 A 
ATOM      7  C   UNL     1       0.913  10.541  18.432  0.00  0.00    +0.000 A 
ATOM      8  C   UNL     1       0.338  11.105  19.576  0.00  0.00    +0.000 A 
ATOM      9  C   UNL     1       0.415  10.355  20.752  0.00  0.00    +0.000 A 
ATOM     10  N   UNL     1      -0.025  10.600  22.030  0.00  0.00    +0.000 N 
ATOM     11  C   UNL     1       0.311   9.530  22.807  0.00  0.00    +0.000 A 
ATOM     12  N   UNL     1       0.928   8.602  22.115  0.00  0.00    +0.000 NA
ATOM     13  C   UNL     1       1.010   9.096  20.823  0.00  0.00    +0.000 A 
ATOM     14  H   UNL     1      -0.513  11.427  22.339  0.00  0.00    +0.000 HD
ENDBRANCH   2   5
BRANCH   1  21
ATOM     15  C   UNL     1       3.035   4.657  17.433  0.00  0.00    +0.000 C 
ATOM     16  C   UNL     1       3.870   3.374  17.296  0.00  0.00    +0.000 C 
ATOM     17  C   UNL     1       5.328   3.679  16.956  0.00  0.00    +0.000 C 
ATOM     18  N   UNL     1       5.934   4.559  17.959  0.00  0.00    +0.000 NA
ATOM     19  C   UNL     1       7.331   4.829  17.625  0.00  0.00    +0.000 C 
ATOM     20  C   UNL     1       5.182   5.820  18.103  0.00  0.00    +0.000 C 
ATOM     21  C   UNL     1       3.698   5.587  18.480  0.00  0.00    +0.000 C 
BRANCH  15  23
ATOM     22  C   UNL     1       1.342   3.066  18.554  0.00  0.00    +0.000 C 
ATOM     23  C   UNL     1       1.559   4.334  17.739  0.00  0.00    +0.000 C 
ENDBRANCH  15  23
ENDBRANCH   1  21
TORSDOF 3
ENDMDL
MODEL 9
REMARK VINA RESULT:      -6.5      1.350      1.467
REMARK  Name = 
REMARK  5 active torsions:
REMARK  status: ('A' for Active; 'I' for Inactive)
REMARK    1  A    between atoms: C_1  and  C_2
REMARK    2  A    between atoms: C_2  and  C_3
REMARK    3  A    between atoms: N_6  and  C_7
REMARK    4  A    between atoms: C_9  and  N_10
REMARK    5  A    between atoms: C_11  and  C_13
REMARK                            x       y       z     vdW  Elec       q    Type
REMARK                         _______ _______ _______ _____ _____    ______ ____
ROOT
ATOM      1  N   UNL     1       2.545   6.265  20.542  0.00  0.00    +0.000 N 
ATOM      2  C   UNL     1       2.081   7.297  19.749  0.00  0.00    +0.000 C 
ATOM      3  O   UNL     1       2.232   7.326  18.530  0.00  0.00    +0.000 OA
ATOM      4  H   UNL     1       2.305   6.293  21.533  0.00  0.00    +0.000 HD
ENDROOT
BRANCH   2   5
ATOM      5  C   UNL     1       1.367   8.398  20.436  0.00  0.00    +0.000 A 
ATOM      6  C   UNL     1       0.846   8.204  21.731  0.00  0.00    +0.000 A 
ATOM      7  C   UNL     1       0.210   9.242  22.418  0.00  0.00    +0.000 A 
ATOM      8  C   UNL     1       0.060  10.510  21.845  0.00  0.00    +0.000 A 
ATOM      9  C   UNL     1       0.562  10.677  20.552  0.00  0.00    +0.000 A 
ATOM     10  N   UNL     1       0.581  11.757  19.705  0.00  0.00    +0.000 N 
ATOM     11  C   UNL     1       1.197  11.380  18.548  0.00  0.00    +0.000 A 
ATOM     12  N   UNL     1       1.593  10.130  18.594  0.00  0.00    +0.000 NA
ATOM     13  C   UNL     1       1.203   9.664  19.839  0.00  0.00    +0.000 A 
ATOM     14  H   UNL     1       0.204  12.672  19.904  0.00  0.00    +0.000 HD
ENDBRANCH   2   5
BRANCH   1  21
ATOM     15  C   UNL     1       2.227   4.226  19.160  0.00  0.00    +0.000 C 
ATOM     16  C   UNL     1       2.987   3.035  18.554  0.00  0.00    +0.000 C 
ATOM     17  C   UNL     1       4.204   3.488  17.748  0.00  0.00    +0.000 C 
ATOM     18  N   UNL     1       5.115   4.291  18.569  0.00  0.00    +0.000 NA
ATOM     19  C   UNL     1       6.278   4.705  17.786  0.00  0.00    +0.000 C 
ATOM     20  C   UNL     1       4.435   5.466  19.148  0.00  0.00    +0.000 C 
ATOM     21  C   UNL     1       3.206   5.077  20.006  0.00  0.00    +0.000 C 
BRANCH  15  23
ATOM     22  C   UNL     1       1.282   2.884  21.149  0.00  0.00    +0.000 C 
ATOM     23  C   UNL     1       0.983   3.758  19.938  0.00  0.00    +0.000 C 
ENDBRANCH  15  23
ENDBRANCH   1  21
TORSDOF 3
ENDMDL
