MODEL 1
REMARK VINA RESULT:      -7.4      0.000      0.000
REMARK  Name = 
REMARK  6 active torsions:
REMARK  status: ('A' for Active; 'I' for Inactive)
REMARK    1  A    between atoms: C_1  and  O_2
REMARK    2  A    between atoms: O_2  and  C_3
REMARK    3  A    between atoms: C_3  and  C_4
REMARK    4  A    between atoms: N_14  and  C_15
REMARK    5  A    between atoms: C_15  and  C_16
REMARK    6  A    between atoms: C_19  and  C_20
REMARK                            x       y       z     vdW  Elec       q    Type
REMARK                         _______ _______ _______ _____ _____    ______ ____
ROOT
ATOM      1  C   UNL     1       7.400   5.841  17.501  0.00  0.00    +0.000 C 
ATOM      2  O   UNL     1       7.501   6.121  16.300  0.00  0.00    +0.000 OA
ATOM      3  N   UNL     1       6.496   4.884  17.933  0.00  0.00    +0.000 N 
ATOM      4  C   UNL     1       5.868   3.986  16.954  0.00  0.00    +0.000 C 
ATOM      5  C   UNL     1       4.457   4.377  16.477  0.00  0.00    +0.000 C 
ATOM      6  C   UNL     1       3.369   4.298  17.539  0.00  0.00    +0.000 A 
ATOM      7  C   UNL     1       2.309   3.333  17.336  0.00  0.00    +0.000 A 
ATOM      8  C   UNL     1       1.344   3.171  18.246  0.00  0.00    +0.000 A 
ATOM      9  C   UNL     1       1.315   4.012  19.466  0.00  0.00    +0.000 A 
ATOM     10  O   UNL     1       0.412   3.837  20.282  0.00  0.00    +0.000 OA
ATOM     11  N   UNL     1       2.326   4.962  19.591  0.00  0.00    +0.000 N 
ATOM     12  C   UNL     1       3.364   5.070  18.652  0.00  0.00    +0.000 A 
ATOM     13  C   UNL     1       4.543   5.972  18.928  0.00  0.00    +0.000 C 
ATOM     14  C   UNL     1       5.777   5.101  19.185  0.00  0.00    +0.000 C 
ENDROOT
BRANCH   1  15
ATOM     15  C   UNL     1       8.317   6.527  18.558  0.00  0.00    +0.000 C 
BRANCH  15  17
ATOM     16  C   UNL     1       7.805   8.674  17.650  0.00  0.00    +0.000 C 
ATOM     17  O   UNL     1       8.401   7.937  18.708  0.00  0.00    +0.000 OA
ENDBRANCH  15  17
ENDBRANCH   1  15
BRANCH  11  18
ATOM     18  C   UNL     1       2.251   5.820  20.778  0.00  0.00    +0.000 C 
BRANCH  18  19
ATOM     19  C   UNL     1       1.744   7.188  20.423  0.00  0.00    +0.000 A 
ATOM     20  C   UNL     1       1.037   8.030  21.261  0.00  0.00    +0.000 A 
ATOM     21  S   UNL     1       0.667   9.496  20.463  0.00  0.00    +0.000 S 
ATOM     22  C   UNL     1       1.513   8.939  19.075  0.00  0.00    +0.000 A 
ATOM     23  C   UNL     1       1.731   9.840  17.910  0.00  0.00    +0.000 C 
ATOM     24  N   UNL     1       1.974   7.710  19.154  0.00  0.00    +0.000 NA
ENDBRANCH  18  19
ENDBRANCH  11  18
TORSDOF 4
ENDMDL
MODEL 2
REMARK VINA RESULT:      -7.2      1.054      1.224
REMARK  Name = 
REMARK  6 active torsions:
REMARK  status: ('A' for Active; 'I' for Inactive)
REMARK    1  A    between atoms: C_1  and  O_2
REMARK    2  A    between atoms: O_2  and  C_3
REMARK    3  A    between atoms: C_3  and  C_4
REMARK    4  A    between atoms: N_14  and  C_15
REMARK    5  A    between atoms: C_15  and  C_16
REMARK    6  A    between atoms: C_19  and  C_20
REMARK                            x       y       z     vdW  Elec       q    Type
REMARK                         _______ _______ _______ _____ _____    ______ ____
ROOT
ATOM      1  C   UNL     1       7.378   6.290  17.270  0.00  0.00    +0.000 C 
ATOM      2  O   UNL     1       7.498   6.372  16.042  0.00  0.00    +0.000 OA
ATOM      3  N   UNL     1       6.574   5.317  17.843  0.00  0.00    +0.000 N 
ATOM      4  C   UNL     1       6.099   4.195  17.022  0.00  0.00    +0.000 C 
ATOM      5  C   UNL     1       4.674   4.322  16.452  0.00  0.00    +0.000 C 
ATOM      6  C   UNL     1       3.558   4.293  17.487  0.00  0.00    +0.000 A 
ATOM      7  C   UNL     1       2.628   3.184  17.432  0.00  0.00    +0.000 A 
ATOM      8  C   UNL     1       1.650   3.063  18.335  0.00  0.00    +0.000 A 
ATOM      9  C   UNL     1       1.470   4.089  19.389  0.00  0.00    +0.000 A 
ATOM     10  O   UNL     1       0.559   3.946  20.202  0.00  0.00    +0.000 OA
ATOM     11  N   UNL     1       2.357   5.164  19.368  0.00  0.00    +0.000 N 
ATOM     12  C   UNL     1       3.414   5.236  18.449  0.00  0.00    +0.000 A 
ATOM     13  C   UNL     1       4.466   6.310  18.589  0.00  0.00    +0.000 C 
ATOM     14  C   UNL     1       5.782   5.655  19.021  0.00  0.00    +0.000 C 
ENDROOT
BRANCH   1  15
ATOM     15  C   UNL     1       8.162   7.254  18.212  0.00  0.00    +0.000 C 
BRANCH  15  17
ATOM     16  C   UNL     1       8.945   9.367  18.998  0.00  0.00    +0.000 C 
ATOM     17  O   UNL     1       8.224   8.657  18.001  0.00  0.00    +0.000 OA
ENDBRANCH  15  17
ENDBRANCH   1  15
BRANCH  11  18
ATOM     18  C   UNL     1       2.130   6.196  20.385  0.00  0.00    +0.000 C 
BRANCH  18  19
ATOM     19  C   UNL     1       1.763   7.506  19.750  0.00  0.00    +0.000 A 
ATOM     20  C   UNL     1       1.897   7.820  18.411  0.00  0.00    +0.000 A 
ATOM     21  S   UNL     1       1.346   9.411  18.112  0.00  0.00    +0.000 S 
ATOM     22  C   UNL     1       0.917   9.560  19.768  0.00  0.00    +0.000 A 
ATOM     23  C   UNL     1       0.190  10.764  20.256  0.00  0.00    +0.000 C 
ATOM     24  N   UNL     1       1.236   8.533  20.526  0.00  0.00    +0.000 NA
ENDBRANCH  18  19
ENDBRANCH  11  18
TORSDOF 4
ENDMDL
MODEL 3
REMARK VINA RESULT:      -7.1      3.350      6.236
REMARK  Name = 
REMARK  6 active torsions:
REMARK  status: ('A' for Active; 'I' for Inactive)
REMARK    1  A    between atoms: C_1  and  O_2
REMARK    2  A    between atoms: O_2  and  C_3
REMARK    3  A    between atoms: C_3  and  C_4
REMARK    4  A    between atoms: N_14  and  C_15
REMARK    5  A    between atoms: C_15  and  C_16
REMARK    6  A    between atoms: C_19  and  C_20
REMARK                            x       y       z     vdW  Elec       q    Type
REMARK                         _______ _______ _______ _____ _____    ______ ____
ROOT
ATOM      1  C   UNL     1       1.103  11.263  19.856  0.00  0.00    +0.000 C 
ATOM      2  O   UNL     1       1.351  11.662  21.000  0.00  0.00    +0.000 OA
ATOM      3  N   UNL     1       0.692   9.959  19.631  0.00  0.00    +0.000 N 
ATOM      4  C   UNL     1       0.261   9.130  20.765  0.00  0.00    +0.000 C 
ATOM      5  C   UNL     1       1.314   8.165  21.344  0.00  0.00    +0.000 C 
ATOM      6  C   UNL     1       1.730   7.031  20.418  0.00  0.00    +0.000 A 
ATOM      7  C   UNL     1       1.417   5.680  20.839  0.00  0.00    +0.000 A 
ATOM      8  C   UNL     1       1.708   4.634  20.060  0.00  0.00    +0.000 A 
ATOM      9  C   UNL     1       2.398   4.832  18.764  0.00  0.00    +0.000 A 
ATOM     10  O   UNL     1       2.651   3.847  18.074  0.00  0.00    +0.000 OA
ATOM     11  N   UNL     1       2.726   6.144  18.427  0.00  0.00    +0.000 N 
ATOM     12  C   UNL     1       2.354   7.232  19.233  0.00  0.00    +0.000 A 
ATOM     13  C   UNL     1       2.550   8.643  18.734  0.00  0.00    +0.000 C 
ATOM     14  C   UNL     1       1.176   9.257  18.446  0.00  0.00    +0.000 C 
ENDROOT
BRANCH   1  15
ATOM     15  C   UNL     1       1.203  12.231  18.638  0.00  0.00    +0.000 C 
BRANCH  15  17
ATOM     16  C   UNL     1       3.007  13.787  18.505  0.00  0.00    +0.000 C 
ATOM     17  O   UNL     1       2.438  12.577  18.027  0.00  0.00    +0.000 OA
ENDBRANCH  15  17
ENDBRANCH   1  15
BRANCH  11  18
ATOM     18  C   UNL     1       3.455   6.315  17.167  0.00  0.00    +0.000 C 
BRANCH  18  19
ATOM     19  C   UNL     1       4.858   5.791  17.281  0.00  0.00    +0.000 A 
ATOM     20  C   UNL     1       5.528   5.059  16.318  0.00  0.00    +0.000 A 
ATOM     21  S   UNL     1       7.107   4.677  16.849  0.00  0.00    +0.000 S 
ATOM     22  C   UNL     1       6.818   5.551  18.299  0.00  0.00    +0.000 A 
ATOM     23  C   UNL     1       7.915   5.771  19.281  0.00  0.00    +0.000 C 
ATOM     24  N   UNL     1       5.601   6.031  18.433  0.00  0.00    +0.000 NA
ENDBRANCH  18  19
ENDBRANCH  11  18
TORSDOF 4
ENDMDL
MODEL 4
REMARK VINA RESULT:      -6.9      2.823      4.526
REMARK  Name = 
REMARK  6 active torsions:
REMARK  status: ('A' for Active; 'I' for Inactive)
REMARK    1  A    between atoms: C_1  and  O_2
REMARK    2  A    between atoms: O_2  and  C_3
REMARK    3  A    between atoms: C_3  and  C_4
REMARK    4  A    between atoms: N_14  and  C_15
REMARK    5  A    between atoms: C_15  and  C_16
REMARK    6  A    between atoms: C_19  and  C_20
REMARK                            x       y       z     vdW  Elec       q    Type
REMARK                         _______ _______ _______ _____ _____    ______ ____
ROOT
ATOM      1  C   UNL     1       4.358   5.374  16.959  0.00  0.00    +0.000 C 
ATOM      2  O   UNL     1       3.904   4.224  16.921  0.00  0.00    +0.000 OA
ATOM      3  N   UNL     1       4.237   6.148  18.102  0.00  0.00    +0.000 N 
ATOM      4  C   UNL     1       3.841   5.514  19.367  0.00  0.00    +0.000 C 
ATOM      5  C   UNL     1       2.353   5.619  19.747  0.00  0.00    +0.000 C 
ATOM      6  C   UNL     1       1.865   7.025  20.072  0.00  0.00    +0.000 A 
ATOM      7  C   UNL     1       1.411   7.276  21.424  0.00  0.00    +0.000 A 
ATOM      8  C   UNL     1       1.013   8.495  21.800  0.00  0.00    +0.000 A 
ATOM      9  C   UNL     1       0.986   9.609  20.824  0.00  0.00    +0.000 A 
ATOM     10  O   UNL     1       0.613  10.717  21.203  0.00  0.00    +0.000 OA
ATOM     11  N   UNL     1       1.382   9.306  19.522  0.00  0.00    +0.000 N 
ATOM     12  C   UNL     1       1.856   8.033  19.168  0.00  0.00    +0.000 A 
ATOM     13  C   UNL     1       2.461   7.804  17.804  0.00  0.00    +0.000 C 
ATOM     14  C   UNL     1       3.967   7.576  17.967  0.00  0.00    +0.000 C 
ENDROOT
BRANCH   1  15
ATOM     15  C   UNL     1       5.116   5.971  15.735  0.00  0.00    +0.000 C 
BRANCH  15  17
ATOM     16  C   UNL     1       7.109   4.751  16.221  0.00  0.00    +0.000 C 
ATOM     17  O   UNL     1       6.524   5.874  15.578  0.00  0.00    +0.000 OA
ENDBRANCH  15  17
ENDBRANCH   1  15
BRANCH  11  18
ATOM     18  C   UNL     1       1.299  10.407  18.558  0.00  0.00    +0.000 C 
BRANCH  18  19
ATOM     19  C   UNL     1      -0.127  10.682  18.176  0.00  0.00    +0.000 A 
ATOM     20  C   UNL     1      -0.858  11.800  18.534  0.00  0.00    +0.000 A 
ATOM     21  S   UNL     1      -2.434  11.720  17.875  0.00  0.00    +0.000 S 
ATOM     22  C   UNL     1      -2.027  10.234  17.115  0.00  0.00    +0.000 A 
ATOM     23  C   UNL     1      -2.977   9.581  16.173  0.00  0.00    +0.000 C 
ATOM     24  N   UNL     1      -0.828   9.770  17.392  0.00  0.00    +0.000 NA
ENDBRANCH  18  19
ENDBRANCH  11  18
TORSDOF 4
ENDMDL
MODEL 5
REMARK VINA RESULT:      -6.9      4.604      7.665
REMARK  Name = 
REMARK  6 active torsions:
REMARK  status: ('A' for Active; 'I' for Inactive)
REMARK    1  A    between atoms: C_1  and  O_2
REMARK    2  A    between atoms: O_2  and  C_3
REMARK    3  A    between atoms: C_3  and  C_4
REMARK    4  A    between atoms: N_14  and  C_15
REMARK    5  A    between atoms: C_15  and  C_16
REMARK    6  A    between atoms: C_19  and  C_20
REMARK                            x       y       z     vdW  Elec       q    Type
REMARK                         _______ _______ _______ _____ _____    ______ ____
ROOT
ATOM      1  C   UNL     1       1.765   7.464  20.248  0.00  0.00    +0.000 C 
ATOM      2  O   UNL     1       1.307   6.482  20.843  0.00  0.00    +0.000 OA
ATOM      3  N   UNL     1       1.645   8.738  20.781  0.00  0.00    +0.000 N 
ATOM      4  C   UNL     1       1.245   8.899  22.186  0.00  0.00    +0.000 C 
ATOM      5  C   UNL     1      -0.245   9.199  22.440  0.00  0.00    +0.000 C 
ATOM      6  C   UNL     1      -0.727  10.554  21.941  0.00  0.00    +0.000 A 
ATOM      7  C   UNL     1      -1.182  11.505  22.935  0.00  0.00    +0.000 A 
ATOM      8  C   UNL     1      -1.576  12.732  22.581  0.00  0.00    +0.000 A 
ATOM      9  C   UNL     1      -1.596  13.132  21.154  0.00  0.00    +0.000 A 
ATOM     10  O   UNL     1      -1.966  14.267  20.864  0.00  0.00    +0.000 OA
ATOM     11  N   UNL     1      -1.199  12.165  20.231  0.00  0.00    +0.000 N 
ATOM     12  C   UNL     1      -0.730  10.905  20.633  0.00  0.00    +0.000 A 
ATOM     13  C   UNL     1      -0.123   9.965  19.618  0.00  0.00    +0.000 C 
ATOM     14  C   UNL     1       1.382   9.860  19.886  0.00  0.00    +0.000 C 
ENDROOT
BRANCH   1  15
ATOM     15  C   UNL     1       2.528   7.293  18.899  0.00  0.00    +0.000 C 
BRANCH  15  17
ATOM     16  C   UNL     1       2.918   5.160  17.901  0.00  0.00    +0.000 C 
ATOM     17  O   UNL     1       3.448   6.237  18.662  0.00  0.00    +0.000 OA
ENDBRANCH  15  17
ENDBRANCH   1  15
BRANCH  11  18
ATOM     18  C   UNL     1      -1.276  12.560  18.822  0.00  0.00    +0.000 C 
BRANCH  18  19
ATOM     19  C   UNL     1      -2.432  11.889  18.137  0.00  0.00    +0.000 A 
ATOM     20  C   UNL     1      -3.719  11.794  18.631  0.00  0.00    +0.000 A 
ATOM     21  S   UNL     1      -4.724  10.964  17.525  0.00  0.00    +0.000 S 
ATOM     22  C   UNL     1      -3.399  10.831  16.440  0.00  0.00    +0.000 A 
ATOM     23  C   UNL     1      -3.593  10.272  15.073  0.00  0.00    +0.000 C 
ATOM     24  N   UNL     1      -2.254  11.293  16.891  0.00  0.00    +0.000 NA
ENDBRANCH  18  19
ENDBRANCH  11  18
TORSDOF 4
ENDMDL
MODEL 6
REMARK VINA RESULT:      -6.7      3.565      6.523
REMARK  Name = 
REMARK  6 active torsions:
REMARK  status: ('A' for Active; 'I' for Inactive)
REMARK    1  A    between atoms: C_1  and  O_2
REMARK    2  A    between atoms: O_2  and  C_3
REMARK    3  A    between atoms: C_3  and  C_4
REMARK    4  A    between atoms: N_14  and  C_15
REMARK    5  A    between atoms: C_15  and  C_16
REMARK    6  A    between atoms: C_19  and  C_20
REMARK                            x       y       z     vdW  Elec       q    Type
REMARK                         _______ _______ _______ _____ _____    ______ ____
ROOT
ATOM      1  C   UNL     1       0.567  11.441  20.301  0.00  0.00    +0.000 C 
ATOM      2  O   UNL     1       0.840  11.751  21.467  0.00  0.00    +0.000 OA
ATOM      3  N   UNL     1       0.306  10.124  19.957  0.00  0.00    +0.000 N 
ATOM      4  C   UNL     1       0.055   9.136  21.016  0.00  0.00    +0.000 C 
ATOM      5  C   UNL     1       1.254   8.262  21.430  0.00  0.00    +0.000 C 
ATOM      6  C   UNL     1       1.744   7.290  20.367  0.00  0.00    +0.000 A 
ATOM      7  C   UNL     1       1.627   5.875  20.654  0.00  0.00    +0.000 A 
ATOM      8  C   UNL     1       1.992   4.958  19.752  0.00  0.00    +0.000 A 
ATOM      9  C   UNL     1       2.566   5.373  18.451  0.00  0.00    +0.000 A 
ATOM     10  O   UNL     1       2.892   4.504  17.645  0.00  0.00    +0.000 OA
ATOM     11  N   UNL     1       2.707   6.744  18.242  0.00  0.00    +0.000 N 
ATOM     12  C   UNL     1       2.259   7.688  19.179  0.00  0.00    +0.000 A 
ATOM     13  C   UNL     1       2.247   9.156  18.827  0.00  0.00    +0.000 C 
ATOM     14  C   UNL     1       0.793   9.614  18.680  0.00  0.00    +0.000 C 
ENDROOT
BRANCH   1  15
ATOM     15  C   UNL     1       0.468  12.531  19.191  0.00  0.00    +0.000 C 
BRANCH  15  17
ATOM     16  C   UNL     1       2.518  13.153  18.138  0.00  0.00    +0.000 C 
ATOM     17  O   UNL     1       1.457  13.533  19.003  0.00  0.00    +0.000 OA
ENDBRANCH  15  17
ENDBRANCH   1  15
BRANCH  11  18
ATOM     18  C   UNL     1       3.326   7.134  16.971  0.00  0.00    +0.000 C 
BRANCH  18  19
ATOM     19  C   UNL     1       4.728   6.606  16.870  0.00  0.00    +0.000 A 
ATOM     20  C   UNL     1       5.701   6.705  17.847  0.00  0.00    +0.000 A 
ATOM     21  S   UNL     1       7.148   5.957  17.329  0.00  0.00    +0.000 S 
ATOM     22  C   UNL     1       6.374   5.504  15.864  0.00  0.00    +0.000 A 
ATOM     23  C   UNL     1       7.067   4.626  14.881  0.00  0.00    +0.000 C 
ATOM     24  N   UNL     1       5.144   5.947  15.717  0.00  0.00    +0.000 NA
ENDBRANCH  18  19
ENDBRANCH  11  18
TORSDOF 4
ENDMDL
MODEL 7
REMARK VINA RESULT:      -6.6      4.718      7.740
REMARK  Name = 
REMARK  6 active torsions:
REMARK  status: ('A' for Active; 'I' for Inactive)
REMARK    1  A    between atoms: C_1  and  O_2
REMARK    2  A    between atoms: O_2  and  C_3
REMARK    3  A    between atoms: C_3  and  C_4
REMARK    4  A    between atoms: N_14  and  C_15
REMARK    5  A    between atoms: C_15  and  C_16
REMARK    6  A    between atoms: C_19  and  C_20
REMARK                            x       y       z     vdW  Elec       q    Type
REMARK                         _______ _______ _______ _____ _____    ______ ____
ROOT
ATOM      1  C   UNL     1       1.768   7.425  20.235  0.00  0.00    +0.000 C 
ATOM      2  O   UNL     1       1.310   6.447  20.838  0.00  0.00    +0.000 OA
ATOM      3  N   UNL     1       1.653   8.702  20.760  0.00  0.00    +0.000 N 
ATOM      4  C   UNL     1       1.259   8.874  22.166  0.00  0.00    +0.000 C 
ATOM      5  C   UNL     1      -0.229   9.179  22.424  0.00  0.00    +0.000 C 
ATOM      6  C   UNL     1      -0.709  10.531  21.919  0.00  0.00    +0.000 A 
ATOM      7  C   UNL     1      -1.159  11.490  22.907  0.00  0.00    +0.000 A 
ATOM      8  C   UNL     1      -1.552  12.716  22.547  0.00  0.00    +0.000 A 
ATOM      9  C   UNL     1      -1.577  13.105  21.118  0.00  0.00    +0.000 A 
ATOM     10  O   UNL     1      -1.945  14.240  20.822  0.00  0.00    +0.000 OA
ATOM     11  N   UNL     1      -1.186  12.132  20.200  0.00  0.00    +0.000 N 
ATOM     12  C   UNL     1      -0.718  10.873  20.608  0.00  0.00    +0.000 A 
ATOM     13  C   UNL     1      -0.117   9.926  19.597  0.00  0.00    +0.000 C 
ATOM     14  C   UNL     1       1.388   9.819  19.859  0.00  0.00    +0.000 C 
ENDROOT
BRANCH   1  15
ATOM     15  C   UNL     1       2.525   7.242  18.885  0.00  0.00    +0.000 C 
BRANCH  15  17
ATOM     16  C   UNL     1       4.189   5.536  19.024  0.00  0.00    +0.000 C 
ATOM     17  O   UNL     1       2.982   5.980  18.420  0.00  0.00    +0.000 OA
ENDBRANCH  15  17
ENDBRANCH   1  15
BRANCH  11  18
ATOM     18  C   UNL     1      -1.268  12.518  18.788  0.00  0.00    +0.000 C 
BRANCH  18  19
ATOM     19  C   UNL     1      -2.442  11.863  18.118  0.00  0.00    +0.000 A 
ATOM     20  C   UNL     1      -2.423  11.239  16.885  0.00  0.00    +0.000 A 
ATOM     21  S   UNL     1      -3.970  10.616  16.507  0.00  0.00    +0.000 S 
ATOM     22  C   UNL     1      -4.550  11.169  18.026  0.00  0.00    +0.000 A 
ATOM     23  C   UNL     1      -5.927  10.830  18.479  0.00  0.00    +0.000 C 
ATOM     24  N   UNL     1      -3.684  11.850  18.745  0.00  0.00    +0.000 NA
ENDBRANCH  18  19
ENDBRANCH  11  18
TORSDOF 4
ENDMDL
MODEL 8
REMARK VINA RESULT:      -6.6      3.646      6.799
REMARK  Name = 
REMARK  6 active torsions:
REMARK  status: ('A' for Active; 'I' for Inactive)
REMARK    1  A    between atoms: C_1  and  O_2
REMARK    2  A    between atoms: O_2  and  C_3
REMARK    3  A    between atoms: C_3  and  C_4
REMARK    4  A    between atoms: N_14  and  C_15
REMARK    5  A    between atoms: C_15  and  C_16
REMARK    6  A    between atoms: C_19  and  C_20
REMARK                            x       y       z     vdW  Elec       q    Type
REMARK                         _______ _______ _______ _____ _____    ______ ____
ROOT
ATOM      1  C   UNL     1       0.563  11.364  20.344  0.00  0.00    +0.000 C 
ATOM      2  O   UNL     1       0.839  11.667  21.511  0.00  0.00    +0.000 OA
ATOM      3  N   UNL     1       0.309  10.048  19.992  0.00  0.00    +0.000 N 
ATOM      4  C   UNL     1       0.069   9.051  21.044  0.00  0.00    +0.000 C 
ATOM      5  C   UNL     1       1.275   8.182  21.447  0.00  0.00    +0.000 C 
ATOM      6  C   UNL     1       1.768   7.220  20.374  0.00  0.00    +0.000 A 
ATOM      7  C   UNL     1       1.662   5.802  20.652  0.00  0.00    +0.000 A 
ATOM      8  C   UNL     1       2.029   4.895  19.741  0.00  0.00    +0.000 A 
ATOM      9  C   UNL     1       2.595   5.324  18.441  0.00  0.00    +0.000 A 
ATOM     10  O   UNL     1       2.924   4.462  17.628  0.00  0.00    +0.000 OA
ATOM     11  N   UNL     1       2.726   6.697  18.241  0.00  0.00    +0.000 N 
ATOM     12  C   UNL     1       2.275   7.631  19.187  0.00  0.00    +0.000 A 
ATOM     13  C   UNL     1       2.253   9.101  18.846  0.00  0.00    +0.000 C 
ATOM     14  C   UNL     1       0.795   9.551  18.708  0.00  0.00    +0.000 C 
ENDROOT
BRANCH   1  15
ATOM     15  C   UNL     1       0.453  12.462  19.242  0.00  0.00    +0.000 C 
BRANCH  15  17
ATOM     16  C   UNL     1      -1.928  12.609  19.334  0.00  0.00    +0.000 C 
ATOM     17  O   UNL     1      -0.753  12.737  18.545  0.00  0.00    +0.000 OA
ENDBRANCH  15  17
ENDBRANCH   1  15
BRANCH  11  18
ATOM     18  C   UNL     1       3.338   7.101  16.972  0.00  0.00    +0.000 C 
BRANCH  18  19
ATOM     19  C   UNL     1       4.739   6.574  16.857  0.00  0.00    +0.000 A 
ATOM     20  C   UNL     1       5.714   6.653  17.834  0.00  0.00    +0.000 A 
ATOM     21  S   UNL     1       7.160   5.916  17.297  0.00  0.00    +0.000 S 
ATOM     22  C   UNL     1       6.383   5.493  15.825  0.00  0.00    +0.000 A 
ATOM     23  C   UNL     1       7.074   4.635  14.823  0.00  0.00    +0.000 C 
ATOM     24  N   UNL     1       5.152   5.939  15.690  0.00  0.00    +0.000 NA
ENDBRANCH  18  19
ENDBRANCH  11  18
TORSDOF 4
ENDMDL
MODEL 9
REMARK VINA RESULT:      -6.5      4.270      6.987
REMARK  Name = 
REMARK  6 active torsions:
REMARK  status: ('A' for Active; 'I' for Inactive)
REMARK    1  A    between atoms: C_1  and  O_2
REMARK    2  A    between atoms: O_2  and  C_3
REMARK    3  A    between atoms: C_3  and  C_4
REMARK    4  A    between atoms: N_14  and  C_15
REMARK    5  A    between atoms: C_15  and  C_16
REMARK    6  A    between atoms: C_19  and  C_20
REMARK                            x       y       z     vdW  Elec       q    Type
REMARK                         _______ _______ _______ _____ _____    ______ ____
ROOT
ATOM      1  C   UNL     1       2.186   7.080  19.124  0.00  0.00    +0.000 C 
ATOM      2  O   UNL     1       1.781   6.000  19.570  0.00  0.00    +0.000 OA
ATOM      3  N   UNL     1       2.034   8.251  19.849  0.00  0.00    +0.000 N 
ATOM      4  C   UNL     1       1.668   8.179  21.271  0.00  0.00    +0.000 C 
ATOM      5  C   UNL     1       0.176   8.375  21.601  0.00  0.00    +0.000 C 
ATOM      6  C   UNL     1      -0.370   9.769  21.328  0.00  0.00    +0.000 A 
ATOM      7  C   UNL     1      -0.832  10.537  22.466  0.00  0.00    +0.000 A 
ATOM      8  C   UNL     1      -1.282  11.787  22.314  0.00  0.00    +0.000 A 
ATOM      9  C   UNL     1      -1.358  12.399  20.967  0.00  0.00    +0.000 A 
ATOM     10  O   UNL     1      -1.778  13.549  20.864  0.00  0.00    +0.000 OA
ATOM     11  N   UNL     1      -0.951  11.602  19.898  0.00  0.00    +0.000 N 
ATOM     12  C   UNL     1      -0.424  10.315  20.090  0.00  0.00    +0.000 A 
ATOM     13  C   UNL     1       0.188   9.568  18.929  0.00  0.00    +0.000 C 
ATOM     14  C   UNL     1       1.703   9.485  19.143  0.00  0.00    +0.000 C 
ENDROOT
BRANCH   1  15
ATOM     15  C   UNL     1       2.916   7.148  17.748  0.00  0.00    +0.000 C 
BRANCH  15  17
ATOM     16  C   UNL     1       4.856   6.401  16.575  0.00  0.00    +0.000 C 
ATOM     17  O   UNL     1       4.330   7.198  17.627  0.00  0.00    +0.000 OA
ENDBRANCH  15  17
ENDBRANCH   1  15
BRANCH  11  18
ATOM     18  C   UNL     1      -1.083  12.204  18.568  0.00  0.00    +0.000 C 
BRANCH  18  19
ATOM     19  C   UNL     1      -2.296  11.677  17.856  0.00  0.00    +0.000 A 
ATOM     20  C   UNL     1      -3.593  11.718  18.332  0.00  0.00    +0.000 A 
ATOM     21  S   UNL     1      -4.668  11.024  17.198  0.00  0.00    +0.000 S 
ATOM     22  C   UNL     1      -3.350  10.763  16.128  0.00  0.00    +0.000 A 
ATOM     23  C   UNL     1      -3.585  10.253  14.748  0.00  0.00    +0.000 C 
ATOM     24  N   UNL     1      -2.167  11.087  16.602  0.00  0.00    +0.000 NA
ENDBRANCH  18  19
ENDBRANCH  11  18
TORSDOF 4
ENDMDL
