MODEL 1
REMARK VINA RESULT:      -7.4      0.000      0.000
REMARK  Name = 
REMARK  5 active torsions:
REMARK  status: ('A' for Active; 'I' for Inactive)
REMARK    1  A    between atoms: C_1  and  C_2
REMARK    2  A    between atoms: C_7  and  C_8
REMARK    3  A    between atoms: N_17  and  C_18
REMARK    4  A    between atoms: C_19  and  C_20
REMARK    5  A    between atoms: C_24  and  C_25
REMARK                            x       y       z     vdW  Elec       q    Type
REMARK                         _______ _______ _______ _____ _____    ______ ____
ROOT
ATOM      1  C   UNL     1       0.768  15.498  19.545  0.00  0.00    +0.000 A 
ATOM      2  N   UNL     1       1.540  15.781  20.619  0.00  0.00    +0.000 NA
ATOM      3  C   UNL     1       1.885  14.768  21.426  0.00  0.00    +0.000 A 
ATOM      4  N   UNL     1       1.514  13.491  21.294  0.00  0.00    +0.000 NA
ATOM      5  C   UNL     1       0.623  13.263  20.333  0.00  0.00    +0.000 A 
ATOM      6  C   UNL     1       0.280  14.221  19.396  0.00  0.00    +0.000 A 
ATOM      7  N   UNL     1      -0.596  13.658  18.481  0.00  0.00    +0.000 N 
ATOM      8  C   UNL     1      -1.026  12.424  18.986  0.00  0.00    +0.000 A 
ATOM      9  S   UNL     1      -2.437  11.778  18.389  0.00  0.00    +0.000 S 
ATOM     10  N   UNL     1      -0.166  12.094  20.088  0.00  0.00    +0.000 N 
ATOM     11  H   UNL     1      -1.033  14.122  17.698  0.00  0.00    +0.000 HD
ENDROOT
BRANCH  10  12
ATOM     12  C   UNL     1      -0.103  10.890  20.884  0.00  0.00    +0.000 A 
ATOM     13  C   UNL     1      -0.656  10.853  22.206  0.00  0.00    +0.000 A 
ATOM     14  C   UNL     1      -1.429  11.950  22.897  0.00  0.00    +0.000 C 
ATOM     15  C   UNL     1      -0.559   9.681  23.000  0.00  0.00    +0.000 A 
ATOM     16  C   UNL     1      -0.021   8.513  22.512  0.00  0.00    +0.000 A 
ATOM     17  C   UNL     1       0.468   8.503  21.222  0.00  0.00    +0.000 A 
ATOM     18  C   UNL     1       0.484   9.670  20.418  0.00  0.00    +0.000 A 
ATOM     19  C   UNL     1       1.188   9.439  19.103  0.00  0.00    +0.000 C 
ENDBRANCH  10  12
BRANCH   1  26
ATOM     20  C   UNL     1       2.888  16.494  17.596  0.00  0.00    +0.000 C 
ATOM     21  C   UNL     1       1.481  17.050  17.646  0.00  0.00    +0.000 A 
ATOM     22  C   UNL     1       1.146  18.038  16.706  0.00  0.00    +0.000 A 
ATOM     23  C   UNL     1      -0.115  18.623  16.694  0.00  0.00    +0.000 A 
ATOM     24  C   UNL     1      -1.039  18.270  17.664  0.00  0.00    +0.000 A 
ATOM     25  C   UNL     1      -0.708  17.316  18.626  0.00  0.00    +0.000 A 
ATOM     26  C   UNL     1       0.528  16.625  18.604  0.00  0.00    +0.000 A 
ENDBRANCH   1  26
TORSDOF 2
ENDMDL
MODEL 2
REMARK VINA RESULT:      -7.3      0.750      2.012
REMARK  Name = 
REMARK  5 active torsions:
REMARK  status: ('A' for Active; 'I' for Inactive)
REMARK    1  A    between atoms: C_1  and  C_2
REMARK    2  A    between atoms: C_7  and  C_8
REMARK    3  A    between atoms: N_17  and  C_18
REMARK    4  A    between atoms: C_19  and  C_20
REMARK    5  A    between atoms: C_24  and  C_25
REMARK                            x       y       z     vdW  Elec       q    Type
REMARK                         _______ _______ _______ _____ _____    ______ ____
ROOT
ATOM      1  C   UNL     1       1.077  15.230  19.347  0.00  0.00    +0.000 A 
ATOM      2  N   UNL     1       1.910  15.427  20.394  0.00  0.00    +0.000 NA
ATOM      3  C   UNL     1       2.396  14.345  21.020  0.00  0.00    +0.000 A 
ATOM      4  N   UNL     1       2.113  13.071  20.730  0.00  0.00    +0.000 NA
ATOM      5  C   UNL     1       1.166  12.903  19.811  0.00  0.00    +0.000 A 
ATOM      6  C   UNL     1       0.676  13.949  19.049  0.00  0.00    +0.000 A 
ATOM      7  N   UNL     1      -0.226  13.445  18.125  0.00  0.00    +0.000 N 
ATOM      8  C   UNL     1      -0.520  12.120  18.475  0.00  0.00    +0.000 A 
ATOM      9  S   UNL     1      -1.922  11.444  17.890  0.00  0.00    +0.000 S 
ATOM     10  N   UNL     1       0.450  11.716  19.455  0.00  0.00    +0.000 N 
ATOM     11  H   UNL     1      -0.759  13.973  17.450  0.00  0.00    +0.000 HD
ENDROOT
BRANCH  10  12
ATOM     12  C   UNL     1       0.668  10.423  20.061  0.00  0.00    +0.000 A 
ATOM     13  C   UNL     1       1.351   9.383  19.349  0.00  0.00    +0.000 A 
ATOM     14  C   UNL     1       1.999   9.488  17.990  0.00  0.00    +0.000 C 
ATOM     15  C   UNL     1       1.528   8.102  19.933  0.00  0.00    +0.000 A 
ATOM     16  C   UNL     1       1.143   7.830  21.225  0.00  0.00    +0.000 A 
ATOM     17  C   UNL     1       0.535   8.829  21.954  0.00  0.00    +0.000 A 
ATOM     18  C   UNL     1       0.246  10.098  21.390  0.00  0.00    +0.000 A 
ATOM     19  C   UNL     1      -0.540  10.970  22.339  0.00  0.00    +0.000 C 
ENDBRANCH  10  12
BRANCH   1  26
ATOM     20  C   UNL     1       2.993  16.743  17.523  0.00  0.00    +0.000 C 
ATOM     21  C   UNL     1       1.537  17.122  17.694  0.00  0.00    +0.000 A 
ATOM     22  C   UNL     1       1.058  18.197  16.927  0.00  0.00    +0.000 A 
ATOM     23  C   UNL     1      -0.259  18.630  17.038  0.00  0.00    +0.000 A 
ATOM     24  C   UNL     1      -1.097  18.032  17.964  0.00  0.00    +0.000 A 
ATOM     25  C   UNL     1      -0.624  16.987  18.758  0.00  0.00    +0.000 A 
ATOM     26  C   UNL     1       0.677  16.452  18.599  0.00  0.00    +0.000 A 
ENDBRANCH   1  26
TORSDOF 2
ENDMDL
MODEL 3
REMARK VINA RESULT:      -7.1      0.790      1.121
REMARK  Name = 
REMARK  5 active torsions:
REMARK  status: ('A' for Active; 'I' for Inactive)
REMARK    1  A    between atoms: C_1  and  C_2
REMARK    2  A    between atoms: C_7  and  C_8
REMARK    3  A    between atoms: N_17  and  C_18
REMARK    4  A    between atoms: C_19  and  C_20
REMARK    5  A    between atoms: C_24  and  C_25
REMARK                            x       y       z     vdW  Elec       q    Type
REMARK                         _______ _______ _______ _____ _____    ______ ____
ROOT
ATOM      1  C   UNL     1       0.643  15.224  19.595  0.00  0.00    +0.000 A 
ATOM      2  N   UNL     1       1.477  15.429  20.639  0.00  0.00    +0.000 NA
ATOM      3  C   UNL     1       2.065  14.358  21.191  0.00  0.00    +0.000 A 
ATOM      4  N   UNL     1       1.885  13.084  20.828  0.00  0.00    +0.000 NA
ATOM      5  C   UNL     1       0.938  12.890  19.915  0.00  0.00    +0.000 A 
ATOM      6  C   UNL     1       0.346  13.933  19.226  0.00  0.00    +0.000 A 
ATOM      7  N   UNL     1      -0.529  13.409  18.286  0.00  0.00    +0.000 N 
ATOM      8  C   UNL     1      -0.702  12.046  18.559  0.00  0.00    +0.000 A 
ATOM      9  S   UNL     1      -2.053  11.287  17.955  0.00  0.00    +0.000 S 
ATOM     10  N   UNL     1       0.318  11.669  19.498  0.00  0.00    +0.000 N 
ATOM     11  H   UNL     1      -1.118  13.929  17.653  0.00  0.00    +0.000 HD
ENDROOT
BRANCH  10  12
ATOM     12  C   UNL     1       0.657  10.366  20.021  0.00  0.00    +0.000 A 
ATOM     13  C   UNL     1       0.278   9.987  21.351  0.00  0.00    +0.000 A 
ATOM     14  C   UNL     1      -0.564  10.785  22.317  0.00  0.00    +0.000 C 
ATOM     15  C   UNL     1       0.646   8.721  21.876  0.00  0.00    +0.000 A 
ATOM     16  C   UNL     1       1.293   7.776  21.114  0.00  0.00    +0.000 A 
ATOM     17  C   UNL     1       1.620   8.092  19.813  0.00  0.00    +0.000 A 
ATOM     18  C   UNL     1       1.362   9.375  19.266  0.00  0.00    +0.000 A 
ATOM     19  C   UNL     1       1.931   9.519  17.876  0.00  0.00    +0.000 C 
ENDBRANCH  10  12
BRANCH   1  26
ATOM     20  C   UNL     1       2.309  16.859  17.636  0.00  0.00    +0.000 C 
ATOM     21  C   UNL     1       0.865  17.176  17.963  0.00  0.00    +0.000 A 
ATOM     22  C   UNL     1       0.273  18.252  17.281  0.00  0.00    +0.000 A 
ATOM     23  C   UNL     1      -1.040  18.631  17.536  0.00  0.00    +0.000 A 
ATOM     24  C   UNL     1      -1.759  17.976  18.523  0.00  0.00    +0.000 A 
ATOM     25  C   UNL     1      -1.171  16.930  19.233  0.00  0.00    +0.000 A 
ATOM     26  C   UNL     1       0.126  16.449  18.928  0.00  0.00    +0.000 A 
ENDBRANCH   1  26
TORSDOF 2
ENDMDL
MODEL 4
REMARK VINA RESULT:      -7.0      0.520      1.432
REMARK  Name = 
REMARK  5 active torsions:
REMARK  status: ('A' for Active; 'I' for Inactive)
REMARK    1  A    between atoms: C_1  and  C_2
REMARK    2  A    between atoms: C_7  and  C_8
REMARK    3  A    between atoms: N_17  and  C_18
REMARK    4  A    between atoms: C_19  and  C_20
REMARK    5  A    between atoms: C_24  and  C_25
REMARK                            x       y       z     vdW  Elec       q    Type
REMARK                         _______ _______ _______ _____ _____    ______ ____
ROOT
ATOM      1  C   UNL     1       0.974  15.514  19.355  0.00  0.00    +0.000 A 
ATOM      2  N   UNL     1       1.693  15.880  20.440  0.00  0.00    +0.000 NA
ATOM      3  C   UNL     1       1.935  14.950  21.375  0.00  0.00    +0.000 A 
ATOM      4  N   UNL     1       1.506  13.685  21.360  0.00  0.00    +0.000 NA
ATOM      5  C   UNL     1       0.664  13.391  20.373  0.00  0.00    +0.000 A 
ATOM      6  C   UNL     1       0.429  14.252  19.316  0.00  0.00    +0.000 A 
ATOM      7  N   UNL     1      -0.418  13.629  18.412  0.00  0.00    +0.000 N 
ATOM      8  C   UNL     1      -0.943  12.481  19.020  0.00  0.00    +0.000 A 
ATOM      9  S   UNL     1      -2.347  11.837  18.406  0.00  0.00    +0.000 S 
ATOM     10  N   UNL     1      -0.169  12.239  20.206  0.00  0.00    +0.000 N 
ATOM     11  H   UNL     1      -0.782  14.021  17.556  0.00  0.00    +0.000 HD
ENDROOT
BRANCH  10  12
ATOM     12  C   UNL     1      -0.218  11.131  21.132  0.00  0.00    +0.000 A 
ATOM     13  C   UNL     1      -0.831  11.275  22.420  0.00  0.00    +0.000 A 
ATOM     14  C   UNL     1      -1.565  12.486  22.944  0.00  0.00    +0.000 C 
ATOM     15  C   UNL     1      -0.844  10.197  23.341  0.00  0.00    +0.000 A 
ATOM     16  C   UNL     1      -0.358   8.952  23.014  0.00  0.00    +0.000 A 
ATOM     17  C   UNL     1       0.187   8.768  21.760  0.00  0.00    +0.000 A 
ATOM     18  C   UNL     1       0.312   9.835  20.834  0.00  0.00    +0.000 A 
ATOM     19  C   UNL     1       1.059   9.416  19.591  0.00  0.00    +0.000 C 
ENDBRANCH  10  12
BRANCH   1  26
ATOM     20  C   UNL     1      -1.563  17.144  18.920  0.00  0.00    +0.000 C 
ATOM     21  C   UNL     1      -0.297  17.350  18.116  0.00  0.00    +0.000 A 
ATOM     22  C   UNL     1      -0.301  18.380  17.162  0.00  0.00    +0.000 A 
ATOM     23  C   UNL     1       0.808  18.625  16.361  0.00  0.00    +0.000 A 
ATOM     24  C   UNL     1       1.916  17.800  16.462  0.00  0.00    +0.000 A 
ATOM     25  C   UNL     1       1.921  16.750  17.380  0.00  0.00    +0.000 A 
ATOM     26  C   UNL     1       0.851  16.537  18.283  0.00  0.00    +0.000 A 
ENDBRANCH   1  26
TORSDOF 2
ENDMDL
MODEL 5
REMARK VINA RESULT:      -6.8      1.031      2.613
REMARK  Name = 
REMARK  5 active torsions:
REMARK  status: ('A' for Active; 'I' for Inactive)
REMARK    1  A    between atoms: C_1  and  C_2
REMARK    2  A    between atoms: C_7  and  C_8
REMARK    3  A    between atoms: N_17  and  C_18
REMARK    4  A    between atoms: C_19  and  C_20
REMARK    5  A    between atoms: C_24  and  C_25
REMARK                            x       y       z     vdW  Elec       q    Type
REMARK                         _______ _______ _______ _____ _____    ______ ____
ROOT
ATOM      1  C   UNL     1       0.455  14.997  19.573  0.00  0.00    +0.000 A 
ATOM      2  N   UNL     1       1.379  15.236  20.530  0.00  0.00    +0.000 NA
ATOM      3  C   UNL     1       2.039  14.187  21.041  0.00  0.00    +0.000 A 
ATOM      4  N   UNL     1       1.853  12.904  20.717  0.00  0.00    +0.000 NA
ATOM      5  C   UNL     1       0.829  12.675  19.901  0.00  0.00    +0.000 A 
ATOM      6  C   UNL     1       0.153  13.694  19.254  0.00  0.00    +0.000 A 
ATOM      7  N   UNL     1      -0.796  13.136  18.410  0.00  0.00    +0.000 N 
ATOM      8  C   UNL     1      -0.913  11.774  18.719  0.00  0.00    +0.000 A 
ATOM      9  S   UNL     1      -2.298  10.979  18.258  0.00  0.00    +0.000 S 
ATOM     10  N   UNL     1       0.199  11.435  19.563  0.00  0.00    +0.000 N 
ATOM     11  H   UNL     1      -1.453  13.633  17.827  0.00  0.00    +0.000 HD
ENDROOT
BRANCH  10  12
ATOM     12  C   UNL     1       0.613  10.148  20.073  0.00  0.00    +0.000 A 
ATOM     13  C   UNL     1       1.366   9.241  19.256  0.00  0.00    +0.000 A 
ATOM     14  C   UNL     1       1.901   9.501  17.869  0.00  0.00    +0.000 C 
ATOM     15  C   UNL     1       1.738   7.963  19.746  0.00  0.00    +0.000 A 
ATOM     16  C   UNL     1       1.479   7.574  21.040  0.00  0.00    +0.000 A 
ATOM     17  C   UNL     1       0.805   8.449  21.867  0.00  0.00    +0.000 A 
ATOM     18  C   UNL     1       0.327   9.700  21.402  0.00  0.00    +0.000 A 
ATOM     19  C   UNL     1      -0.491  10.414  22.450  0.00  0.00    +0.000 C 
ENDBRANCH  10  12
BRANCH   1  26
ATOM     20  C   UNL     1      -2.211  16.167  20.472  0.00  0.00    +0.000 C 
ATOM     21  C   UNL     1      -1.351  16.793  19.394  0.00  0.00    +0.000 A 
ATOM     22  C   UNL     1      -1.803  17.998  18.831  0.00  0.00    +0.000 A 
ATOM     23  C   UNL     1      -1.091  18.630  17.818  0.00  0.00    +0.000 A 
ATOM     24  C   UNL     1       0.051  18.033  17.313  0.00  0.00    +0.000 A 
ATOM     25  C   UNL     1       0.492  16.818  17.838  0.00  0.00    +0.000 A 
ATOM     26  C   UNL     1      -0.149  16.199  18.939  0.00  0.00    +0.000 A 
ENDBRANCH   1  26
TORSDOF 2
ENDMDL
MODEL 6
REMARK VINA RESULT:      -6.6      1.698      7.411
REMARK  Name = 
REMARK  5 active torsions:
REMARK  status: ('A' for Active; 'I' for Inactive)
REMARK    1  A    between atoms: C_1  and  C_2
REMARK    2  A    between atoms: C_7  and  C_8
REMARK    3  A    between atoms: N_17  and  C_18
REMARK    4  A    between atoms: C_19  and  C_20
REMARK    5  A    between atoms: C_24  and  C_25
REMARK                            x       y       z     vdW  Elec       q    Type
REMARK                         _______ _______ _______ _____ _____    ______ ____
ROOT
ATOM      1  C   UNL     1      -0.194  12.036  20.243  0.00  0.00    +0.000 A 
ATOM      2  N   UNL     1      -1.068  11.709  19.264  0.00  0.00    +0.000 NA
ATOM      3  C   UNL     1      -1.140  12.513  18.194  0.00  0.00    +0.000 A 
ATOM      4  N   UNL     1      -0.446  13.639  18.004  0.00  0.00    +0.000 NA
ATOM      5  C   UNL     1       0.281  14.032  19.046  0.00  0.00    +0.000 A 
ATOM      6  C   UNL     1       0.489  13.227  20.152  0.00  0.00    +0.000 A 
ATOM      7  N   UNL     1       1.355  13.874  21.019  0.00  0.00    +0.000 N 
ATOM      8  C   UNL     1       1.486  15.205  20.599  0.00  0.00    +0.000 A 
ATOM      9  S   UNL     1       2.019  16.329  21.702  0.00  0.00    +0.000 S 
ATOM     10  N   UNL     1       0.924  15.288  19.280  0.00  0.00    +0.000 N 
ATOM     11  H   UNL     1       1.672  13.541  21.918  0.00  0.00    +0.000 HD
ENDROOT
BRANCH  10  12
ATOM     12  C   UNL     1       0.901  16.397  18.354  0.00  0.00    +0.000 A 
ATOM     13  C   UNL     1      -0.267  17.217  18.217  0.00  0.00    +0.000 A 
ATOM     14  C   UNL     1      -1.536  17.131  19.029  0.00  0.00    +0.000 C 
ATOM     15  C   UNL     1      -0.299  18.281  17.279  0.00  0.00    +0.000 A 
ATOM     16  C   UNL     1       0.803  18.630  16.534  0.00  0.00    +0.000 A 
ATOM     17  C   UNL     1       1.959  17.894  16.686  0.00  0.00    +0.000 A 
ATOM     18  C   UNL     1       2.020  16.762  17.538  0.00  0.00    +0.000 A 
ATOM     19  C   UNL     1       3.345  16.048  17.432  0.00  0.00    +0.000 C 
ENDBRANCH  10  12
BRANCH   1  26
ATOM     20  C   UNL     1      -1.854  12.154  22.795  0.00  0.00    +0.000 C 
ATOM     21  C   UNL     1      -0.863  11.047  22.500  0.00  0.00    +0.000 A 
ATOM     22  C   UNL     1      -0.757  10.011  23.442  0.00  0.00    +0.000 A 
ATOM     23  C   UNL     1       0.144   8.967  23.266  0.00  0.00    +0.000 A 
ATOM     24  C   UNL     1       0.996   8.980  22.174  0.00  0.00    +0.000 A 
ATOM     25  C   UNL     1       0.927  10.022  21.250  0.00  0.00    +0.000 A 
ATOM     26  C   UNL     1      -0.048  11.044  21.341  0.00  0.00    +0.000 A 
ENDBRANCH   1  26
TORSDOF 2
ENDMDL
MODEL 7
REMARK VINA RESULT:      -6.5      0.985      1.831
REMARK  Name = 
REMARK  5 active torsions:
REMARK  status: ('A' for Active; 'I' for Inactive)
REMARK    1  A    between atoms: C_1  and  C_2
REMARK    2  A    between atoms: C_7  and  C_8
REMARK    3  A    between atoms: N_17  and  C_18
REMARK    4  A    between atoms: C_19  and  C_20
REMARK    5  A    between atoms: C_24  and  C_25
REMARK                            x       y       z     vdW  Elec       q    Type
REMARK                         _______ _______ _______ _____ _____    ______ ____
ROOT
ATOM      1  C   UNL     1       1.176  14.950  19.268  0.00  0.00    +0.000 A 
ATOM      2  N   UNL     1       2.037  15.147  20.292  0.00  0.00    +0.000 NA
ATOM      3  C   UNL     1       2.548  14.066  20.898  0.00  0.00    +0.000 A 
ATOM      4  N   UNL     1       2.266  12.792  20.610  0.00  0.00    +0.000 NA
ATOM      5  C   UNL     1       1.296  12.621  19.718  0.00  0.00    +0.000 A 
ATOM      6  C   UNL     1       0.777  13.667  18.975  0.00  0.00    +0.000 A 
ATOM      7  N   UNL     1      -0.148  13.160  18.074  0.00  0.00    +0.000 N 
ATOM      8  C   UNL     1      -0.421  11.831  18.425  0.00  0.00    +0.000 A 
ATOM      9  S   UNL     1      -1.834  11.147  17.877  0.00  0.00    +0.000 S 
ATOM     10  N   UNL     1       0.579  11.430  19.375  0.00  0.00    +0.000 N 
ATOM     11  H   UNL     1      -0.703  13.688  17.417  0.00  0.00    +0.000 HD
ENDROOT
BRANCH  10  12
ATOM     12  C   UNL     1       0.824  10.136  19.969  0.00  0.00    +0.000 A 
ATOM     13  C   UNL     1       0.365   9.836  21.293  0.00  0.00    +0.000 A 
ATOM     14  C   UNL     1      -0.477  10.718  22.183  0.00  0.00    +0.000 C 
ATOM     15  C   UNL     1       0.641   8.578  21.888  0.00  0.00    +0.000 A 
ATOM     16  C   UNL     1       1.270   7.568  21.199  0.00  0.00    +0.000 A 
ATOM     17  C   UNL     1       1.673   7.809  19.902  0.00  0.00    +0.000 A 
ATOM     18  C   UNL     1       1.510   9.078  19.291  0.00  0.00    +0.000 A 
ATOM     19  C   UNL     1       2.148   9.131  17.924  0.00  0.00    +0.000 C 
ENDBRANCH  10  12
BRANCH   1  26
ATOM     20  C   UNL     1      -1.534  16.267  19.719  0.00  0.00    +0.000 C 
ATOM     21  C   UNL     1      -0.482  16.833  18.790  0.00  0.00    +0.000 A 
ATOM     22  C   UNL     1      -0.773  18.050  18.153  0.00  0.00    +0.000 A 
ATOM     23  C   UNL     1       0.124  18.631  17.264  0.00  0.00    +0.000 A 
ATOM     24  C   UNL     1       1.300  17.968  16.953  0.00  0.00    +0.000 A 
ATOM     25  C   UNL     1       1.586  16.741  17.550  0.00  0.00    +0.000 A 
ATOM     26  C   UNL     1       0.746  16.172  18.537  0.00  0.00    +0.000 A 
ENDBRANCH   1  26
TORSDOF 2
ENDMDL
MODEL 8
REMARK VINA RESULT:      -6.4      3.607      8.727
REMARK  Name = 
REMARK  5 active torsions:
REMARK  status: ('A' for Active; 'I' for Inactive)
REMARK    1  A    between atoms: C_1  and  C_2
REMARK    2  A    between atoms: C_7  and  C_8
REMARK    3  A    between atoms: N_17  and  C_18
REMARK    4  A    between atoms: C_19  and  C_20
REMARK    5  A    between atoms: C_24  and  C_25
REMARK                            x       y       z     vdW  Elec       q    Type
REMARK                         _______ _______ _______ _____ _____    ______ ____
ROOT
ATOM      1  C   UNL     1       2.169   6.766  19.279  0.00  0.00    +0.000 A 
ATOM      2  N   UNL     1       2.428   6.875  17.956  0.00  0.00    +0.000 NA
ATOM      3  C   UNL     1       2.344   8.092  17.399  0.00  0.00    +0.000 A 
ATOM      4  N   UNL     1       1.995   9.222  18.021  0.00  0.00    +0.000 NA
ATOM      5  C   UNL     1       1.583   9.067  19.276  0.00  0.00    +0.000 A 
ATOM      6  C   UNL     1       1.722   7.873  19.961  0.00  0.00    +0.000 A 
ATOM      7  N   UNL     1       1.286   8.053  21.265  0.00  0.00    +0.000 N 
ATOM      8  C   UNL     1       0.616   9.281  21.340  0.00  0.00    +0.000 A 
ATOM      9  S   UNL     1      -0.442   9.525  22.599  0.00  0.00    +0.000 S 
ATOM     10  N   UNL     1       0.911   9.997  20.130  0.00  0.00    +0.000 N 
ATOM     11  H   UNL     1       1.247   7.352  21.991  0.00  0.00    +0.000 HD
ENDROOT
BRANCH  10  12
ATOM     12  C   UNL     1       0.565  11.348  19.748  0.00  0.00    +0.000 A 
ATOM     13  C   UNL     1      -0.541  11.604  18.872  0.00  0.00    +0.000 A 
ATOM     14  C   UNL     1      -1.518  10.592  18.326  0.00  0.00    +0.000 C 
ATOM     15  C   UNL     1      -0.854  12.927  18.468  0.00  0.00    +0.000 A 
ATOM     16  C   UNL     1      -0.180  14.019  18.964  0.00  0.00    +0.000 A 
ATOM     17  C   UNL     1       0.852  13.807  19.853  0.00  0.00    +0.000 A 
ATOM     18  C   UNL     1       1.270  12.502  20.218  0.00  0.00    +0.000 A 
ATOM     19  C   UNL     1       2.499  12.528  21.094  0.00  0.00    +0.000 C 
ENDBRANCH  10  12
BRANCH   1  26
ATOM     20  C   UNL     1       4.868   5.358  19.126  0.00  0.00    +0.000 C 
ATOM     21  C   UNL     1       3.679   4.795  19.876  0.00  0.00    +0.000 A 
ATOM     22  C   UNL     1       3.869   3.586  20.566  0.00  0.00    +0.000 A 
ATOM     23  C   UNL     1       2.827   2.982  21.261  0.00  0.00    +0.000 A 
ATOM     24  C   UNL     1       1.564   3.549  21.221  0.00  0.00    +0.000 A 
ATOM     25  C   UNL     1       1.353   4.730  20.509  0.00  0.00    +0.000 A 
ATOM     26  C   UNL     1       2.411   5.427  19.879  0.00  0.00    +0.000 A 
ENDBRANCH   1  26
TORSDOF 2
ENDMDL
MODEL 9
REMARK VINA RESULT:      -6.4      2.017      7.327
REMARK  Name = 
REMARK  5 active torsions:
REMARK  status: ('A' for Active; 'I' for Inactive)
REMARK    1  A    between atoms: C_1  and  C_2
REMARK    2  A    between atoms: C_7  and  C_8
REMARK    3  A    between atoms: N_17  and  C_18
REMARK    4  A    between atoms: C_19  and  C_20
REMARK    5  A    between atoms: C_24  and  C_25
REMARK                            x       y       z     vdW  Elec       q    Type
REMARK                         _______ _______ _______ _____ _____    ______ ____
ROOT
ATOM      1  C   UNL     1       0.487  10.914  18.875  0.00  0.00    +0.000 A 
ATOM      2  N   UNL     1      -0.742  10.828  18.316  0.00  0.00    +0.000 NA
ATOM      3  C   UNL     1      -1.310  11.960  17.875  0.00  0.00    +0.000 A 
ATOM      4  N   UNL     1      -0.792  13.189  17.961  0.00  0.00    +0.000 NA
ATOM      5  C   UNL     1       0.335  13.274  18.662  0.00  0.00    +0.000 A 
ATOM      6  C   UNL     1       1.040  12.157  19.072  0.00  0.00    +0.000 A 
ATOM      7  N   UNL     1       2.208  12.570  19.696  0.00  0.00    +0.000 N 
ATOM      8  C   UNL     1       2.119  13.949  19.927  0.00  0.00    +0.000 A 
ATOM      9  S   UNL     1       3.099  14.616  21.093  0.00  0.00    +0.000 S 
ATOM     10  N   UNL     1       1.006  14.435  19.161  0.00  0.00    +0.000 N 
ATOM     11  H   UNL     1       2.910  11.979  20.117  0.00  0.00    +0.000 HD
ENDROOT
BRANCH  10  12
ATOM     12  C   UNL     1       0.547  15.790  18.955  0.00  0.00    +0.000 A 
ATOM     13  C   UNL     1      -0.689  16.242  19.525  0.00  0.00    +0.000 A 
ATOM     14  C   UNL     1      -1.597  15.469  20.451  0.00  0.00    +0.000 C 
ATOM     15  C   UNL     1      -1.156  17.560  19.290  0.00  0.00    +0.000 A 
ATOM     16  C   UNL     1      -0.413  18.483  18.592  0.00  0.00    +0.000 A 
ATOM     17  C   UNL     1       0.807  18.093  18.079  0.00  0.00    +0.000 A 
ATOM     18  C   UNL     1       1.280  16.762  18.202  0.00  0.00    +0.000 A 
ATOM     19  C   UNL     1       2.569  16.550  17.447  0.00  0.00    +0.000 C 
ENDBRANCH  10  12
BRANCH   1  26
ATOM     20  C   UNL     1       0.310   9.674  21.653  0.00  0.00    +0.000 C 
ATOM     21  C   UNL     1       1.000   8.999  20.486  0.00  0.00    +0.000 A 
ATOM     22  C   UNL     1       1.535   7.720  20.706  0.00  0.00    +0.000 A 
ATOM     23  C   UNL     1       2.207   7.036  19.700  0.00  0.00    +0.000 A 
ATOM     24  C   UNL     1       2.407   7.652  18.475  0.00  0.00    +0.000 A 
ATOM     25  C   UNL     1       1.913   8.937  18.254  0.00  0.00    +0.000 A 
ATOM     26  C   UNL     1       1.134   9.620  19.219  0.00  0.00    +0.000 A 
ENDBRANCH   1  26
TORSDOF 2
ENDMDL
