MODEL 1
REMARK VINA RESULT:      -4.9      0.000      0.000
REMARK  Name = 
REMARK  7 active torsions:
REMARK  status: ('A' for Active; 'I' for Inactive)
REMARK    1  A    between atoms: C_1  and  O_2
REMARK    2  A    between atoms: O_2  and  C_3
REMARK    3  A    between atoms: C_3  and  C_5
REMARK    4  A    between atoms: C_5  and  C_7
REMARK    5  A    between atoms: C_7  and  C_9
REMARK    6  A    between atoms: C_9  and  O_11
REMARK    7  A    between atoms: O_11  and  C_12
REMARK                            x       y       z     vdW  Elec       q    Type
REMARK                         _______ _______ _______ _____ _____    ______ ____
ROOT
ATOM      1  C   UNL     1       5.648   5.445  18.676  0.00  0.00    +0.000 C 
ATOM      2  F   UNL     1       6.591   5.406  19.665  0.00  0.00    +0.000 F 
ENDROOT
BRANCH   1   3
ATOM      3  C   UNL     1       4.846   4.164  18.577  0.00  0.00    +0.000 C 
ATOM      4  O   UNL     1       3.914   3.996  17.799  0.00  0.00    +0.000 OA
BRANCH   3   6
ATOM      5  C   UNL     1       4.214   2.421  20.023  0.00  0.00    +0.000 C 
ATOM      6  O   UNL     1       5.249   3.267  19.520  0.00  0.00    +0.000 OA
ENDBRANCH   3   6
ENDBRANCH   1   3
BRANCH   1   7
ATOM      7  C   UNL     1       6.302   5.771  17.347  0.00  0.00    +0.000 C 
ATOM      8 BR   UNL     1       7.481   7.325  17.572  0.00  0.00    +0.000 Br
BRANCH   7   9
ATOM      9  C   UNL     1       7.137   4.622  16.833  0.00  0.00    +0.000 C 
ATOM     10  O   UNL     1       8.147   4.195  17.374  0.00  0.00    +0.000 OA
BRANCH   9  11
ATOM     11  O   UNL     1       6.575   4.068  15.718  0.00  0.00    +0.000 OA
ATOM     12  C   UNL     1       5.895   5.006  14.883  0.00  0.00    +0.000 C 
ENDBRANCH   9  11
ENDBRANCH   7   9
ENDBRANCH   1   7
TORSDOF 5
ENDMDL
MODEL 2
REMARK VINA RESULT:      -4.8      1.881      4.132
REMARK  Name = 
REMARK  7 active torsions:
REMARK  status: ('A' for Active; 'I' for Inactive)
REMARK    1  A    between atoms: C_1  and  O_2
REMARK    2  A    between atoms: O_2  and  C_3
REMARK    3  A    between atoms: C_3  and  C_5
REMARK    4  A    between atoms: C_5  and  C_7
REMARK    5  A    between atoms: C_7  and  C_9
REMARK    6  A    between atoms: C_9  and  O_11
REMARK    7  A    between atoms: O_11  and  C_12
REMARK                            x       y       z     vdW  Elec       q    Type
REMARK                         _______ _______ _______ _____ _____    ______ ____
ROOT
ATOM      1  C   UNL     1       5.803   5.122  16.604  0.00  0.00    +0.000 C 
ATOM      2  F   UNL     1       4.541   4.614  16.466  0.00  0.00    +0.000 F 
ENDROOT
BRANCH   1   3
ATOM      3  C   UNL     1       6.708   4.772  15.441  0.00  0.00    +0.000 C 
ATOM      4  O   UNL     1       7.661   5.455  15.083  0.00  0.00    +0.000 OA
BRANCH   3   6
ATOM      5  C   UNL     1       6.156   3.765  13.389  0.00  0.00    +0.000 C 
ATOM      6  O   UNL     1       6.270   3.648  14.808  0.00  0.00    +0.000 OA
ENDBRANCH   3   6
ENDBRANCH   1   3
BRANCH   1   7
ATOM      7  C   UNL     1       6.410   4.656  17.914  0.00  0.00    +0.000 C 
ATOM      8 BR   UNL     1       7.583   6.065  18.617  0.00  0.00    +0.000 Br
BRANCH   7   9
ATOM      9  C   UNL     1       5.353   4.366  18.954  0.00  0.00    +0.000 C 
ATOM     10  O   UNL     1       5.109   3.259  19.411  0.00  0.00    +0.000 OA
BRANCH   9  11
ATOM     11  O   UNL     1       4.753   5.517  19.376  0.00  0.00    +0.000 OA
ATOM     12  C   UNL     1       3.382   5.357  19.744  0.00  0.00    +0.000 C 
ENDBRANCH   9  11
ENDBRANCH   7   9
ENDBRANCH   1   7
TORSDOF 5
ENDMDL
MODEL 3
REMARK VINA RESULT:      -4.7      2.190      2.645
REMARK  Name = 
REMARK  7 active torsions:
REMARK  status: ('A' for Active; 'I' for Inactive)
REMARK    1  A    between atoms: C_1  and  O_2
REMARK    2  A    between atoms: O_2  and  C_3
REMARK    3  A    between atoms: C_3  and  C_5
REMARK    4  A    between atoms: C_5  and  C_7
REMARK    5  A    between atoms: C_7  and  C_9
REMARK    6  A    between atoms: C_9  and  O_11
REMARK    7  A    between atoms: O_11  and  C_12
REMARK                            x       y       z     vdW  Elec       q    Type
REMARK                         _______ _______ _______ _____ _____    ______ ____
ROOT
ATOM      1  C   UNL     1       4.667   4.434  16.665  0.00  0.00    +0.000 C 
ATOM      2  F   UNL     1       4.682   5.754  17.021  0.00  0.00    +0.000 F 
ENDROOT
BRANCH   1   3
ATOM      3  C   UNL     1       4.198   3.529  17.785  0.00  0.00    +0.000 C 
ATOM      4  O   UNL     1       3.787   2.385  17.618  0.00  0.00    +0.000 OA
BRANCH   3   6
ATOM      5  C   UNL     1       3.346   3.648  19.973  0.00  0.00    +0.000 C 
ATOM      6  O   UNL     1       4.220   4.184  18.979  0.00  0.00    +0.000 OA
ENDBRANCH   3   6
ENDBRANCH   1   3
BRANCH   1   7
ATOM      7  C   UNL     1       6.040   4.012  16.175  0.00  0.00    +0.000 C 
ATOM      8 BR   UNL     1       6.079   4.099  14.214  0.00  0.00    +0.000 Br
BRANCH   7   9
ATOM      9  C   UNL     1       7.130   4.915  16.704  0.00  0.00    +0.000 C 
ATOM     10  O   UNL     1       7.571   5.894  16.120  0.00  0.00    +0.000 OA
BRANCH   9  11
ATOM     11  O   UNL     1       7.510   4.539  17.961  0.00  0.00    +0.000 OA
ATOM     12  C   UNL     1       7.639   5.625  18.879  0.00  0.00    +0.000 C 
ENDBRANCH   9  11
ENDBRANCH   7   9
ENDBRANCH   1   7
TORSDOF 5
ENDMDL
MODEL 4
REMARK VINA RESULT:      -4.6      2.338      2.928
REMARK  Name = 
REMARK  7 active torsions:
REMARK  status: ('A' for Active; 'I' for Inactive)
REMARK    1  A    between atoms: C_1  and  O_2
REMARK    2  A    between atoms: O_2  and  C_3
REMARK    3  A    between atoms: C_3  and  C_5
REMARK    4  A    between atoms: C_5  and  C_7
REMARK    5  A    between atoms: C_7  and  C_9
REMARK    6  A    between atoms: C_9  and  O_11
REMARK    7  A    between atoms: O_11  and  C_12
REMARK                            x       y       z     vdW  Elec       q    Type
REMARK                         _______ _______ _______ _____ _____    ______ ____
ROOT
ATOM      1  C   UNL     1       4.659   5.105  16.848  0.00  0.00    +0.000 C 
ATOM      2  F   UNL     1       4.871   6.172  17.677  0.00  0.00    +0.000 F 
ENDROOT
BRANCH   1   3
ATOM      3  C   UNL     1       3.638   4.130  17.395  0.00  0.00    +0.000 C 
ATOM      4  O   UNL     1       3.812   2.918  17.461  0.00  0.00    +0.000 OA
BRANCH   3   6
ATOM      5  C   UNL     1       1.398   3.913  18.077  0.00  0.00    +0.000 C 
ATOM      6  O   UNL     1       2.483   4.772  17.723  0.00  0.00    +0.000 OA
ENDBRANCH   3   6
ENDBRANCH   1   3
BRANCH   1   7
ATOM      7  C   UNL     1       5.972   4.400  16.562  0.00  0.00    +0.000 C 
ATOM      8 BR   UNL     1       6.134   4.099  14.628  0.00  0.00    +0.000 Br
BRANCH   7   9
ATOM      9  C   UNL     1       7.161   5.219  17.008  0.00  0.00    +0.000 C 
ATOM     10  O   UNL     1       7.578   6.215  16.434  0.00  0.00    +0.000 OA
BRANCH   9  11
ATOM     11  O   UNL     1       7.669   4.745  18.184  0.00  0.00    +0.000 OA
ATOM     12  C   UNL     1       7.816   5.741  19.197  0.00  0.00    +0.000 C 
ENDBRANCH   9  11
ENDBRANCH   7   9
ENDBRANCH   1   7
TORSDOF 5
ENDMDL
MODEL 5
REMARK VINA RESULT:      -4.5      1.552      1.760
REMARK  Name = 
REMARK  7 active torsions:
REMARK  status: ('A' for Active; 'I' for Inactive)
REMARK    1  A    between atoms: C_1  and  O_2
REMARK    2  A    between atoms: O_2  and  C_3
REMARK    3  A    between atoms: C_3  and  C_5
REMARK    4  A    between atoms: C_5  and  C_7
REMARK    5  A    between atoms: C_7  and  C_9
REMARK    6  A    between atoms: C_9  and  O_11
REMARK    7  A    between atoms: O_11  and  C_12
REMARK                            x       y       z     vdW  Elec       q    Type
REMARK                         _______ _______ _______ _____ _____    ______ ____
ROOT
ATOM      1  C   UNL     1       6.766   5.168  18.519  0.00  0.00    +0.000 C 
ATOM      2  F   UNL     1       7.631   4.211  18.066  0.00  0.00    +0.000 F 
ENDROOT
BRANCH   1   3
ATOM      3  C   UNL     1       5.513   4.583  19.137  0.00  0.00    +0.000 C 
ATOM      4  O   UNL     1       5.432   3.442  19.576  0.00  0.00    +0.000 OA
BRANCH   3   6
ATOM      5  C   UNL     1       3.184   4.890  19.229  0.00  0.00    +0.000 C 
ATOM      6  O   UNL     1       4.479   5.467  19.062  0.00  0.00    +0.000 OA
ENDBRANCH   3   6
ENDBRANCH   1   3
BRANCH   1   7
ATOM      7  C   UNL     1       6.413   6.122  17.394  0.00  0.00    +0.000 C 
ATOM      8 BR   UNL     1       7.528   7.732  17.539  0.00  0.00    +0.000 Br
BRANCH   7   9
ATOM      9  C   UNL     1       6.655   5.508  16.035  0.00  0.00    +0.000 C 
ATOM     10  O   UNL     1       7.662   5.676  15.362  0.00  0.00    +0.000 OA
BRANCH   9  11
ATOM     11  O   UNL     1       5.631   4.676  15.684  0.00  0.00    +0.000 OA
ATOM     12  C   UNL     1       5.660   4.262  14.317  0.00  0.00    +0.000 C 
ENDBRANCH   9  11
ENDBRANCH   7   9
ENDBRANCH   1   7
TORSDOF 5
ENDMDL
MODEL 6
REMARK VINA RESULT:      -4.5      2.512      3.540
REMARK  Name = 
REMARK  7 active torsions:
REMARK  status: ('A' for Active; 'I' for Inactive)
REMARK    1  A    between atoms: C_1  and  O_2
REMARK    2  A    between atoms: O_2  and  C_3
REMARK    3  A    between atoms: C_3  and  C_5
REMARK    4  A    between atoms: C_5  and  C_7
REMARK    5  A    between atoms: C_7  and  C_9
REMARK    6  A    between atoms: C_9  and  O_11
REMARK    7  A    between atoms: O_11  and  C_12
REMARK                            x       y       z     vdW  Elec       q    Type
REMARK                         _______ _______ _______ _____ _____    ______ ____
ROOT
ATOM      1  C   UNL     1       3.295   5.146  17.840  0.00  0.00    +0.000 C 
ATOM      2  F   UNL     1       3.765   6.015  18.785  0.00  0.00    +0.000 F 
ENDROOT
BRANCH   1   3
ATOM      3  C   UNL     1       1.911   4.622  18.160  0.00  0.00    +0.000 C 
ATOM      4  O   UNL     1       1.128   4.191  17.320  0.00  0.00    +0.000 OA
BRANCH   3   6
ATOM      5  C   UNL     1       0.962   3.661  20.085  0.00  0.00    +0.000 C 
ATOM      6  O   UNL     1       1.632   4.771  19.485  0.00  0.00    +0.000 OA
ENDBRANCH   3   6
ENDBRANCH   1   3
BRANCH   1   7
ATOM      7  C   UNL     1       4.272   4.000  17.655  0.00  0.00    +0.000 C 
ATOM      8 BR   UNL     1       5.238   4.243  15.963  0.00  0.00    +0.000 Br
BRANCH   7   9
ATOM      9  C   UNL     1       5.290   3.942  18.769  0.00  0.00    +0.000 C 
ATOM     10  O   UNL     1       6.349   4.554  18.781  0.00  0.00    +0.000 OA
BRANCH   9  11
ATOM     11  O   UNL     1       4.841   3.171  19.803  0.00  0.00    +0.000 OA
ATOM     12  C   UNL     1       4.168   1.981  19.392  0.00  0.00    +0.000 C 
ENDBRANCH   9  11
ENDBRANCH   7   9
ENDBRANCH   1   7
TORSDOF 5
ENDMDL
MODEL 7
REMARK VINA RESULT:      -4.5      2.311      3.975
REMARK  Name = 
REMARK  7 active torsions:
REMARK  status: ('A' for Active; 'I' for Inactive)
REMARK    1  A    between atoms: C_1  and  O_2
REMARK    2  A    between atoms: O_2  and  C_3
REMARK    3  A    between atoms: C_3  and  C_5
REMARK    4  A    between atoms: C_5  and  C_7
REMARK    5  A    between atoms: C_7  and  C_9
REMARK    6  A    between atoms: C_9  and  O_11
REMARK    7  A    between atoms: O_11  and  C_12
REMARK                            x       y       z     vdW  Elec       q    Type
REMARK                         _______ _______ _______ _____ _____    ______ ____
ROOT
ATOM      1  C   UNL     1       5.307   4.914  17.051  0.00  0.00    +0.000 C 
ATOM      2  F   UNL     1       5.098   3.709  16.439  0.00  0.00    +0.000 F 
ENDROOT
BRANCH   1   3
ATOM      3  C   UNL     1       6.773   5.204  17.296  0.00  0.00    +0.000 C 
ATOM      4  O   UNL     1       7.692   4.633  16.718  0.00  0.00    +0.000 OA
BRANCH   3   6
ATOM      5  C   UNL     1       7.901   5.773  19.279  0.00  0.00    +0.000 C 
ATOM      6  O   UNL     1       6.926   6.118  18.294  0.00  0.00    +0.000 OA
ENDBRANCH   3   6
ENDBRANCH   1   3
BRANCH   1   7
ATOM      7  C   UNL     1       4.525   4.980  18.349  0.00  0.00    +0.000 C 
ATOM      8 BR   UNL     1       2.709   5.629  17.976  0.00  0.00    +0.000 Br
BRANCH   7   9
ATOM      9  C   UNL     1       4.410   3.626  19.008  0.00  0.00    +0.000 C 
ATOM     10  O   UNL     1       5.267   3.119  19.718  0.00  0.00    +0.000 OA
BRANCH   9  11
ATOM     11  O   UNL     1       3.187   3.067  18.769  0.00  0.00    +0.000 OA
ATOM     12  C   UNL     1       3.240   1.689  18.397  0.00  0.00    +0.000 C 
ENDBRANCH   9  11
ENDBRANCH   7   9
ENDBRANCH   1   7
TORSDOF 5
ENDMDL
MODEL 8
REMARK VINA RESULT:      -4.5      2.670      4.514
REMARK  Name = 
REMARK  7 active torsions:
REMARK  status: ('A' for Active; 'I' for Inactive)
REMARK    1  A    between atoms: C_1  and  O_2
REMARK    2  A    between atoms: O_2  and  C_3
REMARK    3  A    between atoms: C_3  and  C_5
REMARK    4  A    between atoms: C_5  and  C_7
REMARK    5  A    between atoms: C_7  and  C_9
REMARK    6  A    between atoms: C_9  and  O_11
REMARK    7  A    between atoms: O_11  and  C_12
REMARK                            x       y       z     vdW  Elec       q    Type
REMARK                         _______ _______ _______ _____ _____    ______ ____
ROOT
ATOM      1  C   UNL     1       4.341   4.804  17.750  0.00  0.00    +0.000 C 
ATOM      2  F   UNL     1       4.166   4.465  16.437  0.00  0.00    +0.000 F 
ENDROOT
BRANCH   1   3
ATOM      3  C   UNL     1       5.761   4.583  18.230  0.00  0.00    +0.000 C 
ATOM      4  O   UNL     1       6.063   4.348  19.395  0.00  0.00    +0.000 OA
BRANCH   3   6
ATOM      5  C   UNL     1       7.154   6.090  17.084  0.00  0.00    +0.000 C 
ATOM      6  O   UNL     1       6.649   4.760  17.213  0.00  0.00    +0.000 OA
ENDBRANCH   3   6
ENDBRANCH   1   3
BRANCH   1   7
ATOM      7  C   UNL     1       3.358   4.043  18.619  0.00  0.00    +0.000 C 
ATOM      8 BR   UNL     1       2.549   5.279  19.912  0.00  0.00    +0.000 Br
BRANCH   7   9
ATOM      9  C   UNL     1       2.245   3.426  17.804  0.00  0.00    +0.000 C 
ATOM     10  O   UNL     1       1.295   4.041  17.341  0.00  0.00    +0.000 OA
BRANCH   9  11
ATOM     11  O   UNL     1       2.475   2.098  17.587  0.00  0.00    +0.000 OA
ATOM     12  C   UNL     1       3.445   1.525  18.465  0.00  0.00    +0.000 C 
ENDBRANCH   9  11
ENDBRANCH   7   9
ENDBRANCH   1   7
TORSDOF 5
ENDMDL
MODEL 9
REMARK VINA RESULT:      -4.5      2.622      4.165
REMARK  Name = 
REMARK  7 active torsions:
REMARK  status: ('A' for Active; 'I' for Inactive)
REMARK    1  A    between atoms: C_1  and  O_2
REMARK    2  A    between atoms: O_2  and  C_3
REMARK    3  A    between atoms: C_3  and  C_5
REMARK    4  A    between atoms: C_5  and  C_7
REMARK    5  A    between atoms: C_7  and  C_9
REMARK    6  A    between atoms: C_9  and  O_11
REMARK    7  A    between atoms: O_11  and  C_12
REMARK                            x       y       z     vdW  Elec       q    Type
REMARK                         _______ _______ _______ _____ _____    ______ ____
ROOT
ATOM      1  C   UNL     1       4.777   4.995  16.805  0.00  0.00    +0.000 C 
ATOM      2  F   UNL     1       5.705   4.002  16.660  0.00  0.00    +0.000 F 
ENDROOT
BRANCH   1   3
ATOM      3  C   UNL     1       5.288   6.348  16.353  0.00  0.00    +0.000 C 
ATOM      4  O   UNL     1       5.204   6.765  15.203  0.00  0.00    +0.000 OA
BRANCH   3   6
ATOM      5  C   UNL     1       7.342   6.887  17.362  0.00  0.00    +0.000 C 
ATOM      6  O   UNL     1       5.918   6.993  17.374  0.00  0.00    +0.000 OA
ENDBRANCH   3   6
ENDBRANCH   1   3
BRANCH   1   7
ATOM      7  C   UNL     1       4.302   5.057  18.245  0.00  0.00    +0.000 C 
ATOM      8 BR   UNL     1       2.447   5.701  18.285  0.00  0.00    +0.000 Br
BRANCH   7   9
ATOM      9  C   UNL     1       4.339   3.701  18.909  0.00  0.00    +0.000 C 
ATOM     10  O   UNL     1       5.240   3.302  19.634  0.00  0.00    +0.000 OA
BRANCH   9  11
ATOM     11  O   UNL     1       3.195   3.000  18.657  0.00  0.00    +0.000 OA
ATOM     12  C   UNL     1       3.419   1.683  18.150  0.00  0.00    +0.000 C 
ENDBRANCH   9  11
ENDBRANCH   7   9
ENDBRANCH   1   7
TORSDOF 5
ENDMDL
