MODEL 1
REMARK VINA RESULT:      -6.8      0.000      0.000
REMARK  Name = 
REMARK  21 active torsions:
REMARK  status: ('A' for Active; 'I' for Inactive)
REMARK    1  A    between atoms: C_1  and  C_2
REMARK    2  A    between atoms: C_2  and  C_3
REMARK    3  A    between atoms: C_3  and  C_4
REMARK    4  A    between atoms: C_4  and  C_5
REMARK    5  A    between atoms: C_5  and  C_6
REMARK    6  A    between atoms: C_7  and  C_8
REMARK    7  A    between atoms: C_8  and  C_9
REMARK    8  A    between atoms: C_10  and  C_11
REMARK    9  A    between atoms: C_11  and  C_12
REMARK   10  A    between atoms: C_13  and  C_14
REMARK   11  A    between atoms: C_14  and  C_15
REMARK   12  A    between atoms: C_16  and  C_17
REMARK   13  A    between atoms: C_17  and  C_18
REMARK   14  A    between atoms: C_18  and  C_19
REMARK   15  A    between atoms: C_19  and  C_20
REMARK   16  A    between atoms: C_19  and  C_21
REMARK   17  A    between atoms: C_19  and  C_22
REMARK   18  A    between atoms: N_24  and  CA_25
REMARK   19  A    between atoms: CA_25  and  CB_26
REMARK   20  A    between atoms: CA_25  and  C_27
REMARK   21  A    between atoms: C_27  and  O_28
REMARK                            x       y       z     vdW  Elec       q    Type
REMARK                         _______ _______ _______ _____ _____    ______ ____
ROOT
ATOM      1  C   UNK A   0       7.700   7.621  17.589  0.00  0.00    +0.000 C 
ATOM      2  C   UNK A   0       8.135   8.888  17.519  0.00  0.00    +0.000 C 
ENDROOT
BRANCH   1   3
ATOM      3  C   UNK A   0       7.832   6.711  18.776  0.00  0.00    +0.000 C 
BRANCH   3   5
ATOM      4  C   UNK A   0       7.264   4.694  17.357  0.00  0.00    +0.000 C 
ATOM      5  C   UNK A   0       7.917   5.263  18.392  0.00  0.00    +0.000 C 
BRANCH   4   6
ATOM      6  C   UNK A   0       6.342   5.390  16.402  0.00  0.00    +0.000 C 
BRANCH   6   8
ATOM      7  C   UNK A   0       3.951   4.964  17.051  0.00  0.00    +0.000 C 
ATOM      8  C   UNK A   0       5.004   4.721  16.254  0.00  0.00    +0.000 C 
BRANCH   7   9
ATOM      9  C   UNK A   0       3.938   5.957  18.172  0.00  0.00    +0.000 C 
BRANCH   9  11
ATOM     10  C   UNK A   0       3.263   4.973  20.389  0.00  0.00    +0.000 C 
ATOM     11  C   UNK A   0       4.206   5.287  19.488  0.00  0.00    +0.000 C 
BRANCH  10  12
ATOM     12  C   UNK A   0       1.810   5.269  20.184  0.00  0.00    +0.000 C 
BRANCH  12  13
ATOM     13  C   UNK A   0       0.952   4.014  20.057  0.00  0.00    +0.000 C 
BRANCH  13  14
ATOM     14  C   UNK A   0       1.819   2.777  20.278  0.00  0.00    +0.000 C 
BRANCH  14  16
ATOM     15  C   UNK A   0       3.164   1.688  18.462  0.00  0.00    +0.000 C 
ATOM     16  C   UNK A   0       1.780   1.854  19.067  0.00  0.00    +0.000 C 
ENDBRANCH  14  16
ENDBRANCH  13  14
ENDBRANCH  12  13
ENDBRANCH  10  12
ENDBRANCH   9  11
ENDBRANCH   7   9
ENDBRANCH   6   8
ENDBRANCH   4   6
ENDBRANCH   3   5
ENDBRANCH   1   3
BRANCH   2  17
ATOM     17  C   UNK A   0       8.705   9.670  18.670  0.00  0.00    +0.000 C 
BRANCH  17  18
ATOM     18  C   UNK A   0       9.028  11.124  18.295  0.00  0.00    +0.000 C 
BRANCH  18  19
ATOM     19  C   UNK A   0      10.079  11.793  19.220  0.00  0.00    +0.000 C 
ATOM     20  C   UNK A   0      10.068  11.154  20.621  0.00  0.00    +0.000 C 
ATOM     21  C   UNK A   0      11.489  11.592  18.634  0.00  0.00    +0.000 C 
BRANCH  19  22
ATOM     22  C   UNK A   0       9.802  13.300  19.353  0.00  0.00    +0.000 C 
ATOM     23  O   UNK A   0       9.483  13.817  20.418  0.00  0.00    +0.000 OA
ATOM     24  N   ALA A   1       9.938  14.027  18.191  0.00  0.00    +0.000 N 
ATOM     25  H   ALA A   1      10.177  13.553  17.329  0.00  0.00    +0.000 HD
BRANCH  24  26
ATOM     26  CA  ALA A   1       9.639  15.459  18.098  0.00  0.00    +0.000 C 
ATOM     27  CB  ALA A   1      10.520  16.160  17.069  0.00  0.00    +0.000 C 
BRANCH  26  28
ATOM     28  C   ALA A   1       8.144  15.720  17.856  0.00  0.00    +0.000 C 
BRANCH  28  29
ATOM     29  O   ALA A   1       7.581  14.629  17.124  0.00  0.00    +0.000 OA
ATOM     30  H   ALA A   1       6.813  14.335  17.647  0.00  0.00    +0.000 HD
ENDBRANCH  28  29
ENDBRANCH  26  28
ENDBRANCH  24  26
ENDBRANCH  19  22
ENDBRANCH  18  19
ENDBRANCH  17  18
ENDBRANCH   2  17
TORSDOF 17
ENDMDL
MODEL 2
REMARK VINA RESULT:      -6.6      6.094      8.609
REMARK  Name = 
REMARK  21 active torsions:
REMARK  status: ('A' for Active; 'I' for Inactive)
REMARK    1  A    between atoms: C_1  and  C_2
REMARK    2  A    between atoms: C_2  and  C_3
REMARK    3  A    between atoms: C_3  and  C_4
REMARK    4  A    between atoms: C_4  and  C_5
REMARK    5  A    between atoms: C_5  and  C_6
REMARK    6  A    between atoms: C_7  and  C_8
REMARK    7  A    between atoms: C_8  and  C_9
REMARK    8  A    between atoms: C_10  and  C_11
REMARK    9  A    between atoms: C_11  and  C_12
REMARK   10  A    between atoms: C_13  and  C_14
REMARK   11  A    between atoms: C_14  and  C_15
REMARK   12  A    between atoms: C_16  and  C_17
REMARK   13  A    between atoms: C_17  and  C_18
REMARK   14  A    between atoms: C_18  and  C_19
REMARK   15  A    between atoms: C_19  and  C_20
REMARK   16  A    between atoms: C_19  and  C_21
REMARK   17  A    between atoms: C_19  and  C_22
REMARK   18  A    between atoms: N_24  and  CA_25
REMARK   19  A    between atoms: CA_25  and  CB_26
REMARK   20  A    between atoms: CA_25  and  C_27
REMARK   21  A    between atoms: C_27  and  O_28
REMARK                            x       y       z     vdW  Elec       q    Type
REMARK                         _______ _______ _______ _____ _____    ______ ____
ROOT
ATOM      1  C   UNK A   0       2.227   7.117  18.035  0.00  0.00    +0.000 C 
ATOM      2  C   UNK A   0       1.934   8.381  17.696  0.00  0.00    +0.000 C 
ENDROOT
BRANCH   1   3
ATOM      3  C   UNK A   0       2.850   6.677  19.329  0.00  0.00    +0.000 C 
BRANCH   3   5
ATOM      4  C   UNK A   0       1.691   4.428  19.339  0.00  0.00    +0.000 C 
ATOM      5  C   UNK A   0       2.111   5.541  19.974  0.00  0.00    +0.000 C 
BRANCH   4   6
ATOM      6  C   UNK A   0       1.881   4.112  17.885  0.00  0.00    +0.000 C 
BRANCH   6   8
ATOM      7  C   UNK A   0       4.124   3.301  17.091  0.00  0.00    +0.000 C 
ATOM      8  C   UNK A   0       2.917   3.054  17.624  0.00  0.00    +0.000 C 
BRANCH   7   9
ATOM      9  C   UNK A   0       4.632   4.660  16.717  0.00  0.00    +0.000 C 
BRANCH   9  11
ATOM     10  C   UNK A   0       6.539   4.326  15.108  0.00  0.00    +0.000 C 
ATOM     11  C   UNK A   0       6.083   4.606  16.338  0.00  0.00    +0.000 C 
BRANCH  10  12
ATOM     12  C   UNK A   0       5.636   4.021  13.954  0.00  0.00    +0.000 C 
BRANCH  12  13
ATOM     13  C   UNK A   0       6.389   3.751  12.655  0.00  0.00    +0.000 C 
BRANCH  13  14
ATOM     14  C   UNK A   0       5.541   2.864  11.747  0.00  0.00    +0.000 C 
BRANCH  14  16
ATOM     15  C   UNK A   0       3.606   3.590  10.324  0.00  0.00    +0.000 C 
ATOM     16  C   UNK A   0       4.086   3.316  11.739  0.00  0.00    +0.000 C 
ENDBRANCH  14  16
ENDBRANCH  13  14
ENDBRANCH  12  13
ENDBRANCH  10  12
ENDBRANCH   9  11
ENDBRANCH   7   9
ENDBRANCH   6   8
ENDBRANCH   4   6
ENDBRANCH   3   5
ENDBRANCH   1   3
BRANCH   2  17
ATOM     17  C   UNK A   0       2.044   9.569  18.611  0.00  0.00    +0.000 C 
BRANCH  17  18
ATOM     18  C   UNK A   0       0.705   9.937  19.266  0.00  0.00    +0.000 C 
BRANCH  18  19
ATOM     19  C   UNK A   0       0.473  11.466  19.407  0.00  0.00    +0.000 C 
ATOM     20  C   UNK A   0       0.437  11.883  20.890  0.00  0.00    +0.000 C 
ATOM     21  C   UNK A   0       1.633  12.230  18.744  0.00  0.00    +0.000 C 
BRANCH  19  22
ATOM     22  C   UNK A   0      -0.847  11.878  18.737  0.00  0.00    +0.000 C 
ATOM     23  O   UNK A   0      -1.488  12.860  19.097  0.00  0.00    +0.000 OA
ATOM     24  N   ALA A   1      -1.259  11.066  17.703  0.00  0.00    +0.000 N 
ATOM     25  H   ALA A   1      -0.712  10.251  17.457  0.00  0.00    +0.000 HD
BRANCH  24  26
ATOM     26  CA  ALA A   1      -2.529  11.249  16.995  0.00  0.00    +0.000 C 
ATOM     27  CB  ALA A   1      -2.568  10.469  15.684  0.00  0.00    +0.000 C 
BRANCH  26  28
ATOM     28  C   ALA A   1      -3.738  10.937  17.891  0.00  0.00    +0.000 C 
BRANCH  28  29
ATOM     29  O   ALA A   1      -4.372  12.158  18.279  0.00  0.00    +0.000 OA
ATOM     30  H   ALA A   1      -4.602  12.607  17.445  0.00  0.00    +0.000 HD
ENDBRANCH  28  29
ENDBRANCH  26  28
ENDBRANCH  24  26
ENDBRANCH  19  22
ENDBRANCH  18  19
ENDBRANCH  17  18
ENDBRANCH   2  17
TORSDOF 17
ENDMDL
MODEL 3
REMARK VINA RESULT:      -6.6      4.637      7.246
REMARK  Name = 
REMARK  21 active torsions:
REMARK  status: ('A' for Active; 'I' for Inactive)
REMARK    1  A    between atoms: C_1  and  C_2
REMARK    2  A    between atoms: C_2  and  C_3
REMARK    3  A    between atoms: C_3  and  C_4
REMARK    4  A    between atoms: C_4  and  C_5
REMARK    5  A    between atoms: C_5  and  C_6
REMARK    6  A    between atoms: C_7  and  C_8
REMARK    7  A    between atoms: C_8  and  C_9
REMARK    8  A    between atoms: C_10  and  C_11
REMARK    9  A    between atoms: C_11  and  C_12
REMARK   10  A    between atoms: C_13  and  C_14
REMARK   11  A    between atoms: C_14  and  C_15
REMARK   12  A    between atoms: C_16  and  C_17
REMARK   13  A    between atoms: C_17  and  C_18
REMARK   14  A    between atoms: C_18  and  C_19
REMARK   15  A    between atoms: C_19  and  C_20
REMARK   16  A    between atoms: C_19  and  C_21
REMARK   17  A    between atoms: C_19  and  C_22
REMARK   18  A    between atoms: N_24  and  CA_25
REMARK   19  A    between atoms: CA_25  and  CB_26
REMARK   20  A    between atoms: CA_25  and  C_27
REMARK   21  A    between atoms: C_27  and  O_28
REMARK                            x       y       z     vdW  Elec       q    Type
REMARK                         _______ _______ _______ _____ _____    ______ ____
ROOT
ATOM      1  C   UNK A   0       2.332   6.437  19.269  0.00  0.00    +0.000 C 
ATOM      2  C   UNK A   0       2.407   7.660  18.724  0.00  0.00    +0.000 C 
ENDROOT
BRANCH   1   3
ATOM      3  C   UNK A   0       1.656   6.092  20.565  0.00  0.00    +0.000 C 
BRANCH   3   5
ATOM      4  C   UNK A   0       1.823   3.571  20.694  0.00  0.00    +0.000 C 
ATOM      5  C   UNK A   0       2.144   4.799  21.150  0.00  0.00    +0.000 C 
BRANCH   4   6
ATOM      6  C   UNK A   0       0.932   3.263  19.528  0.00  0.00    +0.000 C 
BRANCH   6   8
ATOM      7  C   UNK A   0       2.540   2.338  17.832  0.00  0.00    +0.000 C 
ATOM      8  C   UNK A   0       1.465   2.188  18.623  0.00  0.00    +0.000 C 
BRANCH   7   9
ATOM      9  C   UNK A   0       3.384   3.573  17.762  0.00  0.00    +0.000 C 
BRANCH   9  11
ATOM     10  C   UNK A   0       5.530   4.395  18.791  0.00  0.00    +0.000 C 
ATOM     11  C   UNK A   0       4.611   3.434  18.615  0.00  0.00    +0.000 C 
BRANCH  10  12
ATOM     12  C   UNK A   0       5.439   5.738  18.136  0.00  0.00    +0.000 C 
BRANCH  12  13
ATOM     13  C   UNK A   0       6.255   5.838  16.851  0.00  0.00    +0.000 C 
BRANCH  13  14
ATOM     14  C   UNK A   0       5.315   6.000  15.659  0.00  0.00    +0.000 C 
BRANCH  14  16
ATOM     15  C   UNK A   0       6.127   3.686  15.130  0.00  0.00    +0.000 C 
ATOM     16  C   UNK A   0       5.653   5.009  14.553  0.00  0.00    +0.000 C 
ENDBRANCH  14  16
ENDBRANCH  13  14
ENDBRANCH  12  13
ENDBRANCH  10  12
ENDBRANCH   9  11
ENDBRANCH   7   9
ENDBRANCH   6   8
ENDBRANCH   4   6
ENDBRANCH   3   5
ENDBRANCH   1   3
BRANCH   2  17
ATOM     17  C   UNK A   0       1.701   8.881  19.244  0.00  0.00    +0.000 C 
BRANCH  17  18
ATOM     18  C   UNK A   0       1.004   9.679  18.132  0.00  0.00    +0.000 C 
BRANCH  18  19
ATOM     19  C   UNK A   0      -0.231  10.486  18.616  0.00  0.00    +0.000 C 
ATOM     20  C   UNK A   0      -1.486  10.113  17.804  0.00  0.00    +0.000 C 
ATOM     21  C   UNK A   0      -0.523  10.153  20.091  0.00  0.00    +0.000 C 
BRANCH  19  22
ATOM     22  C   UNK A   0       0.022  11.996  18.484  0.00  0.00    +0.000 C 
ATOM     23  O   UNK A   0      -0.851  12.780  18.128  0.00  0.00    +0.000 OA
ATOM     24  N   ALA A   1       1.301  12.406  18.793  0.00  0.00    +0.000 N 
ATOM     25  H   ALA A   1       1.997  11.720  19.056  0.00  0.00    +0.000 HD
BRANCH  24  26
ATOM     26  CA  ALA A   1       1.757  13.792  18.651  0.00  0.00    +0.000 C 
ATOM     27  CB  ALA A   1       1.429  14.630  19.883  0.00  0.00    +0.000 C 
BRANCH  26  28
ATOM     28  C   ALA A   1       3.245  13.872  18.275  0.00  0.00    +0.000 C 
BRANCH  28  29
ATOM     29  O   ALA A   1       3.442  14.928  17.331  0.00  0.00    +0.000 OA
ATOM     30  H   ALA A   1       4.046  15.557  17.768  0.00  0.00    +0.000 HD
ENDBRANCH  28  29
ENDBRANCH  26  28
ENDBRANCH  24  26
ENDBRANCH  19  22
ENDBRANCH  18  19
ENDBRANCH  17  18
ENDBRANCH   2  17
TORSDOF 17
ENDMDL
MODEL 4
REMARK VINA RESULT:      -6.4      1.069      1.541
REMARK  Name = 
REMARK  21 active torsions:
REMARK  status: ('A' for Active; 'I' for Inactive)
REMARK    1  A    between atoms: C_1  and  C_2
REMARK    2  A    between atoms: C_2  and  C_3
REMARK    3  A    between atoms: C_3  and  C_4
REMARK    4  A    between atoms: C_4  and  C_5
REMARK    5  A    between atoms: C_5  and  C_6
REMARK    6  A    between atoms: C_7  and  C_8
REMARK    7  A    between atoms: C_8  and  C_9
REMARK    8  A    between atoms: C_10  and  C_11
REMARK    9  A    between atoms: C_11  and  C_12
REMARK   10  A    between atoms: C_13  and  C_14
REMARK   11  A    between atoms: C_14  and  C_15
REMARK   12  A    between atoms: C_16  and  C_17
REMARK   13  A    between atoms: C_17  and  C_18
REMARK   14  A    between atoms: C_18  and  C_19
REMARK   15  A    between atoms: C_19  and  C_20
REMARK   16  A    between atoms: C_19  and  C_21
REMARK   17  A    between atoms: C_19  and  C_22
REMARK   18  A    between atoms: N_24  and  CA_25
REMARK   19  A    between atoms: CA_25  and  CB_26
REMARK   20  A    between atoms: CA_25  and  C_27
REMARK   21  A    between atoms: C_27  and  O_28
REMARK                            x       y       z     vdW  Elec       q    Type
REMARK                         _______ _______ _______ _____ _____    ______ ____
ROOT
ATOM      1  C   UNK A   0       7.767   8.125  17.731  0.00  0.00    +0.000 C 
ATOM      2  C   UNK A   0       8.142   9.411  17.803  0.00  0.00    +0.000 C 
ENDROOT
BRANCH   1   3
ATOM      3  C   UNK A   0       8.304   7.005  18.575  0.00  0.00    +0.000 C 
BRANCH   3   5
ATOM      4  C   UNK A   0       6.891   4.920  18.331  0.00  0.00    +0.000 C 
ATOM      5  C   UNK A   0       7.239   6.037  19.002  0.00  0.00    +0.000 C 
BRANCH   4   6
ATOM      6  C   UNK A   0       7.493   4.433  17.047  0.00  0.00    +0.000 C 
BRANCH   6   8
ATOM      7  C   UNK A   0       5.789   5.607  15.620  0.00  0.00    +0.000 C 
ATOM      8  C   UNK A   0       7.053   5.211  15.837  0.00  0.00    +0.000 C 
BRANCH   7   9
ATOM      9  C   UNK A   0       4.645   5.373  16.559  0.00  0.00    +0.000 C 
BRANCH   9  11
ATOM     10  C   UNK A   0       3.500   6.872  18.227  0.00  0.00    +0.000 C 
ATOM     11  C   UNK A   0       4.053   6.672  17.021  0.00  0.00    +0.000 C 
BRANCH  10  12
ATOM     12  C   UNK A   0       3.401   5.798  19.265  0.00  0.00    +0.000 C 
BRANCH  12  13
ATOM     13  C   UNK A   0       2.372   4.725  18.923  0.00  0.00    +0.000 C 
BRANCH  13  14
ATOM     14  C   UNK A   0       3.013   3.344  19.048  0.00  0.00    +0.000 C 
BRANCH  14  16
ATOM     15  C   UNK A   0       0.698   2.403  18.827  0.00  0.00    +0.000 C 
ATOM     16  C   UNK A   0       2.149   2.275  18.392  0.00  0.00    +0.000 C 
ENDBRANCH  14  16
ENDBRANCH  13  14
ENDBRANCH  12  13
ENDBRANCH  10  12
ENDBRANCH   9  11
ENDBRANCH   7   9
ENDBRANCH   6   8
ENDBRANCH   4   6
ENDBRANCH   3   5
ENDBRANCH   1   3
BRANCH   2  17
ATOM     17  C   UNK A   0       9.065   9.984  18.843  0.00  0.00    +0.000 C 
BRANCH  17  18
ATOM     18  C   UNK A   0       9.659  11.337  18.426  0.00  0.00    +0.000 C 
BRANCH  18  19
ATOM     19  C   UNK A   0      10.494  12.028  19.537  0.00  0.00    +0.000 C 
ATOM     20  C   UNK A   0      10.074  11.528  20.933  0.00  0.00    +0.000 C 
ATOM     21  C   UNK A   0      11.984  11.685  19.356  0.00  0.00    +0.000 C 
BRANCH  19  22
ATOM     22  C   UNK A   0      10.319  13.554  19.477  0.00  0.00    +0.000 C 
ATOM     23  O   UNK A   0      10.206  14.243  20.485  0.00  0.00    +0.000 OA
ATOM     24  N   ALA A   1      10.300  14.092  18.209  0.00  0.00    +0.000 N 
ATOM     25  H   ALA A   1      10.370  13.483  17.404  0.00  0.00    +0.000 HD
BRANCH  24  26
ATOM     26  CA  ALA A   1      10.063  15.514  17.943  0.00  0.00    +0.000 C 
ATOM     27  CB  ALA A   1      10.929  16.033  16.799  0.00  0.00    +0.000 C 
BRANCH  26  28
ATOM     28  C   ALA A   1       8.572  15.819  17.726  0.00  0.00    +0.000 C 
BRANCH  28  29
ATOM     29  O   ALA A   1       8.277  17.130  18.213  0.00  0.00    +0.000 OA
ATOM     30  H   ALA A   1       8.915  17.720  17.773  0.00  0.00    +0.000 HD
ENDBRANCH  28  29
ENDBRANCH  26  28
ENDBRANCH  24  26
ENDBRANCH  19  22
ENDBRANCH  18  19
ENDBRANCH  17  18
ENDBRANCH   2  17
TORSDOF 17
ENDMDL
MODEL 5
REMARK VINA RESULT:      -6.2      6.636     10.209
REMARK  Name = 
REMARK  21 active torsions:
REMARK  status: ('A' for Active; 'I' for Inactive)
REMARK    1  A    between atoms: C_1  and  C_2
REMARK    2  A    between atoms: C_2  and  C_3
REMARK    3  A    between atoms: C_3  and  C_4
REMARK    4  A    between atoms: C_4  and  C_5
REMARK    5  A    between atoms: C_5  and  C_6
REMARK    6  A    between atoms: C_7  and  C_8
REMARK    7  A    between atoms: C_8  and  C_9
REMARK    8  A    between atoms: C_10  and  C_11
REMARK    9  A    between atoms: C_11  and  C_12
REMARK   10  A    between atoms: C_13  and  C_14
REMARK   11  A    between atoms: C_14  and  C_15
REMARK   12  A    between atoms: C_16  and  C_17
REMARK   13  A    between atoms: C_17  and  C_18
REMARK   14  A    between atoms: C_18  and  C_19
REMARK   15  A    between atoms: C_19  and  C_20
REMARK   16  A    between atoms: C_19  and  C_21
REMARK   17  A    between atoms: C_19  and  C_22
REMARK   18  A    between atoms: N_24  and  CA_25
REMARK   19  A    between atoms: CA_25  and  CB_26
REMARK   20  A    between atoms: CA_25  and  C_27
REMARK   21  A    between atoms: C_27  and  O_28
REMARK                            x       y       z     vdW  Elec       q    Type
REMARK                         _______ _______ _______ _____ _____    ______ ____
ROOT
ATOM      1  C   UNK A   0       1.825   7.452  20.147  0.00  0.00    +0.000 C 
ATOM      2  C   UNK A   0       1.716   6.401  20.972  0.00  0.00    +0.000 C 
ENDROOT
BRANCH   1   3
ATOM      3  C   UNK A   0       2.729   7.539  18.950  0.00  0.00    +0.000 C 
BRANCH   3   5
ATOM      4  C   UNK A   0       1.492   9.412  17.781  0.00  0.00    +0.000 C 
ATOM      5  C   UNK A   0       2.071   8.193  17.771  0.00  0.00    +0.000 C 
BRANCH   4   6
ATOM      6  C   UNK A   0       1.398  10.338  18.956  0.00  0.00    +0.000 C 
BRANCH   6   8
ATOM      7  C   UNK A   0      -0.711  11.677  18.679  0.00  0.00    +0.000 C 
ATOM      8  C   UNK A   0       0.629  11.599  18.675  0.00  0.00    +0.000 C 
BRANCH   7   9
ATOM      9  C   UNK A   0      -1.633  10.540  18.998  0.00  0.00    +0.000 C 
BRANCH   9  11
ATOM     10  C   UNK A   0      -3.517  10.489  17.328  0.00  0.00    +0.000 C 
ATOM     11  C   UNK A   0      -2.327  10.047  17.763  0.00  0.00    +0.000 C 
BRANCH  10  12
ATOM     12  C   UNK A   0      -4.307  11.539  18.046  0.00  0.00    +0.000 C 
BRANCH  12  13
ATOM     13  C   UNK A   0      -5.796  11.501  17.718  0.00  0.00    +0.000 C 
BRANCH  13  14
ATOM     14  C   UNK A   0      -6.489  10.470  18.607  0.00  0.00    +0.000 C 
BRANCH  14  16
ATOM     15  C   UNK A   0      -7.498  12.480  19.718  0.00  0.00    +0.000 C 
ATOM     16  C   UNK A   0      -6.926  11.089  19.928  0.00  0.00    +0.000 C 
ENDBRANCH  14  16
ENDBRANCH  13  14
ENDBRANCH  12  13
ENDBRANCH  10  12
ENDBRANCH   9  11
ENDBRANCH   7   9
ENDBRANCH   6   8
ENDBRANCH   4   6
ENDBRANCH   3   5
ENDBRANCH   1   3
BRANCH   2  17
ATOM     17  C   UNK A   0       2.374   5.065  20.762  0.00  0.00    +0.000 C 
BRANCH  17  18
ATOM     18  C   UNK A   0       1.416   4.020  20.171  0.00  0.00    +0.000 C 
BRANCH  18  19
ATOM     19  C   UNK A   0       1.866   3.461  18.795  0.00  0.00    +0.000 C 
ATOM     20  C   UNK A   0       1.234   2.082  18.528  0.00  0.00    +0.000 C 
ATOM     21  C   UNK A   0       1.400   4.405  17.672  0.00  0.00    +0.000 C 
BRANCH  19  22
ATOM     22  C   UNK A   0       3.397   3.331  18.738  0.00  0.00    +0.000 C 
ATOM     23  O   UNK A   0       4.010   2.489  19.385  0.00  0.00    +0.000 OA
ATOM     24  N   ALA A   1       4.031   4.228  17.906  0.00  0.00    +0.000 N 
ATOM     25  H   ALA A   1       3.487   4.924  17.412  0.00  0.00    +0.000 HD
BRANCH  24  26
ATOM     26  CA  ALA A   1       5.489   4.315  17.780  0.00  0.00    +0.000 C 
ATOM     27  CB  ALA A   1       5.942   4.211  16.327  0.00  0.00    +0.000 C 
BRANCH  26  28
ATOM     28  C   ALA A   1       6.054   5.563  18.475  0.00  0.00    +0.000 C 
BRANCH  28  29
ATOM     29  O   ALA A   1       6.584   5.200  19.752  0.00  0.00    +0.000 OA
ATOM     30  H   ALA A   1       5.991   4.504  20.091  0.00  0.00    +0.000 HD
ENDBRANCH  28  29
ENDBRANCH  26  28
ENDBRANCH  24  26
ENDBRANCH  19  22
ENDBRANCH  18  19
ENDBRANCH  17  18
ENDBRANCH   2  17
TORSDOF 17
ENDMDL
MODEL 6
REMARK VINA RESULT:      -6.2      1.216      1.727
REMARK  Name = 
REMARK  21 active torsions:
REMARK  status: ('A' for Active; 'I' for Inactive)
REMARK    1  A    between atoms: C_1  and  C_2
REMARK    2  A    between atoms: C_2  and  C_3
REMARK    3  A    between atoms: C_3  and  C_4
REMARK    4  A    between atoms: C_4  and  C_5
REMARK    5  A    between atoms: C_5  and  C_6
REMARK    6  A    between atoms: C_7  and  C_8
REMARK    7  A    between atoms: C_8  and  C_9
REMARK    8  A    between atoms: C_10  and  C_11
REMARK    9  A    between atoms: C_11  and  C_12
REMARK   10  A    between atoms: C_13  and  C_14
REMARK   11  A    between atoms: C_14  and  C_15
REMARK   12  A    between atoms: C_16  and  C_17
REMARK   13  A    between atoms: C_17  and  C_18
REMARK   14  A    between atoms: C_18  and  C_19
REMARK   15  A    between atoms: C_19  and  C_20
REMARK   16  A    between atoms: C_19  and  C_21
REMARK   17  A    between atoms: C_19  and  C_22
REMARK   18  A    between atoms: N_24  and  CA_25
REMARK   19  A    between atoms: CA_25  and  CB_26
REMARK   20  A    between atoms: CA_25  and  C_27
REMARK   21  A    between atoms: C_27  and  O_28
REMARK                            x       y       z     vdW  Elec       q    Type
REMARK                         _______ _______ _______ _____ _____    ______ ____
ROOT
ATOM      1  C   UNK A   0       7.669   8.126  17.754  0.00  0.00    +0.000 C 
ATOM      2  C   UNK A   0       8.095   9.397  17.781  0.00  0.00    +0.000 C 
ENDROOT
BRANCH   1   3
ATOM      3  C   UNK A   0       8.265   6.982  18.523  0.00  0.00    +0.000 C 
BRANCH   3   5
ATOM      4  C   UNK A   0       6.895   4.867  18.301  0.00  0.00    +0.000 C 
ATOM      5  C   UNK A   0       7.238   5.985  18.973  0.00  0.00    +0.000 C 
BRANCH   4   6
ATOM      6  C   UNK A   0       7.467   4.408  16.994  0.00  0.00    +0.000 C 
BRANCH   6   8
ATOM      7  C   UNK A   0       5.204   4.366  15.902  0.00  0.00    +0.000 C 
ATOM      8  C   UNK A   0       6.529   4.569  15.830  0.00  0.00    +0.000 C 
BRANCH   7   9
ATOM      9  C   UNK A   0       4.462   3.990  17.147  0.00  0.00    +0.000 C 
BRANCH   9  11
ATOM     10  C   UNK A   0       2.353   5.121  17.929  0.00  0.00    +0.000 C 
ATOM     11  C   UNK A   0       3.011   4.360  17.042  0.00  0.00    +0.000 C 
BRANCH  10  12
ATOM     12  C   UNK A   0       3.000   5.691  19.153  0.00  0.00    +0.000 C 
BRANCH  12  13
ATOM     13  C   UNK A   0       2.739   4.868  20.410  0.00  0.00    +0.000 C 
BRANCH  13  14
ATOM     14  C   UNK A   0       1.288   4.390  20.416  0.00  0.00    +0.000 C 
BRANCH  14  16
ATOM     15  C   UNK A   0       0.723   2.295  19.158  0.00  0.00    +0.000 C 
ATOM     16  C   UNK A   0       1.210   2.870  20.477  0.00  0.00    +0.000 C 
ENDBRANCH  14  16
ENDBRANCH  13  14
ENDBRANCH  12  13
ENDBRANCH  10  12
ENDBRANCH   9  11
ENDBRANCH   7   9
ENDBRANCH   6   8
ENDBRANCH   4   6
ENDBRANCH   3   5
ENDBRANCH   1   3
BRANCH   2  17
ATOM     17  C   UNK A   0       9.158   9.931  18.701  0.00  0.00    +0.000 C 
BRANCH  17  18
ATOM     18  C   UNK A   0       9.059  11.451  18.900  0.00  0.00    +0.000 C 
BRANCH  18  19
ATOM     19  C   UNK A   0      10.423  12.187  18.818  0.00  0.00    +0.000 C 
ATOM     20  C   UNK A   0      11.527  11.382  19.529  0.00  0.00    +0.000 C 
ATOM     21  C   UNK A   0      10.844  12.340  17.345  0.00  0.00    +0.000 C 
BRANCH  19  22
ATOM     22  C   UNK A   0      10.326  13.581  19.459  0.00  0.00    +0.000 C 
ATOM     23  O   UNK A   0       9.881  13.755  20.588  0.00  0.00    +0.000 OA
ATOM     24  N   ALA A   1      10.776  14.620  18.674  0.00  0.00    +0.000 N 
ATOM     25  H   ALA A   1      11.110  14.432  17.737  0.00  0.00    +0.000 HD
BRANCH  24  26
ATOM     26  CA  ALA A   1      10.690  16.027  19.076  0.00  0.00    +0.000 C 
ATOM     27  CB  ALA A   1      12.020  16.548  19.614  0.00  0.00    +0.000 C 
BRANCH  26  28
ATOM     28  C   ALA A   1      10.132  16.914  17.953  0.00  0.00    +0.000 C 
BRANCH  28  29
ATOM     29  O   ALA A   1       8.727  16.685  17.818  0.00  0.00    +0.000 OA
ATOM     30  H   ALA A   1       8.588  16.479  16.875  0.00  0.00    +0.000 HD
ENDBRANCH  28  29
ENDBRANCH  26  28
ENDBRANCH  24  26
ENDBRANCH  19  22
ENDBRANCH  18  19
ENDBRANCH  17  18
ENDBRANCH   2  17
TORSDOF 17
ENDMDL
MODEL 7
REMARK VINA RESULT:      -6.1      6.348      9.888
REMARK  Name = 
REMARK  21 active torsions:
REMARK  status: ('A' for Active; 'I' for Inactive)
REMARK    1  A    between atoms: C_1  and  C_2
REMARK    2  A    between atoms: C_2  and  C_3
REMARK    3  A    between atoms: C_3  and  C_4
REMARK    4  A    between atoms: C_4  and  C_5
REMARK    5  A    between atoms: C_5  and  C_6
REMARK    6  A    between atoms: C_7  and  C_8
REMARK    7  A    between atoms: C_8  and  C_9
REMARK    8  A    between atoms: C_10  and  C_11
REMARK    9  A    between atoms: C_11  and  C_12
REMARK   10  A    between atoms: C_13  and  C_14
REMARK   11  A    between atoms: C_14  and  C_15
REMARK   12  A    between atoms: C_16  and  C_17
REMARK   13  A    between atoms: C_17  and  C_18
REMARK   14  A    between atoms: C_18  and  C_19
REMARK   15  A    between atoms: C_19  and  C_20
REMARK   16  A    between atoms: C_19  and  C_21
REMARK   17  A    between atoms: C_19  and  C_22
REMARK   18  A    between atoms: N_24  and  CA_25
REMARK   19  A    between atoms: CA_25  and  CB_26
REMARK   20  A    between atoms: CA_25  and  C_27
REMARK   21  A    between atoms: C_27  and  O_28
REMARK                            x       y       z     vdW  Elec       q    Type
REMARK                         _______ _______ _______ _____ _____    ______ ____
ROOT
ATOM      1  C   UNK A   0       2.427   8.245  17.743  0.00  0.00    +0.000 C 
ATOM      2  C   UNK A   0       3.423   7.455  17.318  0.00  0.00    +0.000 C 
ENDROOT
BRANCH   1   3
ATOM      3  C   UNK A   0       1.951   8.371  19.163  0.00  0.00    +0.000 C 
BRANCH   3   5
ATOM      4  C   UNK A   0       0.292   9.751  20.483  0.00  0.00    +0.000 C 
ATOM      5  C   UNK A   0       0.811   9.337  19.310  0.00  0.00    +0.000 C 
BRANCH   4   6
ATOM      6  C   UNK A   0       0.747   9.335  21.850  0.00  0.00    +0.000 C 
BRANCH   6   8
ATOM      7  C   UNK A   0      -1.017  10.533  23.182  0.00  0.00    +0.000 C 
ATOM      8  C   UNK A   0      -0.329   9.416  22.898  0.00  0.00    +0.000 C 
BRANCH   7   9
ATOM      9  C   UNK A   0      -0.848  11.844  22.478  0.00  0.00    +0.000 C 
BRANCH   9  11
ATOM     10  C   UNK A   0      -2.357  12.734  20.670  0.00  0.00    +0.000 C 
ATOM     11  C   UNK A   0      -2.158  12.335  21.935  0.00  0.00    +0.000 C 
BRANCH  10  12
ATOM     12  C   UNK A   0      -1.272  12.742  19.639  0.00  0.00    +0.000 C 
BRANCH  12  13
ATOM     13  C   UNK A   0      -1.702  12.132  18.308  0.00  0.00    +0.000 C 
BRANCH  13  14
ATOM     14  C   UNK A   0      -3.083  11.498  18.458  0.00  0.00    +0.000 C 
BRANCH  14  16
ATOM     15  C   UNK A   0      -1.872   9.880  16.972  0.00  0.00    +0.000 C 
ATOM     16  C   UNK A   0      -3.157  10.160  17.734  0.00  0.00    +0.000 C 
ENDBRANCH  14  16
ENDBRANCH  13  14
ENDBRANCH  12  13
ENDBRANCH  10  12
ENDBRANCH   9  11
ENDBRANCH   7   9
ENDBRANCH   6   8
ENDBRANCH   4   6
ENDBRANCH   3   5
ENDBRANCH   1   3
BRANCH   2  17
ATOM     17  C   UNK A   0       4.338   6.662  18.210  0.00  0.00    +0.000 C 
BRANCH  17  18
ATOM     18  C   UNK A   0       5.709   6.401  17.568  0.00  0.00    +0.000 C 
BRANCH  18  19
ATOM     19  C   UNK A   0       5.826   5.016  16.877  0.00  0.00    +0.000 C 
ATOM     20  C   UNK A   0       5.611   5.138  15.357  0.00  0.00    +0.000 C 
ATOM     21  C   UNK A   0       7.239   4.444  17.097  0.00  0.00    +0.000 C 
BRANCH  19  22
ATOM     22  C   UNK A   0       4.793   4.034  17.454  0.00  0.00    +0.000 C 
ATOM     23  O   UNK A   0       3.742   3.773  16.878  0.00  0.00    +0.000 OA
ATOM     24  N   ALA A   1       5.133   3.467  18.662  0.00  0.00    +0.000 N 
ATOM     25  H   ALA A   1       5.998   3.732  19.114  0.00  0.00    +0.000 HD
BRANCH  24  26
ATOM     26  CA  ALA A   1       4.244   2.570  19.408  0.00  0.00    +0.000 C 
ATOM     27  CB  ALA A   1       3.128   3.333  20.115  0.00  0.00    +0.000 C 
BRANCH  26  28
ATOM     28  C   ALA A   1       3.702   1.434  18.527  0.00  0.00    +0.000 C 
BRANCH  28  29
ATOM     29  O   ALA A   1       2.285   1.573  18.387  0.00  0.00    +0.000 OA
ATOM     30  H   ALA A   1       1.918   1.390  19.272  0.00  0.00    +0.000 HD
ENDBRANCH  28  29
ENDBRANCH  26  28
ENDBRANCH  24  26
ENDBRANCH  19  22
ENDBRANCH  18  19
ENDBRANCH  17  18
ENDBRANCH   2  17
TORSDOF 17
ENDMDL
MODEL 8
REMARK VINA RESULT:      -6.1      5.443      7.086
REMARK  Name = 
REMARK  21 active torsions:
REMARK  status: ('A' for Active; 'I' for Inactive)
REMARK    1  A    between atoms: C_1  and  C_2
REMARK    2  A    between atoms: C_2  and  C_3
REMARK    3  A    between atoms: C_3  and  C_4
REMARK    4  A    between atoms: C_4  and  C_5
REMARK    5  A    between atoms: C_5  and  C_6
REMARK    6  A    between atoms: C_7  and  C_8
REMARK    7  A    between atoms: C_8  and  C_9
REMARK    8  A    between atoms: C_10  and  C_11
REMARK    9  A    between atoms: C_11  and  C_12
REMARK   10  A    between atoms: C_13  and  C_14
REMARK   11  A    between atoms: C_14  and  C_15
REMARK   12  A    between atoms: C_16  and  C_17
REMARK   13  A    between atoms: C_17  and  C_18
REMARK   14  A    between atoms: C_18  and  C_19
REMARK   15  A    between atoms: C_19  and  C_20
REMARK   16  A    between atoms: C_19  and  C_21
REMARK   17  A    between atoms: C_19  and  C_22
REMARK   18  A    between atoms: N_24  and  CA_25
REMARK   19  A    between atoms: CA_25  and  CB_26
REMARK   20  A    between atoms: CA_25  and  C_27
REMARK   21  A    between atoms: C_27  and  O_28
REMARK                            x       y       z     vdW  Elec       q    Type
REMARK                         _______ _______ _______ _____ _____    ______ ____
ROOT
ATOM      1  C   UNK A   0       3.249   6.943  18.081  0.00  0.00    +0.000 C 
ATOM      2  C   UNK A   0       2.956   8.216  17.777  0.00  0.00    +0.000 C 
ENDROOT
BRANCH   1   3
ATOM      3  C   UNK A   0       2.284   5.923  18.613  0.00  0.00    +0.000 C 
BRANCH   3   5
ATOM      4  C   UNK A   0       1.131   3.984  17.466  0.00  0.00    +0.000 C 
ATOM      5  C   UNK A   0       1.450   5.293  17.536  0.00  0.00    +0.000 C 
BRANCH   4   6
ATOM      6  C   UNK A   0       1.540   2.919  18.439  0.00  0.00    +0.000 C 
BRANCH   6   8
ATOM      7  C   UNK A   0       1.223   3.151  20.922  0.00  0.00    +0.000 C 
ATOM      8  C   UNK A   0       0.722   2.904  19.701  0.00  0.00    +0.000 C 
BRANCH   7   9
ATOM      9  C   UNK A   0       2.648   3.515  21.204  0.00  0.00    +0.000 C 
BRANCH   9  11
ATOM     10  C   UNK A   0       4.584   2.499  19.956  0.00  0.00    +0.000 C 
ATOM     11  C   UNK A   0       3.573   2.394  20.831  0.00  0.00    +0.000 C 
BRANCH  10  12
ATOM     12  C   UNK A   0       4.905   3.769  19.231  0.00  0.00    +0.000 C 
BRANCH  12  13
ATOM     13  C   UNK A   0       4.946   3.602  17.715  0.00  0.00    +0.000 C 
BRANCH  13  14
ATOM     14  C   UNK A   0       5.963   4.574  17.122  0.00  0.00    +0.000 C 
BRANCH  14  16
ATOM     15  C   UNK A   0       5.646   4.231  14.657  0.00  0.00    +0.000 C 
ATOM     16  C   UNK A   0       5.449   5.184  15.824  0.00  0.00    +0.000 C 
ENDBRANCH  14  16
ENDBRANCH  13  14
ENDBRANCH  12  13
ENDBRANCH  10  12
ENDBRANCH   9  11
ENDBRANCH   7   9
ENDBRANCH   6   8
ENDBRANCH   4   6
ENDBRANCH   3   5
ENDBRANCH   1   3
BRANCH   2  17
ATOM     17  C   UNK A   0       1.574   8.808  17.779  0.00  0.00    +0.000 C 
BRANCH  17  18
ATOM     18  C   UNK A   0       1.541  10.230  18.358  0.00  0.00    +0.000 C 
BRANCH  18  19
ATOM     19  C   UNK A   0       0.611  10.386  19.591  0.00  0.00    +0.000 C 
ATOM     20  C   UNK A   0      -0.869  10.254  19.185  0.00  0.00    +0.000 C 
ATOM     21  C   UNK A   0       0.908   9.271  20.610  0.00  0.00    +0.000 C 
BRANCH  19  22
ATOM     22  C   UNK A   0       0.827  11.751  20.264  0.00  0.00    +0.000 C 
ATOM     23  O   UNK A   0       0.901  11.878  21.482  0.00  0.00    +0.000 OA
ATOM     24  N   ALA A   1       0.933  12.820  19.402  0.00  0.00    +0.000 N 
ATOM     25  H   ALA A   1       0.840  12.671  18.406  0.00  0.00    +0.000 HD
BRANCH  24  26
ATOM     26  CA  ALA A   1       1.061  14.208  19.855  0.00  0.00    +0.000 C 
ATOM     27  CB  ALA A   1       2.516  14.665  19.890  0.00  0.00    +0.000 C 
BRANCH  26  28
ATOM     28  C   ALA A   1       0.173  15.163  19.043  0.00  0.00    +0.000 C 
BRANCH  28  29
ATOM     29  O   ALA A   1      -1.197  14.964  19.402  0.00  0.00    +0.000 OA
ATOM     30  H   ALA A   1      -1.713  15.464  18.744  0.00  0.00    +0.000 HD
ENDBRANCH  28  29
ENDBRANCH  26  28
ENDBRANCH  24  26
ENDBRANCH  19  22
ENDBRANCH  18  19
ENDBRANCH  17  18
ENDBRANCH   2  17
TORSDOF 17
ENDMDL
MODEL 9
REMARK VINA RESULT:      -6.1      4.652      7.911
REMARK  Name = 
REMARK  21 active torsions:
REMARK  status: ('A' for Active; 'I' for Inactive)
REMARK    1  A    between atoms: C_1  and  C_2
REMARK    2  A    between atoms: C_2  and  C_3
REMARK    3  A    between atoms: C_3  and  C_4
REMARK    4  A    between atoms: C_4  and  C_5
REMARK    5  A    between atoms: C_5  and  C_6
REMARK    6  A    between atoms: C_7  and  C_8
REMARK    7  A    between atoms: C_8  and  C_9
REMARK    8  A    between atoms: C_10  and  C_11
REMARK    9  A    between atoms: C_11  and  C_12
REMARK   10  A    between atoms: C_13  and  C_14
REMARK   11  A    between atoms: C_14  and  C_15
REMARK   12  A    between atoms: C_16  and  C_17
REMARK   13  A    between atoms: C_17  and  C_18
REMARK   14  A    between atoms: C_18  and  C_19
REMARK   15  A    between atoms: C_19  and  C_20
REMARK   16  A    between atoms: C_19  and  C_21
REMARK   17  A    between atoms: C_19  and  C_22
REMARK   18  A    between atoms: N_24  and  CA_25
REMARK   19  A    between atoms: CA_25  and  CB_26
REMARK   20  A    between atoms: CA_25  and  C_27
REMARK   21  A    between atoms: C_27  and  O_28
REMARK                            x       y       z     vdW  Elec       q    Type
REMARK                         _______ _______ _______ _____ _____    ______ ____
ROOT
ATOM      1  C   UNK A   0       2.074   2.889  18.365  0.00  0.00    +0.000 C 
ATOM      2  C   UNK A   0       2.945   3.041  17.357  0.00  0.00    +0.000 C 
ENDROOT
BRANCH   1   3
ATOM      3  C   UNK A   0       2.339   3.201  19.810  0.00  0.00    +0.000 C 
BRANCH   3   5
ATOM      4  C   UNK A   0       1.573   5.553  20.343  0.00  0.00    +0.000 C 
ATOM      5  C   UNK A   0       1.387   4.217  20.369  0.00  0.00    +0.000 C 
BRANCH   4   6
ATOM      6  C   UNK A   0       2.751   6.272  19.756  0.00  0.00    +0.000 C 
BRANCH   6   8
ATOM      7  C   UNK A   0       2.142   7.795  17.852  0.00  0.00    +0.000 C 
ATOM      8  C   UNK A   0       2.591   6.612  18.300  0.00  0.00    +0.000 C 
BRANCH   7   9
ATOM      9  C   UNK A   0       1.774   8.957  18.723  0.00  0.00    +0.000 C 
BRANCH   9  11
ATOM     10  C   UNK A   0       0.080  10.818  18.686  0.00  0.00    +0.000 C 
ATOM     11  C   UNK A   0       0.677   9.769  18.101  0.00  0.00    +0.000 C 
BRANCH  10  12
ATOM     12  C   UNK A   0       0.441  11.300  20.056  0.00  0.00    +0.000 C 
BRANCH  12  13
ATOM     13  C   UNK A   0      -0.673  11.098  21.078  0.00  0.00    +0.000 C 
BRANCH  13  14
ATOM     14  C   UNK A   0      -0.687   9.642  21.539  0.00  0.00    +0.000 C 
BRANCH  14  16
ATOM     15  C   UNK A   0       1.589   9.043  22.407  0.00  0.00    +0.000 C 
ATOM     16  C   UNK A   0       0.174   9.450  22.781  0.00  0.00    +0.000 C 
ENDBRANCH  14  16
ENDBRANCH  13  14
ENDBRANCH  12  13
ENDBRANCH  10  12
ENDBRANCH   9  11
ENDBRANCH   7   9
ENDBRANCH   6   8
ENDBRANCH   4   6
ENDBRANCH   3   5
ENDBRANCH   1   3
BRANCH   2  17
ATOM     17  C   UNK A   0       4.296   3.690  17.474  0.00  0.00    +0.000 C 
BRANCH  17  18
ATOM     18  C   UNK A   0       5.241   3.301  16.327  0.00  0.00    +0.000 C 
BRANCH  18  19
ATOM     19  C   UNK A   0       5.675   4.496  15.437  0.00  0.00    +0.000 C 
ATOM     20  C   UNK A   0       6.062   4.019  14.025  0.00  0.00    +0.000 C 
ATOM     21  C   UNK A   0       4.503   5.482  15.284  0.00  0.00    +0.000 C 
BRANCH  19  22
ATOM     22  C   UNK A   0       6.871   5.232  16.064  0.00  0.00    +0.000 C 
ATOM     23  O   UNK A   0       7.885   5.497  15.427  0.00  0.00    +0.000 OA
ATOM     24  N   ALA A   1       6.721   5.572  17.390  0.00  0.00    +0.000 N 
ATOM     25  H   ALA A   1       5.877   5.309  17.883  0.00  0.00    +0.000 HD
BRANCH  24  26
ATOM     26  CA  ALA A   1       7.780   6.204  18.182  0.00  0.00    +0.000 C 
ATOM     27  CB  ALA A   1       7.881   7.702  17.906  0.00  0.00    +0.000 C 
BRANCH  26  28
ATOM     28  C   ALA A   1       7.638   5.900  19.681  0.00  0.00    +0.000 C 
BRANCH  28  29
ATOM     29  O   ALA A   1       8.747   5.109  20.115  0.00  0.00    +0.000 OA
ATOM     30  H   ALA A   1       9.537   5.652  19.939  0.00  0.00    +0.000 HD
ENDBRANCH  28  29
ENDBRANCH  26  28
ENDBRANCH  24  26
ENDBRANCH  19  22
ENDBRANCH  18  19
ENDBRANCH  17  18
ENDBRANCH   2  17
TORSDOF 17
ENDMDL
