MODEL 1
REMARK VINA RESULT:      -8.2      0.000      0.000
REMARK  Name = 
REMARK  11 active torsions:
REMARK  status: ('A' for Active; 'I' for Inactive)
REMARK    1  A    between atoms: C_1  and  C_2
REMARK    2  A    between atoms: C_2  and  C_3
REMARK    3  A    between atoms: N_5  and  C_6
REMARK    4  A    between atoms: C_6  and  C_7
REMARK    5  A    between atoms: C_10  and  C_11
REMARK    6  A    between atoms: N_13  and  C_14
REMARK    7  A    between atoms: C_24  and  C_25
REMARK    8  A    between atoms: C_25  and  C_26
REMARK    9  A    between atoms: C_27  and  C_28
REMARK   10  A    between atoms: C_28  and  C_29
REMARK   11  A    between atoms: C_29  and  O_31
REMARK                            x       y       z     vdW  Elec       q    Type
REMARK                         _______ _______ _______ _____ _____    ______ ____
ROOT
ATOM      1  C   UNL     1       1.873   8.048  19.213  0.00  0.00    +0.000 A 
ATOM      2  C   UNL     1       1.386   9.339  18.977  0.00  0.00    +0.000 A 
ATOM      3  C   UNL     1       0.817  10.082  20.013  0.00  0.00    +0.000 A 
ATOM      4  C   UNL     1       0.714   9.557  21.311  0.00  0.00    +0.000 A 
ATOM      5  C   UNL     1       1.254   8.291  21.565  0.00  0.00    +0.000 A 
ATOM      6  C   UNL     1       1.832   7.547  20.522  0.00  0.00    +0.000 A 
ENDROOT
BRANCH   4   7
ATOM      7  C   UNL     1      -0.062  10.375  22.303  0.00  0.00    +0.000 C 
ATOM      8  O   UNL     1       0.061  10.085  23.487  0.00  0.00    +0.000 OA
ATOM      9  N   UNL     1      -0.869  11.401  21.829  0.00  0.00    +0.000 N 
ATOM     10  H   UNL     1      -1.094  11.420  20.845  0.00  0.00    +0.000 HD
BRANCH   9  11
ATOM     11  C   UNL     1      -1.533  12.352  22.647  0.00  0.00    +0.000 A 
ATOM     12  C   UNL     1      -2.837  12.170  23.127  0.00  0.00    +0.000 A 
ATOM     13  C   UNL     1      -3.465  13.144  23.912  0.00  0.00    +0.000 A 
ATOM     14  C   UNL     1      -2.786  14.314  24.232  0.00  0.00    +0.000 A 
ATOM     15 CL   UNL     1      -3.570  15.516  25.180  0.00  0.00    +0.000 Cl
ATOM     16  C   UNL     1      -1.481  14.490  23.782  0.00  0.00    +0.000 A 
ATOM     17  F   UNL     1      -0.804  15.611  24.079  0.00  0.00    +0.000 F 
ATOM     18  C   UNL     1      -0.847  13.516  23.006  0.00  0.00    +0.000 A 
ENDBRANCH   9  11
ENDBRANCH   4   7
BRANCH   1  19
ATOM     19  C   UNL     1       2.221   7.167  18.032  0.00  0.00    +0.000 C 
BRANCH  19  22
ATOM     20  C   UNL     1       4.967   4.948  18.243  0.00  0.00    +0.000 A 
ATOM     21  N   UNL     1       4.460   6.171  18.085  0.00  0.00    +0.000 NA
ATOM     22  N   UNL     1       3.121   6.025  18.215  0.00  0.00    +0.000 N 
ATOM     23  C   UNL     1       2.756   4.721  18.520  0.00  0.00    +0.000 A 
ATOM     24  C   UNL     1       3.951   4.005  18.553  0.00  0.00    +0.000 A 
BRANCH  20  26
ATOM     25  C   UNL     1       6.997   4.653  16.693  0.00  0.00    +0.000 C 
ATOM     26  C   UNL     1       6.431   4.652  18.102  0.00  0.00    +0.000 C 
ENDBRANCH  20  26
BRANCH  23  27
ATOM     27  C   UNL     1       1.377   4.141  18.733  0.00  0.00    +0.000 C 
ATOM     28  C   UNL     1       0.830   3.959  20.133  0.00  0.00    +0.000 C 
ENDBRANCH  23  27
BRANCH  24  29
ATOM     29  C   UNL     1       4.143   2.536  18.794  0.00  0.00    +0.000 C 
BRANCH  29  30
ATOM     30  C   UNL     1       4.404   2.142  20.232  0.00  0.00    +0.000 C 
ATOM     31  O   UNL     1       3.699   2.519  21.160  0.00  0.00    +0.000 OA
BRANCH  30  32
ATOM     32  O   UNL     1       5.421   1.272  20.429  0.00  0.00    +0.000 OA
ATOM     33  H   UNL     1       5.530   0.995  21.360  0.00  0.00    +0.000 HD
ENDBRANCH  30  32
ENDBRANCH  29  30
ENDBRANCH  24  29
ENDBRANCH  19  22
ENDBRANCH   1  19
TORSDOF 9
ENDMDL
MODEL 2
REMARK VINA RESULT:      -8.0      0.900      1.228
REMARK  Name = 
REMARK  11 active torsions:
REMARK  status: ('A' for Active; 'I' for Inactive)
REMARK    1  A    between atoms: C_1  and  C_2
REMARK    2  A    between atoms: C_2  and  C_3
REMARK    3  A    between atoms: N_5  and  C_6
REMARK    4  A    between atoms: C_6  and  C_7
REMARK    5  A    between atoms: C_10  and  C_11
REMARK    6  A    between atoms: N_13  and  C_14
REMARK    7  A    between atoms: C_24  and  C_25
REMARK    8  A    between atoms: C_25  and  C_26
REMARK    9  A    between atoms: C_27  and  C_28
REMARK   10  A    between atoms: C_28  and  C_29
REMARK   11  A    between atoms: C_29  and  O_31
REMARK                            x       y       z     vdW  Elec       q    Type
REMARK                         _______ _______ _______ _____ _____    ______ ____
ROOT
ATOM      1  C   UNL     1       1.976   8.163  19.039  0.00  0.00    +0.000 A 
ATOM      2  C   UNL     1       1.516   9.464  18.801  0.00  0.00    +0.000 A 
ATOM      3  C   UNL     1       0.931  10.207  19.828  0.00  0.00    +0.000 A 
ATOM      4  C   UNL     1       0.785   9.674  21.118  0.00  0.00    +0.000 A 
ATOM      5  C   UNL     1       1.298   8.397  21.376  0.00  0.00    +0.000 A 
ATOM      6  C   UNL     1       1.891   7.652  20.341  0.00  0.00    +0.000 A 
ENDROOT
BRANCH   4   7
ATOM      7  C   UNL     1      -0.005  10.496  22.096  0.00  0.00    +0.000 C 
ATOM      8  O   UNL     1       0.129  10.233  23.286  0.00  0.00    +0.000 OA
ATOM      9  N   UNL     1      -0.833  11.495  21.604  0.00  0.00    +0.000 N 
ATOM     10  H   UNL     1      -1.062  11.490  20.621  0.00  0.00    +0.000 HD
BRANCH   9  11
ATOM     11  C   UNL     1      -1.514  12.449  22.405  0.00  0.00    +0.000 A 
ATOM     12  C   UNL     1      -1.138  13.798  22.475  0.00  0.00    +0.000 A 
ATOM     13  C   UNL     1      -1.823  14.700  23.297  0.00  0.00    +0.000 A 
ATOM     14  C   UNL     1      -2.901  14.261  24.055  0.00  0.00    +0.000 A 
ATOM     15 CL   UNL     1      -3.726  15.372  25.079  0.00  0.00    +0.000 Cl
ATOM     16  C   UNL     1      -3.298  12.929  23.970  0.00  0.00    +0.000 A 
ATOM     17  F   UNL     1      -4.338  12.483  24.692  0.00  0.00    +0.000 F 
ATOM     18  C   UNL     1      -2.624  12.027  23.144  0.00  0.00    +0.000 A 
ENDBRANCH   9  11
ENDBRANCH   4   7
BRANCH   1  19
ATOM     19  C   UNL     1       2.341   7.286  17.859  0.00  0.00    +0.000 C 
BRANCH  19  22
ATOM     20  C   UNL     1       5.018   4.997  18.171  0.00  0.00    +0.000 A 
ATOM     21  N   UNL     1       4.549   6.236  18.024  0.00  0.00    +0.000 NA
ATOM     22  N   UNL     1       3.202   6.117  18.061  0.00  0.00    +0.000 N 
ATOM     23  C   UNL     1       2.789   4.813  18.292  0.00  0.00    +0.000 A 
ATOM     24  C   UNL     1       3.964   4.068  18.379  0.00  0.00    +0.000 A 
BRANCH  20  26
ATOM     25  C   UNL     1       7.128   4.652  16.742  0.00  0.00    +0.000 C 
ATOM     26  C   UNL     1       6.482   4.670  18.116  0.00  0.00    +0.000 C 
ENDBRANCH  20  26
BRANCH  23  27
ATOM     27  C   UNL     1       1.387   4.260  18.394  0.00  0.00    +0.000 C 
ATOM     28  C   UNL     1       0.840   3.793  19.727  0.00  0.00    +0.000 C 
ENDBRANCH  23  27
BRANCH  24  29
ATOM     29  C   UNL     1       4.107   2.587  18.578  0.00  0.00    +0.000 C 
BRANCH  29  30
ATOM     30  C   UNL     1       4.336   2.143  20.007  0.00  0.00    +0.000 C 
ATOM     31  O   UNL     1       3.580   2.446  20.923  0.00  0.00    +0.000 OA
BRANCH  30  32
ATOM     32  O   UNL     1       5.386   1.314  20.206  0.00  0.00    +0.000 OA
ATOM     33  H   UNL     1       6.002   1.616  20.902  0.00  0.00    +0.000 HD
ENDBRANCH  30  32
ENDBRANCH  29  30
ENDBRANCH  24  29
ENDBRANCH  19  22
ENDBRANCH   1  19
TORSDOF 9
ENDMDL
MODEL 3
REMARK VINA RESULT:      -7.9      1.130      1.716
REMARK  Name = 
REMARK  11 active torsions:
REMARK  status: ('A' for Active; 'I' for Inactive)
REMARK    1  A    between atoms: C_1  and  C_2
REMARK    2  A    between atoms: C_2  and  C_3
REMARK    3  A    between atoms: N_5  and  C_6
REMARK    4  A    between atoms: C_6  and  C_7
REMARK    5  A    between atoms: C_10  and  C_11
REMARK    6  A    between atoms: N_13  and  C_14
REMARK    7  A    between atoms: C_24  and  C_25
REMARK    8  A    between atoms: C_25  and  C_26
REMARK    9  A    between atoms: C_27  and  C_28
REMARK   10  A    between atoms: C_28  and  C_29
REMARK   11  A    between atoms: C_29  and  O_31
REMARK                            x       y       z     vdW  Elec       q    Type
REMARK                         _______ _______ _______ _____ _____    ______ ____
ROOT
ATOM      1  C   UNL     1       2.008   8.185  18.348  0.00  0.00    +0.000 A 
ATOM      2  C   UNL     1       2.075   7.779  19.687  0.00  0.00    +0.000 A 
ATOM      3  C   UNL     1       1.390   8.485  20.676  0.00  0.00    +0.000 A 
ATOM      4  C   UNL     1       0.622   9.618  20.361  0.00  0.00    +0.000 A 
ATOM      5  C   UNL     1       0.503   9.991  19.017  0.00  0.00    +0.000 A 
ATOM      6  C   UNL     1       1.190   9.275  18.021  0.00  0.00    +0.000 A 
ENDROOT
BRANCH   4   7
ATOM      7  C   UNL     1       0.067  10.393  21.521  0.00  0.00    +0.000 C 
ATOM      8  O   UNL     1       0.455  10.081  22.641  0.00  0.00    +0.000 OA
ATOM      9  N   UNL     1      -0.846  11.407  21.264  0.00  0.00    +0.000 N 
ATOM     10  H   UNL     1      -1.283  11.442  20.355  0.00  0.00    +0.000 HD
BRANCH   9  11
ATOM     11  C   UNL     1      -1.333  12.322  22.233  0.00  0.00    +0.000 A 
ATOM     12  C   UNL     1      -0.666  13.509  22.569  0.00  0.00    +0.000 A 
ATOM     13  C   UNL     1      -1.169  14.372  23.549  0.00  0.00    +0.000 A 
ATOM     14  C   UNL     1      -2.356  14.058  24.201  0.00  0.00    +0.000 A 
ATOM     15 CL   UNL     1      -2.958  15.113  25.419  0.00  0.00    +0.000 Cl
ATOM     16  C   UNL     1      -3.038  12.895  23.854  0.00  0.00    +0.000 A 
ATOM     17  F   UNL     1      -4.187  12.572  24.468  0.00  0.00    +0.000 F 
ATOM     18  C   UNL     1      -2.545  12.035  22.870  0.00  0.00    +0.000 A 
ENDBRANCH   9  11
ENDBRANCH   4   7
BRANCH   1  19
ATOM     19  C   UNL     1       2.973   7.582  17.349  0.00  0.00    +0.000 C 
BRANCH  19  22
ATOM     20  C   UNL     1       5.464   5.195  18.126  0.00  0.00    +0.000 A 
ATOM     21  N   UNL     1       5.079   6.448  17.883  0.00  0.00    +0.000 NA
ATOM     22  N   UNL     1       3.739   6.385  17.706  0.00  0.00    +0.000 N 
ATOM     23  C   UNL     1       3.238   5.105  17.894  0.00  0.00    +0.000 A 
ATOM     24  C   UNL     1       4.351   4.315  18.180  0.00  0.00    +0.000 A 
BRANCH  20  26
ATOM     25  C   UNL     1       7.752   5.725  19.173  0.00  0.00    +0.000 C 
ATOM     26  C   UNL     1       6.902   4.809  18.311  0.00  0.00    +0.000 C 
ENDBRANCH  20  26
BRANCH  23  27
ATOM     27  C   UNL     1       1.815   4.611  17.781  0.00  0.00    +0.000 C 
ATOM     28  C   UNL     1       1.089   4.075  18.997  0.00  0.00    +0.000 C 
ENDBRANCH  23  27
BRANCH  24  29
ATOM     29  C   UNL     1       4.395   2.836  18.428  0.00  0.00    +0.000 C 
BRANCH  29  30
ATOM     30  C   UNL     1       4.376   2.420  19.883  0.00  0.00    +0.000 C 
ATOM     31  O   UNL     1       3.533   2.822  20.675  0.00  0.00    +0.000 OA
BRANCH  30  32
ATOM     32  O   UNL     1       5.303   1.503  20.246  0.00  0.00    +0.000 OA
ATOM     33  H   UNL     1       5.055   0.981  21.034  0.00  0.00    +0.000 HD
ENDBRANCH  30  32
ENDBRANCH  29  30
ENDBRANCH  24  29
ENDBRANCH  19  22
ENDBRANCH   1  19
TORSDOF 9
ENDMDL
MODEL 4
REMARK VINA RESULT:      -7.9      3.258      3.909
REMARK  Name = 
REMARK  11 active torsions:
REMARK  status: ('A' for Active; 'I' for Inactive)
REMARK    1  A    between atoms: C_1  and  C_2
REMARK    2  A    between atoms: C_2  and  C_3
REMARK    3  A    between atoms: N_5  and  C_6
REMARK    4  A    between atoms: C_6  and  C_7
REMARK    5  A    between atoms: C_10  and  C_11
REMARK    6  A    between atoms: N_13  and  C_14
REMARK    7  A    between atoms: C_24  and  C_25
REMARK    8  A    between atoms: C_25  and  C_26
REMARK    9  A    between atoms: C_27  and  C_28
REMARK   10  A    between atoms: C_28  and  C_29
REMARK   11  A    between atoms: C_29  and  O_31
REMARK                            x       y       z     vdW  Elec       q    Type
REMARK                         _______ _______ _______ _____ _____    ______ ____
ROOT
ATOM      1  C   UNL     1       2.211   6.469  19.869  0.00  0.00    +0.000 A 
ATOM      2  C   UNL     1       1.567   6.890  21.039  0.00  0.00    +0.000 A 
ATOM      3  C   UNL     1       1.076   8.192  21.147  0.00  0.00    +0.000 A 
ATOM      4  C   UNL     1       1.217   9.112  20.095  0.00  0.00    +0.000 A 
ATOM      5  C   UNL     1       1.806   8.677  18.902  0.00  0.00    +0.000 A 
ATOM      6  C   UNL     1       2.295   7.363  18.793  0.00  0.00    +0.000 A 
ENDROOT
BRANCH   4   7
ATOM      7  C   UNL     1       0.802  10.526  20.383  0.00  0.00    +0.000 C 
ATOM      8  O   UNL     1       0.922  10.921  21.537  0.00  0.00    +0.000 OA
ATOM      9  N   UNL     1       0.310  11.298  19.339  0.00  0.00    +0.000 N 
ATOM     10  H   UNL     1       0.027  10.833  18.489  0.00  0.00    +0.000 HD
BRANCH   9  11
ATOM     11  C   UNL     1       0.029  12.686  19.423  0.00  0.00    +0.000 A 
ATOM     12  C   UNL     1      -1.106  13.200  20.066  0.00  0.00    +0.000 A 
ATOM     13  C   UNL     1      -1.358  14.576  20.104  0.00  0.00    +0.000 A 
ATOM     14  C   UNL     1      -0.468  15.457  19.503  0.00  0.00    +0.000 A 
ATOM     15 CL   UNL     1      -0.794  17.146  19.536  0.00  0.00    +0.000 Cl
ATOM     16  C   UNL     1       0.676  14.958  18.886  0.00  0.00    +0.000 A 
ATOM     17  F   UNL     1       1.551  15.789  18.300  0.00  0.00    +0.000 F 
ATOM     18  C   UNL     1       0.936  13.585  18.853  0.00  0.00    +0.000 A 
ENDBRANCH   9  11
ENDBRANCH   4   7
BRANCH   1  19
ATOM     19  C   UNL     1       2.975   5.161  19.881  0.00  0.00    +0.000 C 
BRANCH  19  22
ATOM     20  C   UNL     1       6.273   5.334  18.616  0.00  0.00    +0.000 A 
ATOM     21  N   UNL     1       5.374   5.560  19.574  0.00  0.00    +0.000 NA
ATOM     22  N   UNL     1       4.216   5.036  19.111  0.00  0.00    +0.000 N 
ATOM     23  C   UNL     1       4.369   4.413  17.880  0.00  0.00    +0.000 A 
ATOM     24  C   UNL     1       5.710   4.588  17.546  0.00  0.00    +0.000 A 
BRANCH  20  26
ATOM     25  C   UNL     1       7.963   7.217  18.159  0.00  0.00    +0.000 C 
ATOM     26  C   UNL     1       7.688   5.825  18.699  0.00  0.00    +0.000 C 
ENDBRANCH  20  26
BRANCH  23  27
ATOM     27  C   UNL     1       3.333   3.721  17.026  0.00  0.00    +0.000 C 
ATOM     28  C   UNL     1       2.591   2.508  17.549  0.00  0.00    +0.000 C 
ENDBRANCH  23  27
BRANCH  24  29
ATOM     29  C   UNL     1       6.416   4.152  16.296  0.00  0.00    +0.000 C 
BRANCH  29  30
ATOM     30  C   UNL     1       6.546   5.209  15.220  0.00  0.00    +0.000 C 
ATOM     31  O   UNL     1       5.652   6.006  14.964  0.00  0.00    +0.000 OA
BRANCH  30  32
ATOM     32  O   UNL     1       7.750   5.280  14.606  0.00  0.00    +0.000 OA
ATOM     33  H   UNL     1       8.262   6.081  14.832  0.00  0.00    +0.000 HD
ENDBRANCH  30  32
ENDBRANCH  29  30
ENDBRANCH  24  29
ENDBRANCH  19  22
ENDBRANCH   1  19
TORSDOF 9
ENDMDL
MODEL 5
REMARK VINA RESULT:      -7.9      1.512      2.954
REMARK  Name = 
REMARK  11 active torsions:
REMARK  status: ('A' for Active; 'I' for Inactive)
REMARK    1  A    between atoms: C_1  and  C_2
REMARK    2  A    between atoms: C_2  and  C_3
REMARK    3  A    between atoms: N_5  and  C_6
REMARK    4  A    between atoms: C_6  and  C_7
REMARK    5  A    between atoms: C_10  and  C_11
REMARK    6  A    between atoms: N_13  and  C_14
REMARK    7  A    between atoms: C_24  and  C_25
REMARK    8  A    between atoms: C_25  and  C_26
REMARK    9  A    between atoms: C_27  and  C_28
REMARK   10  A    between atoms: C_28  and  C_29
REMARK   11  A    between atoms: C_29  and  O_31
REMARK                            x       y       z     vdW  Elec       q    Type
REMARK                         _______ _______ _______ _____ _____    ______ ____
ROOT
ATOM      1  C   UNL     1       2.268   7.975  18.514  0.00  0.00    +0.000 A 
ATOM      2  C   UNL     1       1.950   8.008  19.877  0.00  0.00    +0.000 A 
ATOM      3  C   UNL     1       1.051   8.954  20.372  0.00  0.00    +0.000 A 
ATOM      4  C   UNL     1       0.447   9.896  19.524  0.00  0.00    +0.000 A 
ATOM      5  C   UNL     1       0.715   9.828  18.151  0.00  0.00    +0.000 A 
ATOM      6  C   UNL     1       1.617   8.871  17.654  0.00  0.00    +0.000 A 
ENDROOT
BRANCH   4   7
ATOM      7  C   UNL     1      -0.371  10.966  20.188  0.00  0.00    +0.000 C 
ATOM      8  O   UNL     1      -1.280  11.463  19.534  0.00  0.00    +0.000 OA
ATOM      9  N   UNL     1      -0.053  11.331  21.490  0.00  0.00    +0.000 N 
ATOM     10  H   UNL     1       0.841  11.048  21.864  0.00  0.00    +0.000 HD
BRANCH   9  11
ATOM     11  C   UNL     1      -0.826  12.206  22.296  0.00  0.00    +0.000 A 
ATOM     12  C   UNL     1      -0.498  13.555  22.494  0.00  0.00    +0.000 A 
ATOM     13  C   UNL     1      -1.275  14.378  23.317  0.00  0.00    +0.000 A 
ATOM     14  C   UNL     1      -2.399  13.858  23.947  0.00  0.00    +0.000 A 
ATOM     15 CL   UNL     1      -3.338  14.870  24.974  0.00  0.00    +0.000 Cl
ATOM     16  C   UNL     1      -2.747  12.527  23.735  0.00  0.00    +0.000 A 
ATOM     17  F   UNL     1      -3.829  12.003  24.331  0.00  0.00    +0.000 F 
ATOM     18  C   UNL     1      -1.980  11.704  22.906  0.00  0.00    +0.000 A 
ENDBRANCH   9  11
ENDBRANCH   4   7
BRANCH   1  19
ATOM     19  C   UNL     1       3.443   7.138  18.054  0.00  0.00    +0.000 C 
BRANCH  19  22
ATOM     20  C   UNL     1       2.621   3.708  18.309  0.00  0.00    +0.000 A 
ATOM     21  N   UNL     1       2.331   4.956  17.942  0.00  0.00    +0.000 NA
ATOM     22  N   UNL     1       3.426   5.686  18.256  0.00  0.00    +0.000 N 
ATOM     23  C   UNL     1       4.454   4.908  18.771  0.00  0.00    +0.000 A 
ATOM     24  C   UNL     1       3.949   3.609  18.802  0.00  0.00    +0.000 A 
BRANCH  20  26
ATOM     25  C   UNL     1       0.543   2.520  19.248  0.00  0.00    +0.000 C 
ATOM     26  C   UNL     1       1.637   2.580  18.198  0.00  0.00    +0.000 C 
ENDBRANCH  20  26
BRANCH  23  27
ATOM     27  C   UNL     1       5.823   5.332  19.250  0.00  0.00    +0.000 C 
ATOM     28  C   UNL     1       7.044   5.107  18.382  0.00  0.00    +0.000 C 
ENDBRANCH  23  27
BRANCH  24  29
ATOM     29  C   UNL     1       4.622   2.368  19.309  0.00  0.00    +0.000 C 
BRANCH  29  30
ATOM     30  C   UNL     1       4.436   2.084  20.784  0.00  0.00    +0.000 C 
ATOM     31  O   UNL     1       3.414   2.379  21.391  0.00  0.00    +0.000 OA
BRANCH  30  32
ATOM     32  O   UNL     1       5.440   1.403  21.384  0.00  0.00    +0.000 OA
ATOM     33  H   UNL     1       6.015   1.960  21.946  0.00  0.00    +0.000 HD
ENDBRANCH  30  32
ENDBRANCH  29  30
ENDBRANCH  24  29
ENDBRANCH  19  22
ENDBRANCH   1  19
TORSDOF 9
ENDMDL
MODEL 6
REMARK VINA RESULT:      -7.8      2.956      3.761
REMARK  Name = 
REMARK  11 active torsions:
REMARK  status: ('A' for Active; 'I' for Inactive)
REMARK    1  A    between atoms: C_1  and  C_2
REMARK    2  A    between atoms: C_2  and  C_3
REMARK    3  A    between atoms: N_5  and  C_6
REMARK    4  A    between atoms: C_6  and  C_7
REMARK    5  A    between atoms: C_10  and  C_11
REMARK    6  A    between atoms: N_13  and  C_14
REMARK    7  A    between atoms: C_24  and  C_25
REMARK    8  A    between atoms: C_25  and  C_26
REMARK    9  A    between atoms: C_27  and  C_28
REMARK   10  A    between atoms: C_28  and  C_29
REMARK   11  A    between atoms: C_29  and  O_31
REMARK                            x       y       z     vdW  Elec       q    Type
REMARK                         _______ _______ _______ _____ _____    ______ ____
ROOT
ATOM      1  C   UNL     1       2.187   6.482  19.849  0.00  0.00    +0.000 A 
ATOM      2  C   UNL     1       1.504   6.875  21.006  0.00  0.00    +0.000 A 
ATOM      3  C   UNL     1       1.016   8.176  21.133  0.00  0.00    +0.000 A 
ATOM      4  C   UNL     1       1.199   9.123  20.113  0.00  0.00    +0.000 A 
ATOM      5  C   UNL     1       1.829   8.718  18.930  0.00  0.00    +0.000 A 
ATOM      6  C   UNL     1       2.314   7.405  18.802  0.00  0.00    +0.000 A 
ENDROOT
BRANCH   4   7
ATOM      7  C   UNL     1       0.782  10.532  20.426  0.00  0.00    +0.000 C 
ATOM      8  O   UNL     1       1.210  11.026  21.462  0.00  0.00    +0.000 OA
ATOM      9  N   UNL     1      -0.058  11.187  19.535  0.00  0.00    +0.000 N 
ATOM     10  H   UNL     1      -0.545  10.639  18.841  0.00  0.00    +0.000 HD
BRANCH   9  11
ATOM     11  C   UNL     1      -0.408  12.560  19.614  0.00  0.00    +0.000 A 
ATOM     12  C   UNL     1       0.265  13.563  18.903  0.00  0.00    +0.000 A 
ATOM     13  C   UNL     1      -0.097  14.910  19.028  0.00  0.00    +0.000 A 
ATOM     14  C   UNL     1      -1.148  15.266  19.865  0.00  0.00    +0.000 A 
ATOM     15 CL   UNL     1      -1.575  16.924  20.031  0.00  0.00    +0.000 Cl
ATOM     16  C   UNL     1      -1.839  14.273  20.554  0.00  0.00    +0.000 A 
ATOM     17  F   UNL     1      -2.857  14.592  21.367  0.00  0.00    +0.000 F 
ATOM     18  C   UNL     1      -1.486  12.927  20.425  0.00  0.00    +0.000 A 
ENDBRANCH   9  11
ENDBRANCH   4   7
BRANCH   1  19
ATOM     19  C   UNL     1       2.943   5.170  19.852  0.00  0.00    +0.000 C 
BRANCH  19  22
ATOM     20  C   UNL     1       6.236   5.341  18.573  0.00  0.00    +0.000 A 
ATOM     21  N   UNL     1       5.340   5.573  19.532  0.00  0.00    +0.000 NA
ATOM     22  N   UNL     1       4.182   5.041  19.078  0.00  0.00    +0.000 N 
ATOM     23  C   UNL     1       4.332   4.409  17.852  0.00  0.00    +0.000 A 
ATOM     24  C   UNL     1       5.672   4.585  17.511  0.00  0.00    +0.000 A 
BRANCH  20  26
ATOM     25  C   UNL     1       7.911   7.242  18.133  0.00  0.00    +0.000 C 
ATOM     26  C   UNL     1       7.650   5.837  18.646  0.00  0.00    +0.000 C 
ENDBRANCH  20  26
BRANCH  23  27
ATOM     27  C   UNL     1       3.295   3.706  17.007  0.00  0.00    +0.000 C 
ATOM     28  C   UNL     1       2.600   2.463  17.521  0.00  0.00    +0.000 C 
ENDBRANCH  23  27
BRANCH  24  29
ATOM     29  C   UNL     1       6.375   4.140  16.262  0.00  0.00    +0.000 C 
BRANCH  29  30
ATOM     30  C   UNL     1       6.614   5.222  15.231  0.00  0.00    +0.000 C 
ATOM     31  O   UNL     1       7.612   5.251  14.521  0.00  0.00    +0.000 OA
BRANCH  30  32
ATOM     32  O   UNL     1       5.614   6.120  15.076  0.00  0.00    +0.000 OA
ATOM     33  H   UNL     1       4.775   5.727  14.764  0.00  0.00    +0.000 HD
ENDBRANCH  30  32
ENDBRANCH  29  30
ENDBRANCH  24  29
ENDBRANCH  19  22
ENDBRANCH   1  19
TORSDOF 9
ENDMDL
MODEL 7
REMARK VINA RESULT:      -7.8      2.467      3.232
REMARK  Name = 
REMARK  11 active torsions:
REMARK  status: ('A' for Active; 'I' for Inactive)
REMARK    1  A    between atoms: C_1  and  C_2
REMARK    2  A    between atoms: C_2  and  C_3
REMARK    3  A    between atoms: N_5  and  C_6
REMARK    4  A    between atoms: C_6  and  C_7
REMARK    5  A    between atoms: C_10  and  C_11
REMARK    6  A    between atoms: N_13  and  C_14
REMARK    7  A    between atoms: C_24  and  C_25
REMARK    8  A    between atoms: C_25  and  C_26
REMARK    9  A    between atoms: C_27  and  C_28
REMARK   10  A    between atoms: C_28  and  C_29
REMARK   11  A    between atoms: C_29  and  O_31
REMARK                            x       y       z     vdW  Elec       q    Type
REMARK                         _______ _______ _______ _____ _____    ______ ____
ROOT
ATOM      1  C   UNL     1       2.332   6.384  19.770  0.00  0.00    +0.000 A 
ATOM      2  C   UNL     1       1.593   6.735  20.906  0.00  0.00    +0.000 A 
ATOM      3  C   UNL     1       1.021   8.004  21.014  0.00  0.00    +0.000 A 
ATOM      4  C   UNL     1       1.171   8.958  19.995  0.00  0.00    +0.000 A 
ATOM      5  C   UNL     1       1.858   8.590  18.831  0.00  0.00    +0.000 A 
ATOM      6  C   UNL     1       2.429   7.311  18.723  0.00  0.00    +0.000 A 
ENDROOT
BRANCH   4   7
ATOM      7  C   UNL     1       0.657  10.337  20.290  0.00  0.00    +0.000 C 
ATOM      8  O   UNL     1       1.190  11.272  19.703  0.00  0.00    +0.000 OA
ATOM      9  N   UNL     1      -0.381  10.477  21.202  0.00  0.00    +0.000 N 
ATOM     10  H   UNL     1      -0.599   9.697  21.805  0.00  0.00    +0.000 HD
BRANCH   9  11
ATOM     11  C   UNL     1      -1.072  11.688  21.462  0.00  0.00    +0.000 A 
ATOM     12  C   UNL     1      -1.964  12.272  20.551  0.00  0.00    +0.000 A 
ATOM     13  C   UNL     1      -2.607  13.481  20.838  0.00  0.00    +0.000 A 
ATOM     14  C   UNL     1      -2.368  14.118  22.050  0.00  0.00    +0.000 A 
ATOM     15 CL   UNL     1      -3.146  15.616  22.387  0.00  0.00    +0.000 Cl
ATOM     16  C   UNL     1      -1.505  13.532  22.971  0.00  0.00    +0.000 A 
ATOM     17  F   UNL     1      -1.260  14.128  24.148  0.00  0.00    +0.000 F 
ATOM     18  C   UNL     1      -0.868  12.320  22.693  0.00  0.00    +0.000 A 
ENDBRANCH   9  11
ENDBRANCH   4   7
BRANCH   1  19
ATOM     19  C   UNL     1       3.170   5.122  19.799  0.00  0.00    +0.000 C 
BRANCH  19  22
ATOM     20  C   UNL     1       6.398   5.568  18.425  0.00  0.00    +0.000 A 
ATOM     21  N   UNL     1       5.479   5.815  19.359  0.00  0.00    +0.000 NA
ATOM     22  N   UNL     1       4.412   5.055  19.024  0.00  0.00    +0.000 N 
ATOM     23  C   UNL     1       4.651   4.265  17.908  0.00  0.00    +0.000 A 
ATOM     24  C   UNL     1       5.950   4.579  17.510  0.00  0.00    +0.000 A 
BRANCH  20  26
ATOM     25  C   UNL     1       7.765   7.613  17.677  0.00  0.00    +0.000 C 
ATOM     26  C   UNL     1       7.723   6.270  18.383  0.00  0.00    +0.000 C 
ENDBRANCH  20  26
BRANCH  23  27
ATOM     27  C   UNL     1       3.728   3.293  17.211  0.00  0.00    +0.000 C 
ATOM     28  C   UNL     1       3.355   1.981  17.869  0.00  0.00    +0.000 C 
ENDBRANCH  23  27
BRANCH  24  29
ATOM     29  C   UNL     1       6.708   4.048  16.328  0.00  0.00    +0.000 C 
BRANCH  29  30
ATOM     30  C   UNL     1       6.551   4.839  15.047  0.00  0.00    +0.000 C 
ATOM     31  O   UNL     1       5.506   4.864  14.409  0.00  0.00    +0.000 OA
BRANCH  30  32
ATOM     32  O   UNL     1       7.614   5.594  14.687  0.00  0.00    +0.000 OA
ATOM     33  H   UNL     1       7.732   6.397  15.231  0.00  0.00    +0.000 HD
ENDBRANCH  30  32
ENDBRANCH  29  30
ENDBRANCH  24  29
ENDBRANCH  19  22
ENDBRANCH   1  19
TORSDOF 9
ENDMDL
MODEL 8
REMARK VINA RESULT:      -7.7      3.840      4.342
REMARK  Name = 
REMARK  11 active torsions:
REMARK  status: ('A' for Active; 'I' for Inactive)
REMARK    1  A    between atoms: C_1  and  C_2
REMARK    2  A    between atoms: C_2  and  C_3
REMARK    3  A    between atoms: N_5  and  C_6
REMARK    4  A    between atoms: C_6  and  C_7
REMARK    5  A    between atoms: C_10  and  C_11
REMARK    6  A    between atoms: N_13  and  C_14
REMARK    7  A    between atoms: C_24  and  C_25
REMARK    8  A    between atoms: C_25  and  C_26
REMARK    9  A    between atoms: C_27  and  C_28
REMARK   10  A    between atoms: C_28  and  C_29
REMARK   11  A    between atoms: C_29  and  O_31
REMARK                            x       y       z     vdW  Elec       q    Type
REMARK                         _______ _______ _______ _____ _____    ______ ____
ROOT
ATOM      1  C   UNL     1       2.178   6.841  19.672  0.00  0.00    +0.000 A 
ATOM      2  C   UNL     1       1.588   7.434  20.795  0.00  0.00    +0.000 A 
ATOM      3  C   UNL     1       1.143   8.755  20.747  0.00  0.00    +0.000 A 
ATOM      4  C   UNL     1       1.276   9.525  19.581  0.00  0.00    +0.000 A 
ATOM      5  C   UNL     1       1.810   8.918  18.437  0.00  0.00    +0.000 A 
ATOM      6  C   UNL     1       2.253   7.585  18.486  0.00  0.00    +0.000 A 
ENDROOT
BRANCH   4   7
ATOM      7  C   UNL     1       0.916  10.979  19.694  0.00  0.00    +0.000 C 
ATOM      8  O   UNL     1       0.395  11.347  20.740  0.00  0.00    +0.000 OA
ATOM      9  N   UNL     1       1.189  11.814  18.619  0.00  0.00    +0.000 N 
ATOM     10  H   UNL     1       1.396  11.395  17.724  0.00  0.00    +0.000 HD
BRANCH   9  11
ATOM     11  C   UNL     1       1.052  13.226  18.637  0.00  0.00    +0.000 A 
ATOM     12  C   UNL     1      -0.191  13.874  18.678  0.00  0.00    +0.000 A 
ATOM     13  C   UNL     1      -0.282  15.271  18.671  0.00  0.00    +0.000 A 
ATOM     14  C   UNL     1       0.877  16.037  18.630  0.00  0.00    +0.000 A 
ATOM     15 CL   UNL     1       0.757  17.753  18.600  0.00  0.00    +0.000 Cl
ATOM     16  C   UNL     1       2.115  15.402  18.617  0.00  0.00    +0.000 A 
ATOM     17  F   UNL     1       3.248  16.121  18.579  0.00  0.00    +0.000 F 
ATOM     18  C   UNL     1       2.211  14.008  18.633  0.00  0.00    +0.000 A 
ENDBRANCH   9  11
ENDBRANCH   4   7
BRANCH   1  19
ATOM     19  C   UNL     1       2.901   5.520  19.833  0.00  0.00    +0.000 C 
BRANCH  19  22
ATOM     20  C   UNL     1       6.075   5.324  18.287  0.00  0.00    +0.000 A 
ATOM     21  N   UNL     1       5.278   5.733  19.273  0.00  0.00    +0.000 NA
ATOM     22  N   UNL     1       4.060   5.217  18.988  0.00  0.00    +0.000 N 
ATOM     23  C   UNL     1       4.073   4.421  17.852  0.00  0.00    +0.000 A 
ATOM     24  C   UNL     1       5.386   4.470  17.385  0.00  0.00    +0.000 A 
BRANCH  20  26
ATOM     25  C   UNL     1       7.783   7.182  17.794  0.00  0.00    +0.000 C 
ATOM     26  C   UNL     1       7.513   5.739  18.181  0.00  0.00    +0.000 C 
ENDBRANCH  20  26
BRANCH  23  27
ATOM     27  C   UNL     1       2.934   3.678  17.194  0.00  0.00    +0.000 C 
ATOM     28  C   UNL     1       1.499   3.979  17.575  0.00  0.00    +0.000 C 
ENDBRANCH  23  27
BRANCH  24  29
ATOM     29  C   UNL     1       5.956   3.824  16.157  0.00  0.00    +0.000 C 
BRANCH  29  30
ATOM     30  C   UNL     1       5.932   4.674  14.905  0.00  0.00    +0.000 C 
ATOM     31  O   UNL     1       5.777   5.889  14.933  0.00  0.00    +0.000 OA
BRANCH  30  32
ATOM     32  O   UNL     1       6.178   4.022  13.745  0.00  0.00    +0.000 OA
ATOM     33  H   UNL     1       7.038   3.558  13.727  0.00  0.00    +0.000 HD
ENDBRANCH  30  32
ENDBRANCH  29  30
ENDBRANCH  24  29
ENDBRANCH  19  22
ENDBRANCH   1  19
TORSDOF 9
ENDMDL
MODEL 9
REMARK VINA RESULT:      -7.6      6.251      8.845
REMARK  Name = 
REMARK  11 active torsions:
REMARK  status: ('A' for Active; 'I' for Inactive)
REMARK    1  A    between atoms: C_1  and  C_2
REMARK    2  A    between atoms: C_2  and  C_3
REMARK    3  A    between atoms: N_5  and  C_6
REMARK    4  A    between atoms: C_6  and  C_7
REMARK    5  A    between atoms: C_10  and  C_11
REMARK    6  A    between atoms: N_13  and  C_14
REMARK    7  A    between atoms: C_24  and  C_25
REMARK    8  A    between atoms: C_25  and  C_26
REMARK    9  A    between atoms: C_27  and  C_28
REMARK   10  A    between atoms: C_28  and  C_29
REMARK   11  A    between atoms: C_29  and  O_31
REMARK                            x       y       z     vdW  Elec       q    Type
REMARK                         _______ _______ _______ _____ _____    ______ ____
ROOT
ATOM      1  C   UNL     1       7.056   6.058  17.758  0.00  0.00    +0.000 A 
ATOM      2  C   UNL     1       7.019   7.181  16.923  0.00  0.00    +0.000 A 
ATOM      3  C   UNL     1       7.712   8.343  17.268  0.00  0.00    +0.000 A 
ATOM      4  C   UNL     1       8.457   8.419  18.455  0.00  0.00    +0.000 A 
ATOM      5  C   UNL     1       8.547   7.279  19.262  0.00  0.00    +0.000 A 
ATOM      6  C   UNL     1       7.853   6.108  18.911  0.00  0.00    +0.000 A 
ENDROOT
BRANCH   4   7
ATOM      7  C   UNL     1       9.022   9.766  18.804  0.00  0.00    +0.000 C 
ATOM      8  O   UNL     1       9.091  10.053  19.994  0.00  0.00    +0.000 OA
ATOM      9  N   UNL     1       9.428  10.602  17.772  0.00  0.00    +0.000 N 
ATOM     10  H   UNL     1       9.124  10.390  16.834  0.00  0.00    +0.000 HD
BRANCH   9  11
ATOM     11  C   UNL     1      10.120  11.828  17.950  0.00  0.00    +0.000 A 
ATOM     12  C   UNL     1      11.491  11.899  18.232  0.00  0.00    +0.000 A 
ATOM     13  C   UNL     1      12.131  13.129  18.424  0.00  0.00    +0.000 A 
ATOM     14  C   UNL     1      11.401  14.308  18.326  0.00  0.00    +0.000 A 
ATOM     15 CL   UNL     1      12.188  15.816  18.583  0.00  0.00    +0.000 Cl
ATOM     16  C   UNL     1      10.044  14.248  18.019  0.00  0.00    +0.000 A 
ATOM     17  F   UNL     1       9.319  15.372  17.917  0.00  0.00    +0.000 F 
ATOM     18  C   UNL     1       9.404  13.022  17.818  0.00  0.00    +0.000 A 
ENDBRANCH   9  11
ENDBRANCH   4   7
BRANCH   1  19
ATOM     19  C   UNL     1       6.082   4.925  17.510  0.00  0.00    +0.000 C 
BRANCH  19  22
ATOM     20  C   UNL     1       2.820   6.123  18.164  0.00  0.00    +0.000 A 
ATOM     21  N   UNL     1       4.062   6.297  17.712  0.00  0.00    +0.000 NA
ATOM     22  N   UNL     1       4.666   5.095  17.848  0.00  0.00    +0.000 N 
ATOM     23  C   UNL     1       3.806   4.119  18.331  0.00  0.00    +0.000 A 
ATOM     24  C   UNL     1       2.590   4.771  18.533  0.00  0.00    +0.000 A 
BRANCH  20  26
ATOM     25  C   UNL     1       2.291   8.612  17.797  0.00  0.00    +0.000 C 
ATOM     26  C   UNL     1       1.825   7.242  18.256  0.00  0.00    +0.000 C 
ENDBRANCH  20  26
BRANCH  23  27
ATOM     27  C   UNL     1       4.085   2.665  18.633  0.00  0.00    +0.000 C 
ATOM     28  C   UNL     1       4.514   2.237  20.021  0.00  0.00    +0.000 C 
ENDBRANCH  23  27
BRANCH  24  29
ATOM     29  C   UNL     1       1.317   4.202  19.086  0.00  0.00    +0.000 C 
BRANCH  29  30
ATOM     30  C   UNL     1       1.330   3.900  20.569  0.00  0.00    +0.000 C 
ATOM     31  O   UNL     1       0.889   2.857  21.037  0.00  0.00    +0.000 OA
BRANCH  30  32
ATOM     32  O   UNL     1       1.940   4.819  21.352  0.00  0.00    +0.000 OA
ATOM     33  H   UNL     1       1.866   4.636  22.309  0.00  0.00    +0.000 HD
ENDBRANCH  30  32
ENDBRANCH  29  30
ENDBRANCH  24  29
ENDBRANCH  19  22
ENDBRANCH   1  19
TORSDOF 9
ENDMDL
