MODEL 1
REMARK VINA RESULT:      -6.8      0.000      0.000
REMARK  Name = 
REMARK  4 active torsions:
REMARK  status: ('A' for Active; 'I' for Inactive)
REMARK    1  A    between atoms: N_4  and  C_5
REMARK    2  A    between atoms: C_5  and  C_6
REMARK    3  A    between atoms: C_6  and  O_7
REMARK    4  A    between atoms: C_6  and  C_8
REMARK                            x       y       z     vdW  Elec       q    Type
REMARK                         _______ _______ _______ _____ _____    ______ ____
ROOT
ATOM      1  C   UNL     1       4.994   4.405  16.509  0.00  0.00    +0.000 C 
ENDROOT
BRANCH   1   2
ATOM      2  C   UNL     1       4.049   4.372  17.693  0.00  0.00    +0.000 A 
ATOM      3  C   UNL     1       3.103   5.419  17.841  0.00  0.00    +0.000 A 
ATOM      4  C   UNL     1       2.242   5.471  18.940  0.00  0.00    +0.000 A 
ATOM      5  C   UNL     1       2.348   4.475  19.883  0.00  0.00    +0.000 A 
ATOM      6  C   UNL     1       3.257   3.452  19.754  0.00  0.00    +0.000 A 
ATOM      7  C   UNL     1       4.116   3.370  18.676  0.00  0.00    +0.000 A 
ATOM      8  O   UNL     1       3.203   2.577  20.795  0.00  0.00    +0.000 OA
ATOM      9  C   UNL     1       2.174   3.184  21.605  0.00  0.00    +0.000 C 
ATOM     10  O   UNL     1       1.608   4.374  21.019  0.00  0.00    +0.000 OA
ENDBRANCH   1   2
BRANCH   1  11
ATOM     11  O   UNL     1       5.691   3.156  16.380  0.00  0.00    +0.000 OA
ATOM     12  H   UNL     1       5.441   2.603  17.140  0.00  0.00    +0.000 HD
ENDBRANCH   1  11
BRANCH   1  13
ATOM     13  C   UNL     1       5.995   5.577  16.603  0.00  0.00    +0.000 C 
BRANCH  13  17
ATOM     14  N   UNL     1       8.208   4.182  17.697  0.00  0.00    +0.000 NA
ATOM     15  C   UNL     1       7.589   5.067  18.383  0.00  0.00    +0.000 C 
ATOM     16  N   UNL     1       7.973   5.455  19.615  0.00  0.00    +0.000 N 
ATOM     17  N   UNL     1       6.475   5.716  17.979  0.00  0.00    +0.000 N 
ATOM     18  H   UNL     1       9.028   3.859  18.210  0.00  0.00    +0.000 HD
ATOM     19  H   UNL     1       8.617   4.825  20.074  0.00  0.00    +0.000 HD
ATOM     20  H   UNL     1       7.192   5.678  20.221  0.00  0.00    +0.000 HD
ATOM     21  H   UNL     1       6.391   6.662  18.333  0.00  0.00    +0.000 HD
ENDBRANCH  13  17
ENDBRANCH   1  13
TORSDOF 4
ENDMDL
MODEL 2
REMARK VINA RESULT:      -6.8      2.135      2.588
REMARK  Name = 
REMARK  4 active torsions:
REMARK  status: ('A' for Active; 'I' for Inactive)
REMARK    1  A    between atoms: N_4  and  C_5
REMARK    2  A    between atoms: C_5  and  C_6
REMARK    3  A    between atoms: C_6  and  O_7
REMARK    4  A    between atoms: C_6  and  C_8
REMARK                            x       y       z     vdW  Elec       q    Type
REMARK                         _______ _______ _______ _____ _____    ______ ____
ROOT
ATOM      1  C   UNL     1       5.418   3.870  17.380  0.00  0.00    +0.000 C 
ENDROOT
BRANCH   1   2
ATOM      2  C   UNL     1       4.158   3.699  18.206  0.00  0.00    +0.000 A 
ATOM      3  C   UNL     1       2.933   4.194  17.692  0.00  0.00    +0.000 A 
ATOM      4  C   UNL     1       1.749   4.113  18.431  0.00  0.00    +0.000 A 
ATOM      5  C   UNL     1       1.813   3.543  19.682  0.00  0.00    +0.000 A 
ATOM      6  C   UNL     1       2.992   3.057  20.194  0.00  0.00    +0.000 A 
ATOM      7  C   UNL     1       4.176   3.116  19.485  0.00  0.00    +0.000 A 
ATOM      8  O   UNL     1       2.840   2.541  21.444  0.00  0.00    +0.000 OA
ATOM      9  C   UNL     1       1.435   2.784  21.668  0.00  0.00    +0.000 C 
ATOM     10  O   UNL     1       0.771   3.396  20.542  0.00  0.00    +0.000 OA
ENDBRANCH   1   2
BRANCH   1  11
ATOM     11  O   UNL     1       6.537   4.190  18.221  0.00  0.00    +0.000 OA
ATOM     12  H   UNL     1       6.449   3.667  19.035  0.00  0.00    +0.000 HD
ENDBRANCH   1  11
BRANCH   1  13
ATOM     13  C   UNL     1       5.243   4.937  16.279  0.00  0.00    +0.000 C 
BRANCH  13  17
ATOM     14  N   UNL     1       7.490   5.183  14.568  0.00  0.00    +0.000 NA
ATOM     15  C   UNL     1       6.506   4.428  14.251  0.00  0.00    +0.000 C 
ATOM     16  N   UNL     1       6.489   3.651  13.150  0.00  0.00    +0.000 N 
ATOM     17  N   UNL     1       5.360   4.318  14.958  0.00  0.00    +0.000 N 
ATOM     18  H   UNL     1       8.243   5.072  13.888  0.00  0.00    +0.000 HD
ATOM     19  H   UNL     1       7.180   3.893  12.453  0.00  0.00    +0.000 HD
ATOM     20  H   UNL     1       5.569   3.573  12.735  0.00  0.00    +0.000 HD
ATOM     21  H   UNL     1       4.926   3.404  14.910  0.00  0.00    +0.000 HD
ENDBRANCH  13  17
ENDBRANCH   1  13
TORSDOF 4
ENDMDL
MODEL 3
REMARK VINA RESULT:      -6.7      2.010      2.465
REMARK  Name = 
REMARK  4 active torsions:
REMARK  status: ('A' for Active; 'I' for Inactive)
REMARK    1  A    between atoms: N_4  and  C_5
REMARK    2  A    between atoms: C_5  and  C_6
REMARK    3  A    between atoms: C_6  and  O_7
REMARK    4  A    between atoms: C_6  and  C_8
REMARK                            x       y       z     vdW  Elec       q    Type
REMARK                         _______ _______ _______ _____ _____    ______ ____
ROOT
ATOM      1  C   UNL     1       6.072   5.733  18.053  0.00  0.00    +0.000 C 
ENDROOT
BRANCH   1   2
ATOM      2  C   UNL     1       4.716   5.140  18.384  0.00  0.00    +0.000 A 
ATOM      3  C   UNL     1       3.565   5.673  17.750  0.00  0.00    +0.000 A 
ATOM      4  C   UNL     1       2.284   5.204  18.055  0.00  0.00    +0.000 A 
ATOM      5  C   UNL     1       2.176   4.210  19.000  0.00  0.00    +0.000 A 
ATOM      6  C   UNL     1       3.281   3.682  19.622  0.00  0.00    +0.000 A 
ATOM      7  C   UNL     1       4.559   4.120  19.338  0.00  0.00    +0.000 A 
ATOM      8  O   UNL     1       2.955   2.717  20.525  0.00  0.00    +0.000 OA
ATOM      9  C   UNL     1       1.515   2.721  20.417  0.00  0.00    +0.000 C 
ATOM     10  O   UNL     1       1.015   3.648  19.431  0.00  0.00    +0.000 OA
ENDBRANCH   1   2
BRANCH   1  11
ATOM     11  O   UNL     1       5.937   6.836  17.144  0.00  0.00    +0.000 OA
ATOM     12  H   UNL     1       5.534   7.571  17.636  0.00  0.00    +0.000 HD
ENDBRANCH   1  11
BRANCH   1  13
ATOM     13  C   UNL     1       7.038   4.673  17.480  0.00  0.00    +0.000 C 
BRANCH  13  17
ATOM     14  N   UNL     1       7.538   5.390  14.782  0.00  0.00    +0.000 NA
ATOM     15  C   UNL     1       6.799   4.384  15.065  0.00  0.00    +0.000 C 
ATOM     16  N   UNL     1       6.277   3.560  14.136  0.00  0.00    +0.000 N 
ATOM     17  N   UNL     1       6.435   4.023  16.315  0.00  0.00    +0.000 N 
ATOM     18  H   UNL     1       7.684   5.438  13.774  0.00  0.00    +0.000 HD
ATOM     19  H   UNL     1       6.281   3.929  13.195  0.00  0.00    +0.000 HD
ATOM     20  H   UNL     1       5.357   3.215  14.384  0.00  0.00    +0.000 HD
ATOM     21  H   UNL     1       6.309   3.025  16.442  0.00  0.00    +0.000 HD
ENDBRANCH  13  17
ENDBRANCH   1  13
TORSDOF 4
ENDMDL
MODEL 4
REMARK VINA RESULT:      -6.7      1.197      1.315
REMARK  Name = 
REMARK  4 active torsions:
REMARK  status: ('A' for Active; 'I' for Inactive)
REMARK    1  A    between atoms: N_4  and  C_5
REMARK    2  A    between atoms: C_5  and  C_6
REMARK    3  A    between atoms: C_6  and  O_7
REMARK    4  A    between atoms: C_6  and  C_8
REMARK                            x       y       z     vdW  Elec       q    Type
REMARK                         _______ _______ _______ _____ _____    ______ ____
ROOT
ATOM      1  C   UNL     1       5.071   4.644  17.223  0.00  0.00    +0.000 C 
ENDROOT
BRANCH   1   2
ATOM      2  C   UNL     1       3.900   4.154  18.052  0.00  0.00    +0.000 A 
ATOM      3  C   UNL     1       2.588   4.305  17.536  0.00  0.00    +0.000 A 
ATOM      4  C   UNL     1       1.466   3.921  18.276  0.00  0.00    +0.000 A 
ATOM      5  C   UNL     1       1.677   3.398  19.531  0.00  0.00    +0.000 A 
ATOM      6  C   UNL     1       2.942   3.243  20.045  0.00  0.00    +0.000 A 
ATOM      7  C   UNL     1       4.069   3.607  19.335  0.00  0.00    +0.000 A 
ATOM      8  O   UNL     1       2.931   2.715  21.300  0.00  0.00    +0.000 OA
ATOM      9  C   UNL     1       1.511   2.582  21.523  0.00  0.00    +0.000 C 
ATOM     10  O   UNL     1       0.710   2.989  20.394  0.00  0.00    +0.000 OA
ENDBRANCH   1   2
BRANCH   1  11
ATOM     11  O   UNL     1       5.938   3.555  16.874  0.00  0.00    +0.000 OA
ATOM     12  H   UNL     1       5.382   2.842  16.517  0.00  0.00    +0.000 HD
ENDBRANCH   1  11
BRANCH   1  13
ATOM     13  C   UNL     1       5.861   5.757  17.945  0.00  0.00    +0.000 C 
BRANCH  13  17
ATOM     14  N   UNL     1       8.261   6.983  18.824  0.00  0.00    +0.000 NA
ATOM     15  C   UNL     1       7.881   5.864  19.316  0.00  0.00    +0.000 C 
ATOM     16  N   UNL     1       8.526   5.233  20.316  0.00  0.00    +0.000 N 
ATOM     17  N   UNL     1       6.803   5.165  18.897  0.00  0.00    +0.000 N 
ATOM     18  H   UNL     1       9.086   7.316  19.324  0.00  0.00    +0.000 HD
ATOM     19  H   UNL     1       9.470   5.556  20.478  0.00  0.00    +0.000 HD
ATOM     20  H   UNL     1       8.500   4.224  20.230  0.00  0.00    +0.000 HD
ATOM     21  H   UNL     1       6.344   4.629  19.624  0.00  0.00    +0.000 HD
ENDBRANCH  13  17
ENDBRANCH   1  13
TORSDOF 4
ENDMDL
MODEL 5
REMARK VINA RESULT:      -6.7      3.367      5.094
REMARK  Name = 
REMARK  4 active torsions:
REMARK  status: ('A' for Active; 'I' for Inactive)
REMARK    1  A    between atoms: N_4  and  C_5
REMARK    2  A    between atoms: C_5  and  C_6
REMARK    3  A    between atoms: C_6  and  O_7
REMARK    4  A    between atoms: C_6  and  C_8
REMARK                            x       y       z     vdW  Elec       q    Type
REMARK                         _______ _______ _______ _____ _____    ______ ____
ROOT
ATOM      1  C   UNL     1       3.097   2.784  17.440  0.00  0.00    +0.000 C 
ENDROOT
BRANCH   1   2
ATOM      2  C   UNL     1       4.298   3.708  17.478  0.00  0.00    +0.000 A 
ATOM      3  C   UNL     1       4.828   4.191  16.254  0.00  0.00    +0.000 A 
ATOM      4  C   UNL     1       5.965   5.002  16.223  0.00  0.00    +0.000 A 
ATOM      5  C   UNL     1       6.562   5.312  17.424  0.00  0.00    +0.000 A 
ATOM      6  C   UNL     1       6.061   4.855  18.619  0.00  0.00    +0.000 A 
ATOM      7  C   UNL     1       4.935   4.057  18.682  0.00  0.00    +0.000 A 
ATOM      8  O   UNL     1       6.800   5.269  19.683  0.00  0.00    +0.000 OA
ATOM      9  C   UNL     1       7.839   6.018  19.016  0.00  0.00    +0.000 C 
ATOM     10  O   UNL     1       7.679   6.071  17.583  0.00  0.00    +0.000 OA
ENDBRANCH   1   2
BRANCH   1  11
ATOM     11  O   UNL     1       1.880   3.536  17.327  0.00  0.00    +0.000 OA
ATOM     12  H   UNL     1       2.116   4.428  17.020  0.00  0.00    +0.000 HD
ENDBRANCH   1  11
BRANCH   1  13
ATOM     13  C   UNL     1       3.048   1.854  18.672  0.00  0.00    +0.000 C 
BRANCH  13  17
ATOM     14  N   UNL     1       3.163   2.443  21.443  0.00  0.00    +0.000 NA
ATOM     15  C   UNL     1       2.059   2.532  20.801  0.00  0.00    +0.000 C 
ATOM     16  N   UNL     1       0.912   2.974  21.352  0.00  0.00    +0.000 N 
ATOM     17  N   UNL     1       1.891   2.188  19.505  0.00  0.00    +0.000 N 
ATOM     18  H   UNL     1       3.035   2.783  22.397  0.00  0.00    +0.000 HD
ATOM     19  H   UNL     1       0.905   2.982  22.363  0.00  0.00    +0.000 HD
ATOM     20  H   UNL     1       0.091   2.504  20.989  0.00  0.00    +0.000 HD
ATOM     21  H   UNL     1       1.196   2.737  19.014  0.00  0.00    +0.000 HD
ENDBRANCH  13  17
ENDBRANCH   1  13
TORSDOF 4
ENDMDL
MODEL 6
REMARK VINA RESULT:      -6.7      2.560      3.066
REMARK  Name = 
REMARK  4 active torsions:
REMARK  status: ('A' for Active; 'I' for Inactive)
REMARK    1  A    between atoms: N_4  and  C_5
REMARK    2  A    between atoms: C_5  and  C_6
REMARK    3  A    between atoms: C_6  and  O_7
REMARK    4  A    between atoms: C_6  and  C_8
REMARK                            x       y       z     vdW  Elec       q    Type
REMARK                         _______ _______ _______ _____ _____    ______ ____
ROOT
ATOM      1  C   UNL     1       5.577   6.149  16.592  0.00  0.00    +0.000 C 
ENDROOT
BRANCH   1   2
ATOM      2  C   UNL     1       4.346   5.491  17.183  0.00  0.00    +0.000 A 
ATOM      3  C   UNL     1       3.450   6.281  17.948  0.00  0.00    +0.000 A 
ATOM      4  C   UNL     1       2.328   5.719  18.562  0.00  0.00    +0.000 A 
ATOM      5  C   UNL     1       2.123   4.367  18.407  0.00  0.00    +0.000 A 
ATOM      6  C   UNL     1       2.980   3.588  17.668  0.00  0.00    +0.000 A 
ATOM      7  C   UNL     1       4.094   4.115  17.044  0.00  0.00    +0.000 A 
ATOM      8  O   UNL     1       2.603   2.280  17.645  0.00  0.00    +0.000 OA
ATOM      9  C   UNL     1       1.425   2.325  18.478  0.00  0.00    +0.000 C 
ATOM     10  O   UNL     1       1.099   3.651  18.943  0.00  0.00    +0.000 OA
ENDBRANCH   1   2
BRANCH   1  11
ATOM     11  O   UNL     1       5.247   6.854  15.385  0.00  0.00    +0.000 OA
ATOM     12  H   UNL     1       5.233   6.203  14.662  0.00  0.00    +0.000 HD
ENDBRANCH   1  11
BRANCH   1  13
ATOM     13  C   UNL     1       6.706   5.128  16.332  0.00  0.00    +0.000 C 
BRANCH  13  17
ATOM     14  N   UNL     1       6.446   3.697  13.897  0.00  0.00    +0.000 NA
ATOM     15  C   UNL     1       7.152   4.764  13.957  0.00  0.00    +0.000 C 
ATOM     16  N   UNL     1       7.748   5.321  12.886  0.00  0.00    +0.000 N 
ATOM     17  N   UNL     1       7.404   5.458  15.088  0.00  0.00    +0.000 N 
ATOM     18  H   UNL     1       6.388   3.376  12.931  0.00  0.00    +0.000 HD
ATOM     19  H   UNL     1       7.828   4.713  12.083  0.00  0.00    +0.000 HD
ATOM     20  H   UNL     1       8.640   5.747  13.106  0.00  0.00    +0.000 HD
ATOM     21  H   UNL     1       7.512   6.456  14.950  0.00  0.00    +0.000 HD
ENDBRANCH  13  17
ENDBRANCH   1  13
TORSDOF 4
ENDMDL
MODEL 7
REMARK VINA RESULT:      -6.6      2.572      5.172
REMARK  Name = 
REMARK  4 active torsions:
REMARK  status: ('A' for Active; 'I' for Inactive)
REMARK    1  A    between atoms: N_4  and  C_5
REMARK    2  A    between atoms: C_5  and  C_6
REMARK    3  A    between atoms: C_6  and  O_7
REMARK    4  A    between atoms: C_6  and  C_8
REMARK                            x       y       z     vdW  Elec       q    Type
REMARK                         _______ _______ _______ _____ _____    ______ ____
ROOT
ATOM      1  C   UNL     1       3.075   5.258  18.761  0.00  0.00    +0.000 C 
ENDROOT
BRANCH   1   2
ATOM      2  C   UNL     1       4.276   5.284  17.836  0.00  0.00    +0.000 A 
ATOM      3  C   UNL     1       5.399   6.070  18.198  0.00  0.00    +0.000 A 
ATOM      4  C   UNL     1       6.514   6.176  17.361  0.00  0.00    +0.000 A 
ATOM      5  C   UNL     1       6.481   5.495  16.165  0.00  0.00    +0.000 A 
ATOM      6  C   UNL     1       5.402   4.728  15.801  0.00  0.00    +0.000 A 
ATOM      7  C   UNL     1       4.290   4.599  16.609  0.00  0.00    +0.000 A 
ATOM      8  O   UNL     1       5.568   4.146  14.581  0.00  0.00    +0.000 OA
ATOM      9  C   UNL     1       6.865   4.660  14.212  0.00  0.00    +0.000 C 
ATOM     10  O   UNL     1       7.463   5.496  15.224  0.00  0.00    +0.000 OA
ENDBRANCH   1   2
BRANCH   1  11
ATOM     11  O   UNL     1       3.364   5.944  19.989  0.00  0.00    +0.000 OA
ATOM     12  H   UNL     1       3.887   5.341  20.544  0.00  0.00    +0.000 HD
ENDBRANCH   1  11
BRANCH   1  13
ATOM     13  C   UNL     1       2.599   3.817  19.044  0.00  0.00    +0.000 C 
BRANCH  13  17
ATOM     14  N   UNL     1       3.965   1.421  18.386  0.00  0.00    +0.000 NA
ATOM     15  C   UNL     1       4.218   2.040  19.478  0.00  0.00    +0.000 C 
ATOM     16  N   UNL     1       5.179   1.659  20.343  0.00  0.00    +0.000 N 
ATOM     17  N   UNL     1       3.557   3.134  19.915  0.00  0.00    +0.000 N 
ATOM     18  H   UNL     1       4.614   0.642  18.273  0.00  0.00    +0.000 HD
ATOM     19  H   UNL     1       5.512   0.713  20.214  0.00  0.00    +0.000 HD
ATOM     20  H   UNL     1       4.930   1.826  21.310  0.00  0.00    +0.000 HD
ATOM     21  H   UNL     1       4.125   3.775  20.457  0.00  0.00    +0.000 HD
ENDBRANCH  13  17
ENDBRANCH   1  13
TORSDOF 4
ENDMDL
MODEL 8
REMARK VINA RESULT:      -6.6      1.653      1.822
REMARK  Name = 
REMARK  4 active torsions:
REMARK  status: ('A' for Active; 'I' for Inactive)
REMARK    1  A    between atoms: N_4  and  C_5
REMARK    2  A    between atoms: C_5  and  C_6
REMARK    3  A    between atoms: C_6  and  O_7
REMARK    4  A    between atoms: C_6  and  C_8
REMARK                            x       y       z     vdW  Elec       q    Type
REMARK                         _______ _______ _______ _____ _____    ______ ____
ROOT
ATOM      1  C   UNL     1       5.733   4.986  16.127  0.00  0.00    +0.000 C 
ENDROOT
BRANCH   1   2
ATOM      2  C   UNL     1       4.459   4.734  16.908  0.00  0.00    +0.000 A 
ATOM      3  C   UNL     1       3.870   5.809  17.621  0.00  0.00    +0.000 A 
ATOM      4  C   UNL     1       2.726   5.625  18.401  0.00  0.00    +0.000 A 
ATOM      5  C   UNL     1       2.190   4.358  18.462  0.00  0.00    +0.000 A 
ATOM      6  C   UNL     1       2.747   3.306  17.776  0.00  0.00    +0.000 A 
ATOM      7  C   UNL     1       3.873   3.458  16.991  0.00  0.00    +0.000 A 
ATOM      8  O   UNL     1       2.070   2.142  17.975  0.00  0.00    +0.000 OA
ATOM      9  C   UNL     1       1.041   2.581  18.887  0.00  0.00    +0.000 C 
ATOM     10  O   UNL     1       1.095   3.993  19.180  0.00  0.00    +0.000 OA
ENDBRANCH   1   2
BRANCH   1  11
ATOM     11  O   UNL     1       5.719   4.269  14.884  0.00  0.00    +0.000 OA
ATOM     12  H   UNL     1       4.926   3.706  14.881  0.00  0.00    +0.000 HD
ENDBRANCH   1  11
BRANCH   1  13
ATOM     13  C   UNL     1       6.991   4.625  16.947  0.00  0.00    +0.000 C 
BRANCH  13  17
ATOM     14  N   UNL     1       7.076   5.405  19.672  0.00  0.00    +0.000 NA
ATOM     15  C   UNL     1       7.687   6.087  18.777  0.00  0.00    +0.000 C 
ATOM     16  N   UNL     1       8.461   7.154  19.055  0.00  0.00    +0.000 N 
ATOM     17  N   UNL     1       7.629   5.843  17.450  0.00  0.00    +0.000 N 
ATOM     18  H   UNL     1       7.296   5.774  20.597  0.00  0.00    +0.000 HD
ATOM     19  H   UNL     1       8.324   7.546  19.977  0.00  0.00    +0.000 HD
ATOM     20  H   UNL     1       8.411   7.874  18.345  0.00  0.00    +0.000 HD
ATOM     21  H   UNL     1       8.473   6.083  16.944  0.00  0.00    +0.000 HD
ENDBRANCH  13  17
ENDBRANCH   1  13
TORSDOF 4
ENDMDL
MODEL 9
REMARK VINA RESULT:      -6.6      2.989      5.716
REMARK  Name = 
REMARK  4 active torsions:
REMARK  status: ('A' for Active; 'I' for Inactive)
REMARK    1  A    between atoms: N_4  and  C_5
REMARK    2  A    between atoms: C_5  and  C_6
REMARK    3  A    between atoms: C_6  and  O_7
REMARK    4  A    between atoms: C_6  and  C_8
REMARK                            x       y       z     vdW  Elec       q    Type
REMARK                         _______ _______ _______ _____ _____    ______ ____
ROOT
ATOM      1  C   UNL     1       4.823   3.970  19.530  0.00  0.00    +0.000 C 
ENDROOT
BRANCH   1   2
ATOM      2  C   UNL     1       5.601   4.361  18.289  0.00  0.00    +0.000 A 
ATOM      3  C   UNL     1       6.642   5.317  18.408  0.00  0.00    +0.000 A 
ATOM      4  C   UNL     1       7.358   5.757  17.291  0.00  0.00    +0.000 A 
ATOM      5  C   UNL     1       7.013   5.235  16.065  0.00  0.00    +0.000 A 
ATOM      6  C   UNL     1       6.010   4.306  15.933  0.00  0.00    +0.000 A 
ATOM      7  C   UNL     1       5.289   3.848  17.018  0.00  0.00    +0.000 A 
ATOM      8  O   UNL     1       5.825   3.924  14.639  0.00  0.00    +0.000 OA
ATOM      9  C   UNL     1       6.811   4.742  13.973  0.00  0.00    +0.000 C 
ATOM     10  O   UNL     1       7.587   5.556  14.876  0.00  0.00    +0.000 OA
ENDBRANCH   1   2
BRANCH   1  11
ATOM     11  O   UNL     1       4.906   2.554  19.757  0.00  0.00    +0.000 OA
ATOM     12  H   UNL     1       5.125   2.422  20.695  0.00  0.00    +0.000 HD
ENDBRANCH   1  11
BRANCH   1  13
ATOM     13  C   UNL     1       3.349   4.421  19.450  0.00  0.00    +0.000 C 
BRANCH  13  17
ATOM     14  N   UNL     1       1.457   3.772  17.440  0.00  0.00    +0.000 NA
ATOM     15  C   UNL     1       1.653   2.987  18.432  0.00  0.00    +0.000 C 
ATOM     16  N   UNL     1       1.053   1.788  18.560  0.00  0.00    +0.000 N 
ATOM     17  N   UNL     1       2.465   3.255  19.478  0.00  0.00    +0.000 N 
ATOM     18  H   UNL     1       0.819   3.335  16.775  0.00  0.00    +0.000 HD
ATOM     19  H   UNL     1       0.243   1.656  17.969  0.00  0.00    +0.000 HD
ATOM     20  H   UNL     1       0.839   1.553  19.522  0.00  0.00    +0.000 HD
ATOM     21  H   UNL     1       2.904   2.437  19.885  0.00  0.00    +0.000 HD
ENDBRANCH  13  17
ENDBRANCH   1  13
TORSDOF 4
ENDMDL
