MODEL 1
REMARK VINA RESULT:      -7.7      0.000      0.000
REMARK  Name = 
REMARK  3 active torsions:
REMARK  status: ('A' for Active; 'I' for Inactive)
REMARK    1  A    between atoms: N_1  and  C_2
REMARK    2  A    between atoms: C_7  and  C_8
REMARK    3  A    between atoms: N_10  and  C_11
REMARK                            x       y       z     vdW  Elec       q    Type
REMARK                         _______ _______ _______ _____ _____    ______ ____
ROOT
ATOM      1  C   UNL     1       5.328   4.036  17.058  0.00  0.00    +0.000 C 
ATOM      2  O   UNL     1       5.960   4.023  18.111  0.00  0.00    +0.000 OA
ATOM      3  N   UNL     1       3.959   3.853  16.929  0.00  0.00    +0.000 N 
ATOM      4  H   UNL     1       3.582   3.848  15.979  0.00  0.00    +0.000 HD
ENDROOT
BRANCH   3   5
ATOM      5  C   UNL     1       3.020   3.531  17.944  0.00  0.00    +0.000 A 
ATOM      6  C   UNL     1       2.484   2.244  18.085  0.00  0.00    +0.000 A 
ATOM      7  C   UNL     1       1.522   1.977  19.054  0.00  0.00    +0.000 A 
ATOM      8  C   UNL     1       1.081   2.997  19.886  0.00  0.00    +0.000 A 
ATOM      9  C   UNL     1       1.619   4.286  19.771  0.00  0.00    +0.000 A 
ATOM     10  C   UNL     1       1.169   5.321  20.600  0.00  0.00    +0.000 A 
ATOM     11  C   UNL     1       1.706   6.592  20.477  0.00  0.00    +0.000 A 
ATOM     12  C   UNL     1       2.690   6.783  19.526  0.00  0.00    +0.000 A 
ATOM     13  N   UNL     1       3.147   5.814  18.697  0.00  0.00    +0.000 NA
ATOM     14  C   UNL     1       2.616   4.570  18.806  0.00  0.00    +0.000 A 
ENDBRANCH   3   5
BRANCH   1  20
ATOM     15  C   UNL     1       7.015   5.284  15.621  0.00  0.00    +0.000 A 
ATOM     16  N   UNL     1       7.607   5.512  14.425  0.00  0.00    +0.000 NA
ATOM     17  C   UNL     1       7.204   4.738  13.394  0.00  0.00    +0.000 A 
ATOM     18  C   UNL     1       6.244   3.750  13.533  0.00  0.00    +0.000 A 
ATOM     19  N   UNL     1       5.638   3.489  14.712  0.00  0.00    +0.000 NA
ATOM     20  C   UNL     1       6.040   4.277  15.757  0.00  0.00    +0.000 A 
BRANCH  15  21
ATOM     21  N   UNL     1       7.534   6.044  16.663  0.00  0.00    +0.000 N 
ATOM     22  H   UNL     1       8.544   5.951  16.680  0.00  0.00    +0.000 HD
ATOM     23  H   UNL     1       7.192   7.003  16.653  0.00  0.00    +0.000 HD
ENDBRANCH  15  21
ENDBRANCH   1  20
TORSDOF 3
ENDMDL
MODEL 2
REMARK VINA RESULT:      -7.7      0.857      2.460
REMARK  Name = 
REMARK  3 active torsions:
REMARK  status: ('A' for Active; 'I' for Inactive)
REMARK    1  A    between atoms: N_1  and  C_2
REMARK    2  A    between atoms: C_7  and  C_8
REMARK    3  A    between atoms: N_10  and  C_11
REMARK                            x       y       z     vdW  Elec       q    Type
REMARK                         _______ _______ _______ _____ _____    ______ ____
ROOT
ATOM      1  C   UNL     1       5.327   4.915  17.495  0.00  0.00    +0.000 C 
ATOM      2  O   UNL     1       5.934   4.591  18.512  0.00  0.00    +0.000 OA
ATOM      3  N   UNL     1       4.039   5.427  17.447  0.00  0.00    +0.000 N 
ATOM      4  H   UNL     1       3.651   5.611  16.519  0.00  0.00    +0.000 HD
ENDROOT
BRANCH   3   5
ATOM      5  C   UNL     1       3.126   5.604  18.520  0.00  0.00    +0.000 A 
ATOM      6  C   UNL     1       2.881   6.859  19.094  0.00  0.00    +0.000 A 
ATOM      7  C   UNL     1       2.023   6.987  20.181  0.00  0.00    +0.000 A 
ATOM      8  C   UNL     1       1.410   5.860  20.712  0.00  0.00    +0.000 A 
ATOM      9  C   UNL     1       1.630   4.599  20.140  0.00  0.00    +0.000 A 
ATOM     10  C   UNL     1       1.023   3.458  20.679  0.00  0.00    +0.000 A 
ATOM     11  C   UNL     1       1.249   2.217  20.107  0.00  0.00    +0.000 A 
ATOM     12  C   UNL     1       2.075   2.161  19.000  0.00  0.00    +0.000 A 
ATOM     13  N   UNL     1       2.690   3.237  18.454  0.00  0.00    +0.000 NA
ATOM     14  C   UNL     1       2.481   4.453  19.018  0.00  0.00    +0.000 A 
ENDBRANCH   3   5
BRANCH   1  20
ATOM     15  C   UNL     1       7.042   5.622  15.755  0.00  0.00    +0.000 A 
ATOM     16  N   UNL     1       7.585   5.511  14.520  0.00  0.00    +0.000 NA
ATOM     17  C   UNL     1       7.054   4.571  13.708  0.00  0.00    +0.000 A 
ATOM     18  C   UNL     1       6.014   3.747  14.103  0.00  0.00    +0.000 A 
ATOM     19  N   UNL     1       5.452   3.823  15.329  0.00  0.00    +0.000 NA
ATOM     20  C   UNL     1       5.984   4.781  16.151  0.00  0.00    +0.000 A 
BRANCH  15  21
ATOM     21  N   UNL     1       7.688   6.539  16.577  0.00  0.00    +0.000 N 
ATOM     22  H   UNL     1       6.998   7.085  17.083  0.00  0.00    +0.000 HD
ATOM     23  H   UNL     1       8.403   6.106  17.158  0.00  0.00    +0.000 HD
ENDBRANCH  15  21
ENDBRANCH   1  20
TORSDOF 3
ENDMDL
MODEL 3
REMARK VINA RESULT:      -7.3      3.398      6.934
REMARK  Name = 
REMARK  3 active torsions:
REMARK  status: ('A' for Active; 'I' for Inactive)
REMARK    1  A    between atoms: N_1  and  C_2
REMARK    2  A    between atoms: C_7  and  C_8
REMARK    3  A    between atoms: N_10  and  C_11
REMARK                            x       y       z     vdW  Elec       q    Type
REMARK                         _______ _______ _______ _____ _____    ______ ____
ROOT
ATOM      1  C   UNL     1       1.950   8.427  18.501  0.00  0.00    +0.000 C 
ATOM      2  O   UNL     1       2.119   8.908  17.384  0.00  0.00    +0.000 OA
ATOM      3  N   UNL     1       2.444   7.210  18.945  0.00  0.00    +0.000 N 
ATOM      4  H   UNL     1       2.182   6.925  19.892  0.00  0.00    +0.000 HD
ENDROOT
BRANCH   3   5
ATOM      5  C   UNL     1       3.160   6.233  18.205  0.00  0.00    +0.000 A 
ATOM      6  C   UNL     1       4.255   6.563  17.396  0.00  0.00    +0.000 A 
ATOM      7  C   UNL     1       4.898   5.588  16.639  0.00  0.00    +0.000 A 
ATOM      8  C   UNL     1       4.446   4.276  16.677  0.00  0.00    +0.000 A 
ATOM      9  C   UNL     1       3.362   3.925  17.495  0.00  0.00    +0.000 A 
ATOM     10  C   UNL     1       2.895   2.605  17.527  0.00  0.00    +0.000 A 
ATOM     11  C   UNL     1       1.823   2.270  18.337  0.00  0.00    +0.000 A 
ATOM     12  C   UNL     1       1.256   3.272  19.100  0.00  0.00    +0.000 A 
ATOM     13  N   UNL     1       1.669   4.562  19.091  0.00  0.00    +0.000 NA
ATOM     14  C   UNL     1       2.711   4.899  18.290  0.00  0.00    +0.000 A 
ENDBRANCH   3   5
BRANCH   1  20
ATOM     15  C   UNL     1       0.249  10.196  19.170  0.00  0.00    +0.000 A 
ATOM     16  N   UNL     1      -0.420  10.891  20.120  0.00  0.00    +0.000 NA
ATOM     17  C   UNL     1      -0.160  10.562  21.405  0.00  0.00    +0.000 A 
ATOM     18  C   UNL     1       0.731   9.562  21.752  0.00  0.00    +0.000 A 
ATOM     19  N   UNL     1       1.410   8.842  20.833  0.00  0.00    +0.000 NA
ATOM     20  C   UNL     1       1.155   9.179  19.530  0.00  0.00    +0.000 A 
BRANCH  15  21
ATOM     21  N   UNL     1      -0.126  10.513  17.869  0.00  0.00    +0.000 N 
ATOM     22  H   UNL     1      -0.602   9.721  17.451  0.00  0.00    +0.000 HD
ATOM     23  H   UNL     1      -0.630  11.396  17.813  0.00  0.00    +0.000 HD
ENDBRANCH  15  21
ENDBRANCH   1  20
TORSDOF 3
ENDMDL
MODEL 4
REMARK VINA RESULT:      -6.9      1.571      2.233
REMARK  Name = 
REMARK  3 active torsions:
REMARK  status: ('A' for Active; 'I' for Inactive)
REMARK    1  A    between atoms: N_1  and  C_2
REMARK    2  A    between atoms: C_7  and  C_8
REMARK    3  A    between atoms: N_10  and  C_11
REMARK                            x       y       z     vdW  Elec       q    Type
REMARK                         _______ _______ _______ _____ _____    ______ ____
ROOT
ATOM      1  C   UNL     1       5.392   4.893  17.739  0.00  0.00    +0.000 C 
ATOM      2  O   UNL     1       5.962   4.420  18.717  0.00  0.00    +0.000 OA
ATOM      3  N   UNL     1       4.188   5.582  17.754  0.00  0.00    +0.000 N 
ATOM      4  H   UNL     1       3.816   5.881  16.850  0.00  0.00    +0.000 HD
ENDROOT
BRANCH   3   5
ATOM      5  C   UNL     1       3.323   5.810  18.858  0.00  0.00    +0.000 A 
ATOM      6  C   UNL     1       3.093   4.837  19.839  0.00  0.00    +0.000 A 
ATOM      7  C   UNL     1       2.196   5.073  20.876  0.00  0.00    +0.000 A 
ATOM      8  C   UNL     1       1.513   6.281  20.936  0.00  0.00    +0.000 A 
ATOM      9  C   UNL     1       1.745   7.272  19.971  0.00  0.00    +0.000 A 
ATOM     10  C   UNL     1       1.051   8.487  20.021  0.00  0.00    +0.000 A 
ATOM     11  C   UNL     1       1.286   9.459  19.063  0.00  0.00    +0.000 A 
ATOM     12  C   UNL     1       2.222   9.183  18.084  0.00  0.00    +0.000 A 
ATOM     13  N   UNL     1       2.908   8.018  17.993  0.00  0.00    +0.000 NA
ATOM     14  C   UNL     1       2.672   7.058  18.923  0.00  0.00    +0.000 A 
ENDBRANCH   3   5
BRANCH   1  20
ATOM     15  C   UNL     1       7.022   5.629  15.930  0.00  0.00    +0.000 A 
ATOM     16  N   UNL     1       7.524   5.519  14.678  0.00  0.00    +0.000 NA
ATOM     17  C   UNL     1       6.993   4.552  13.897  0.00  0.00    +0.000 A 
ATOM     18  C   UNL     1       5.994   3.702  14.338  0.00  0.00    +0.000 A 
ATOM     19  N   UNL     1       5.474   3.777  15.583  0.00  0.00    +0.000 NA
ATOM     20  C   UNL     1       6.005   4.761  16.374  0.00  0.00    +0.000 A 
BRANCH  15  21
ATOM     21  N   UNL     1       7.668   6.576  16.717  0.00  0.00    +0.000 N 
ATOM     22  H   UNL     1       8.179   7.219  16.121  0.00  0.00    +0.000 HD
ATOM     23  H   UNL     1       7.042   7.018  17.387  0.00  0.00    +0.000 HD
ENDBRANCH  15  21
ENDBRANCH   1  20
TORSDOF 3
ENDMDL
MODEL 5
REMARK VINA RESULT:      -6.7      3.161      6.675
REMARK  Name = 
REMARK  3 active torsions:
REMARK  status: ('A' for Active; 'I' for Inactive)
REMARK    1  A    between atoms: N_1  and  C_2
REMARK    2  A    between atoms: C_7  and  C_8
REMARK    3  A    between atoms: N_10  and  C_11
REMARK                            x       y       z     vdW  Elec       q    Type
REMARK                         _______ _______ _______ _____ _____    ______ ____
ROOT
ATOM      1  C   UNL     1       1.839   7.459  19.740  0.00  0.00    +0.000 C 
ATOM      2  O   UNL     1       1.732   6.662  20.667  0.00  0.00    +0.000 OA
ATOM      3  N   UNL     1       2.277   7.161  18.458  0.00  0.00    +0.000 N 
ATOM      4  H   UNL     1       2.354   7.942  17.804  0.00  0.00    +0.000 HD
ENDROOT
BRANCH   3   5
ATOM      5  C   UNL     1       2.771   5.922  17.968  0.00  0.00    +0.000 A 
ATOM      6  C   UNL     1       1.985   4.763  17.942  0.00  0.00    +0.000 A 
ATOM      7  C   UNL     1       2.517   3.553  17.508  0.00  0.00    +0.000 A 
ATOM      8  C   UNL     1       3.845   3.490  17.106  0.00  0.00    +0.000 A 
ATOM      9  C   UNL     1       4.641   4.644  17.109  0.00  0.00    +0.000 A 
ATOM     10  C   UNL     1       5.983   4.583  16.715  0.00  0.00    +0.000 A 
ATOM     11  C   UNL     1       6.761   5.728  16.724  0.00  0.00    +0.000 A 
ATOM     12  C   UNL     1       6.162   6.909  17.121  0.00  0.00    +0.000 A 
ATOM     13  N   UNL     1       4.871   7.010  17.520  0.00  0.00    +0.000 NA
ATOM     14  C   UNL     1       4.108   5.888  17.524  0.00  0.00    +0.000 A 
ENDBRANCH   3   5
BRANCH   1  20
ATOM     15  C   UNL     1       1.349   9.464  21.227  0.00  0.00    +0.000 A 
ATOM     16  N   UNL     1       0.967  10.754  21.381  0.00  0.00    +0.000 NA
ATOM     17  C   UNL     1       0.705  11.446  20.251  0.00  0.00    +0.000 A 
ATOM     18  C   UNL     1       0.824  10.887  18.990  0.00  0.00    +0.000 A 
ATOM     19  N   UNL     1       1.210   9.607  18.796  0.00  0.00    +0.000 NA
ATOM     20  C   UNL     1       1.469   8.901  19.941  0.00  0.00    +0.000 A 
BRANCH  15  21
ATOM     21  N   UNL     1       1.694   8.830  22.415  0.00  0.00    +0.000 N 
ATOM     22  H   UNL     1       0.851   8.582  22.923  0.00  0.00    +0.000 HD
ATOM     23  H   UNL     1       2.350   8.065  22.272  0.00  0.00    +0.000 HD
ENDBRANCH  15  21
ENDBRANCH   1  20
TORSDOF 3
ENDMDL
MODEL 6
REMARK VINA RESULT:      -6.6      4.213      7.610
REMARK  Name = 
REMARK  3 active torsions:
REMARK  status: ('A' for Active; 'I' for Inactive)
REMARK    1  A    between atoms: N_1  and  C_2
REMARK    2  A    between atoms: C_7  and  C_8
REMARK    3  A    between atoms: N_10  and  C_11
REMARK                            x       y       z     vdW  Elec       q    Type
REMARK                         _______ _______ _______ _____ _____    ______ ____
ROOT
ATOM      1  C   UNL     1       1.388   8.668  19.944  0.00  0.00    +0.000 C 
ATOM      2  O   UNL     1       1.583   9.217  18.863  0.00  0.00    +0.000 OA
ATOM      3  N   UNL     1       1.871   7.425  20.323  0.00  0.00    +0.000 N 
ATOM      4  H   UNL     1       1.587   7.082  21.243  0.00  0.00    +0.000 HD
ENDROOT
BRANCH   3   5
ATOM      5  C   UNL     1       2.603   6.494  19.540  0.00  0.00    +0.000 A 
ATOM      6  C   UNL     1       3.206   6.850  18.326  0.00  0.00    +0.000 A 
ATOM      7  C   UNL     1       3.868   5.899  17.556  0.00  0.00    +0.000 A 
ATOM      8  C   UNL     1       3.924   4.580  17.988  0.00  0.00    +0.000 A 
ATOM      9  C   UNL     1       3.341   4.210  19.208  0.00  0.00    +0.000 A 
ATOM     10  C   UNL     1       3.386   2.880  19.642  0.00  0.00    +0.000 A 
ATOM     11  C   UNL     1       2.806   2.525  20.849  0.00  0.00    +0.000 A 
ATOM     12  C   UNL     1       2.203   3.523  21.590  0.00  0.00    +0.000 A 
ATOM     13  N   UNL     1       2.128   4.819  21.203  0.00  0.00    +0.000 NA
ATOM     14  C   UNL     1       2.685   5.170  20.016  0.00  0.00    +0.000 A 
ENDBRANCH   3   5
BRANCH   1  20
ATOM     15  C   UNL     1      -0.300  10.420  20.688  0.00  0.00    +0.000 A 
ATOM     16  N   UNL     1      -0.990  11.055  21.665  0.00  0.00    +0.000 NA
ATOM     17  C   UNL     1      -0.788  10.619  22.928  0.00  0.00    +0.000 A 
ATOM     18  C   UNL     1       0.068   9.574  23.228  0.00  0.00    +0.000 A 
ATOM     19  N   UNL     1       0.767   8.912  22.280  0.00  0.00    +0.000 NA
ATOM     20  C   UNL     1       0.570   9.357  20.999  0.00  0.00    +0.000 A 
BRANCH  15  21
ATOM     21  N   UNL     1      -0.617  10.847  19.403  0.00  0.00    +0.000 N 
ATOM     22  H   UNL     1      -0.368  11.825  19.301  0.00  0.00    +0.000 HD
ATOM     23  H   UNL     1      -0.242  10.231  18.684  0.00  0.00    +0.000 HD
ENDBRANCH  15  21
ENDBRANCH   1  20
TORSDOF 3
ENDMDL
MODEL 7
REMARK VINA RESULT:      -6.5      3.332      5.651
REMARK  Name = 
REMARK  3 active torsions:
REMARK  status: ('A' for Active; 'I' for Inactive)
REMARK    1  A    between atoms: N_1  and  C_2
REMARK    2  A    between atoms: C_7  and  C_8
REMARK    3  A    between atoms: N_10  and  C_11
REMARK                            x       y       z     vdW  Elec       q    Type
REMARK                         _______ _______ _______ _____ _____    ______ ____
ROOT
ATOM      1  C   UNL     1       3.368   6.009  18.879  0.00  0.00    +0.000 C 
ATOM      2  O   UNL     1       4.013   6.358  17.895  0.00  0.00    +0.000 OA
ATOM      3  N   UNL     1       2.378   6.750  19.507  0.00  0.00    +0.000 N 
ATOM      4  H   UNL     1       1.958   6.342  20.345  0.00  0.00    +0.000 HD
ENDROOT
BRANCH   3   5
ATOM      5  C   UNL     1       1.961   8.077  19.218  0.00  0.00    +0.000 A 
ATOM      6  C   UNL     1       2.247   8.700  17.996  0.00  0.00    +0.000 A 
ATOM      7  C   UNL     1       1.873  10.020  17.767  0.00  0.00    +0.000 A 
ATOM      8  C   UNL     1       1.219  10.733  18.763  0.00  0.00    +0.000 A 
ATOM      9  C   UNL     1       0.909  10.119  19.985  0.00  0.00    +0.000 A 
ATOM     10  C   UNL     1       0.260  10.838  20.996  0.00  0.00    +0.000 A 
ATOM     11  C   UNL     1      -0.040  10.223  22.200  0.00  0.00    +0.000 A 
ATOM     12  C   UNL     1       0.317   8.896  22.350  0.00  0.00    +0.000 A 
ATOM     13  N   UNL     1       0.955   8.168  21.403  0.00  0.00    +0.000 NA
ATOM     14  C   UNL     1       1.261   8.770  20.225  0.00  0.00    +0.000 A 
ENDBRANCH   3   5
BRANCH   1  20
ATOM     15  C   UNL     1       4.826   3.970  19.311  0.00  0.00    +0.000 A 
ATOM     16  N   UNL     1       5.005   2.738  19.844  0.00  0.00    +0.000 NA
ATOM     17  C   UNL     1       3.970   2.227  20.546  0.00  0.00    +0.000 A 
ATOM     18  C   UNL     1       2.783   2.915  20.730  0.00  0.00    +0.000 A 
ATOM     19  N   UNL     1       2.570   4.147  20.220  0.00  0.00    +0.000 NA
ATOM     20  C   UNL     1       3.616   4.665  19.502  0.00  0.00    +0.000 A 
BRANCH  15  21
ATOM     21  N   UNL     1       5.954   4.482  18.680  0.00  0.00    +0.000 N 
ATOM     22  H   UNL     1       6.524   3.718  18.332  0.00  0.00    +0.000 HD
ATOM     23  H   UNL     1       5.725   5.195  17.990  0.00  0.00    +0.000 HD
ENDBRANCH  15  21
ENDBRANCH   1  20
TORSDOF 3
ENDMDL
MODEL 8
REMARK VINA RESULT:      -6.5      3.117      6.700
REMARK  Name = 
REMARK  3 active torsions:
REMARK  status: ('A' for Active; 'I' for Inactive)
REMARK    1  A    between atoms: N_1  and  C_2
REMARK    2  A    between atoms: C_7  and  C_8
REMARK    3  A    between atoms: N_10  and  C_11
REMARK                            x       y       z     vdW  Elec       q    Type
REMARK                         _______ _______ _______ _____ _____    ______ ____
ROOT
ATOM      1  C   UNL     1       2.024   8.064  18.414  0.00  0.00    +0.000 C 
ATOM      2  O   UNL     1       2.060   8.445  17.247  0.00  0.00    +0.000 OA
ATOM      3  N   UNL     1       2.446   6.827  18.878  0.00  0.00    +0.000 N 
ATOM      4  H   UNL     1       2.314   6.639  19.874  0.00  0.00    +0.000 HD
ENDROOT
BRANCH   3   5
ATOM      5  C   UNL     1       2.916   5.722  18.121  0.00  0.00    +0.000 A 
ATOM      6  C   UNL     1       2.138   4.576  17.909  0.00  0.00    +0.000 A 
ATOM      7  C   UNL     1       2.651   3.488  17.210  0.00  0.00    +0.000 A 
ATOM      8  C   UNL     1       3.951   3.532  16.725  0.00  0.00    +0.000 A 
ATOM      9  C   UNL     1       4.738   4.677  16.914  0.00  0.00    +0.000 A 
ATOM     10  C   UNL     1       6.054   4.721  16.437  0.00  0.00    +0.000 A 
ATOM     11  C   UNL     1       6.823   5.856  16.629  0.00  0.00    +0.000 A 
ATOM     12  C   UNL     1       6.242   6.921  17.291  0.00  0.00    +0.000 A 
ATOM     13  N   UNL     1       4.978   6.917  17.777  0.00  0.00    +0.000 NA
ATOM     14  C   UNL     1       4.224   5.802  17.601  0.00  0.00    +0.000 A 
ENDBRANCH   3   5
BRANCH   1  20
ATOM     15  C   UNL     1       1.171  10.320  19.224  0.00  0.00    +0.000 A 
ATOM     16  N   UNL     1       0.746  11.133  20.219  0.00  0.00    +0.000 NA
ATOM     17  C   UNL     1       0.667  10.587  21.453  0.00  0.00    +0.000 A 
ATOM     18  C   UNL     1       0.990   9.265  21.705  0.00  0.00    +0.000 A 
ATOM     19  N   UNL     1       1.411   8.423  20.737  0.00  0.00    +0.000 NA
ATOM     20  C   UNL     1       1.499   8.975  19.487  0.00  0.00    +0.000 A 
BRANCH  15  21
ATOM     21  N   UNL     1       1.144  10.907  17.964  0.00  0.00    +0.000 N 
ATOM     22  H   UNL     1       0.863  10.217  17.275  0.00  0.00    +0.000 HD
ATOM     23  H   UNL     1       0.608  11.772  17.949  0.00  0.00    +0.000 HD
ENDBRANCH  15  21
ENDBRANCH   1  20
TORSDOF 3
ENDMDL
MODEL 9
REMARK VINA RESULT:      -6.5      3.356      6.768
REMARK  Name = 
REMARK  3 active torsions:
REMARK  status: ('A' for Active; 'I' for Inactive)
REMARK    1  A    between atoms: N_1  and  C_2
REMARK    2  A    between atoms: C_7  and  C_8
REMARK    3  A    between atoms: N_10  and  C_11
REMARK                            x       y       z     vdW  Elec       q    Type
REMARK                         _______ _______ _______ _____ _____    ______ ____
ROOT
ATOM      1  C   UNL     1       2.068   8.476  18.287  0.00  0.00    +0.000 C 
ATOM      2  O   UNL     1       2.376   8.942  17.194  0.00  0.00    +0.000 OA
ATOM      3  N   UNL     1       2.438   7.231  18.774  0.00  0.00    +0.000 N 
ATOM      4  H   UNL     1       2.068   6.965  19.689  0.00  0.00    +0.000 HD
ENDROOT
BRANCH   3   5
ATOM      5  C   UNL     1       3.161   6.209  18.103  0.00  0.00    +0.000 A 
ATOM      6  C   UNL     1       4.278   6.485  17.304  0.00  0.00    +0.000 A 
ATOM      7  C   UNL     1       4.928   5.465  16.616  0.00  0.00    +0.000 A 
ATOM      8  C   UNL     1       4.460   4.162  16.711  0.00  0.00    +0.000 A 
ATOM      9  C   UNL     1       3.354   3.865  17.520  0.00  0.00    +0.000 A 
ATOM     10  C   UNL     1       2.871   2.554  17.611  0.00  0.00    +0.000 A 
ATOM     11  C   UNL     1       1.776   2.272  18.411  0.00  0.00    +0.000 A 
ATOM     12  C   UNL     1       1.202   3.319  19.106  0.00  0.00    +0.000 A 
ATOM     13  N   UNL     1       1.630   4.603  19.039  0.00  0.00    +0.000 NA
ATOM     14  C   UNL     1       2.695   4.886  18.247  0.00  0.00    +0.000 A 
ENDBRANCH   3   5
BRANCH   1  20
ATOM     15  C   UNL     1       1.068   8.908  20.586  0.00  0.00    +0.000 A 
ATOM     16  N   UNL     1       0.264   9.622  21.408  0.00  0.00    +0.000 NA
ATOM     17  C   UNL     1      -0.370  10.682  20.862  0.00  0.00    +0.000 A 
ATOM     18  C   UNL     1      -0.213  11.043  19.535  0.00  0.00    +0.000 A 
ATOM     19  N   UNL     1       0.586  10.359  18.687  0.00  0.00    +0.000 NA
ATOM     20  C   UNL     1       1.225   9.279  19.236  0.00  0.00    +0.000 A 
BRANCH  15  21
ATOM     21  N   UNL     1       1.765   7.887  21.223  0.00  0.00    +0.000 N 
ATOM     22  H   UNL     1       1.884   7.108  20.584  0.00  0.00    +0.000 HD
ATOM     23  H   UNL     1       2.622   8.216  21.663  0.00  0.00    +0.000 HD
ENDBRANCH  15  21
ENDBRANCH   1  20
TORSDOF 3
ENDMDL
