MODEL 1
REMARK VINA RESULT:      -7.4      0.000      0.000
REMARK  Name = 
REMARK  9 active torsions:
REMARK  status: ('A' for Active; 'I' for Inactive)
REMARK    1  A    between atoms: C_1  and  O_2
REMARK    2  A    between atoms: O_2  and  C_3
REMARK    3  A    between atoms: C_8  and  O_9
REMARK    4  A    between atoms: O_9  and  C_10
REMARK    5  A    between atoms: C_10  and  C_11
REMARK    6  A    between atoms: C_11  and  N_12
REMARK    7  A    between atoms: N_12  and  C_13
REMARK    8  A    between atoms: C_13  and  C_14
REMARK    9  A    between atoms: C_19  and  C_20
REMARK                            x       y       z     vdW  Elec       q    Type
REMARK                         _______ _______ _______ _____ _____    ______ ____
ROOT
ATOM      1  N   UNL     1       7.433   8.054  17.286  0.00  0.00    +0.000 NA
ATOM      2  H   UNL     1       7.692   8.436  16.375  0.00  0.00    +0.000 HD
ENDROOT
BRANCH   1   3
ATOM      3  C   UNL     1       8.469   8.434  18.267  0.00  0.00    +0.000 C 
BRANCH   3   4
ATOM      4  C   UNL     1       8.650   9.953  18.380  0.00  0.00    +0.000 C 
BRANCH   4   5
ATOM      5  O   UNL     1       9.386  10.336  19.532  0.00  0.00    +0.000 OA
BRANCH   5  11
ATOM      6  C   UNL     1      10.658  12.374  20.283  0.00  0.00    +0.000 A 
ATOM      7  C   UNL     1      11.658  13.291  19.933  0.00  0.00    +0.000 A 
ATOM      8  C   UNL     1      12.192  13.309  18.648  0.00  0.00    +0.000 A 
ATOM      9  C   UNL     1      11.754  12.384  17.708  0.00  0.00    +0.000 A 
ATOM     10  C   UNL     1      10.816  11.415  18.067  0.00  0.00    +0.000 A 
ATOM     11  C   UNL     1      10.268  11.381  19.356  0.00  0.00    +0.000 A 
BRANCH   6  13
ATOM     12  C   UNL     1       8.882  13.108  21.676  0.00  0.00    +0.000 C 
ATOM     13  O   UNL     1      10.119  12.407  21.543  0.00  0.00    +0.000 OA
ENDBRANCH   6  13
ENDBRANCH   5  11
ENDBRANCH   4   5
ENDBRANCH   3   4
ENDBRANCH   1   3
BRANCH   1  14
ATOM     14  C   UNL     1       7.247   6.593  17.143  0.00  0.00    +0.000 C 
BRANCH  14  15
ATOM     15  C   UNL     1       5.762   6.147  17.060  0.00  0.00    +0.000 C 
ATOM     16  O   UNL     1       5.246   6.324  15.720  0.00  0.00    +0.000 OA
ATOM     17  C   UNL     1       5.799   5.394  14.787  0.00  0.00    +0.000 C 
ATOM     18  C   UNL     1       5.769   3.944  15.280  0.00  0.00    +0.000 C 
ATOM     19  O   UNL     1       6.249   3.796  16.623  0.00  0.00    +0.000 OA
ATOM     20  C   UNL     1       5.560   4.685  17.525  0.00  0.00    +0.000 C 
BRANCH  20  21
ATOM     21  C   UNL     1       4.109   4.239  17.728  0.00  0.00    +0.000 A 
ATOM     22  C   UNL     1       3.819   2.868  17.829  0.00  0.00    +0.000 A 
ATOM     23  C   UNL     1       2.499   2.425  17.968  0.00  0.00    +0.000 A 
ATOM     24  C   UNL     1       1.451   3.341  18.010  0.00  0.00    +0.000 A 
ATOM     25  C   UNL     1       1.719   4.702  17.922  0.00  0.00    +0.000 A 
ATOM     26  C   UNL     1       3.036   5.145  17.786  0.00  0.00    +0.000 A 
ENDBRANCH  20  21
ENDBRANCH  14  15
ENDBRANCH   1  14
TORSDOF 8
ENDMDL
MODEL 2
REMARK VINA RESULT:      -7.3      1.076      1.932
REMARK  Name = 
REMARK  9 active torsions:
REMARK  status: ('A' for Active; 'I' for Inactive)
REMARK    1  A    between atoms: C_1  and  O_2
REMARK    2  A    between atoms: O_2  and  C_3
REMARK    3  A    between atoms: C_8  and  O_9
REMARK    4  A    between atoms: O_9  and  C_10
REMARK    5  A    between atoms: C_10  and  C_11
REMARK    6  A    between atoms: C_11  and  N_12
REMARK    7  A    between atoms: N_12  and  C_13
REMARK    8  A    between atoms: C_13  and  C_14
REMARK    9  A    between atoms: C_19  and  C_20
REMARK                            x       y       z     vdW  Elec       q    Type
REMARK                         _______ _______ _______ _____ _____    ______ ____
ROOT
ATOM      1  N   UNL     1       7.490   8.340  17.325  0.00  0.00    +0.000 NA
ATOM      2  H   UNL     1       7.755   8.606  16.376  0.00  0.00    +0.000 HD
ENDROOT
BRANCH   1   3
ATOM      3  C   UNL     1       8.495   8.879  18.263  0.00  0.00    +0.000 C 
BRANCH   3   4
ATOM      4  C   UNL     1       8.666  10.398  18.140  0.00  0.00    +0.000 C 
BRANCH   4   5
ATOM      5  O   UNL     1       9.976  10.835  18.473  0.00  0.00    +0.000 OA
BRANCH   5  11
ATOM      6  C   UNL     1      10.471  13.197  19.185  0.00  0.00    +0.000 A 
ATOM      7  C   UNL     1      10.365  14.122  20.233  0.00  0.00    +0.000 A 
ATOM      8  C   UNL     1       9.954  13.720  21.501  0.00  0.00    +0.000 A 
ATOM      9  C   UNL     1       9.611  12.392  21.724  0.00  0.00    +0.000 A 
ATOM     10  C   UNL     1       9.638  11.477  20.670  0.00  0.00    +0.000 A 
ATOM     11  C   UNL     1      10.047  11.864  19.387  0.00  0.00    +0.000 A 
BRANCH   6  13
ATOM     12  C   UNL     1      12.270  13.270  17.638  0.00  0.00    +0.000 C 
ATOM     13  O   UNL     1      10.921  13.612  17.958  0.00  0.00    +0.000 OA
ENDBRANCH   6  13
ENDBRANCH   5  11
ENDBRANCH   4   5
ENDBRANCH   3   4
ENDBRANCH   1   3
BRANCH   1  14
ATOM     14  C   UNL     1       7.348   6.868  17.376  0.00  0.00    +0.000 C 
BRANCH  14  15
ATOM     15  C   UNL     1       5.894   6.362  17.180  0.00  0.00    +0.000 C 
ATOM     16  O   UNL     1       5.517   6.407  15.784  0.00  0.00    +0.000 OA
ATOM     17  C   UNL     1       6.192   5.424  14.997  0.00  0.00    +0.000 C 
ATOM     18  C   UNL     1       6.151   4.020  15.608  0.00  0.00    +0.000 C 
ATOM     19  O   UNL     1       6.490   4.002  17.001  0.00  0.00    +0.000 OA
ATOM     20  C   UNL     1       5.685   4.937  17.747  0.00  0.00    +0.000 C 
BRANCH  20  21
ATOM     21  C   UNL     1       4.234   4.456  17.838  0.00  0.00    +0.000 A 
ATOM     22  C   UNL     1       3.968   3.078  17.879  0.00  0.00    +0.000 A 
ATOM     23  C   UNL     1       2.652   2.604  17.916  0.00  0.00    +0.000 A 
ATOM     24  C   UNL     1       1.583   3.497  17.913  0.00  0.00    +0.000 A 
ATOM     25  C   UNL     1       1.827   4.865  17.881  0.00  0.00    +0.000 A 
ATOM     26  C   UNL     1       3.140   5.338  17.849  0.00  0.00    +0.000 A 
ENDBRANCH  20  21
ENDBRANCH  14  15
ENDBRANCH   1  14
TORSDOF 8
ENDMDL
MODEL 3
REMARK VINA RESULT:      -7.2      1.261      2.254
REMARK  Name = 
REMARK  9 active torsions:
REMARK  status: ('A' for Active; 'I' for Inactive)
REMARK    1  A    between atoms: C_1  and  O_2
REMARK    2  A    between atoms: O_2  and  C_3
REMARK    3  A    between atoms: C_8  and  O_9
REMARK    4  A    between atoms: O_9  and  C_10
REMARK    5  A    between atoms: C_10  and  C_11
REMARK    6  A    between atoms: C_11  and  N_12
REMARK    7  A    between atoms: N_12  and  C_13
REMARK    8  A    between atoms: C_13  and  C_14
REMARK    9  A    between atoms: C_19  and  C_20
REMARK                            x       y       z     vdW  Elec       q    Type
REMARK                         _______ _______ _______ _____ _____    ______ ____
ROOT
ATOM      1  N   UNL     1       7.817   8.467  17.346  0.00  0.00    +0.000 NA
ATOM      2  H   UNL     1       8.369   8.565  16.493  0.00  0.00    +0.000 HD
ENDROOT
BRANCH   1   3
ATOM      3  C   UNL     1       8.533   9.138  18.449  0.00  0.00    +0.000 C 
BRANCH   3   4
ATOM      4  C   UNL     1       8.965  10.566  18.093  0.00  0.00    +0.000 C 
BRANCH   4   5
ATOM      5  O   UNL     1      10.214  10.924  18.668  0.00  0.00    +0.000 OA
BRANCH   5  11
ATOM      6  C   UNL     1      10.490  13.414  18.899  0.00  0.00    +0.000 A 
ATOM      7  C   UNL     1      10.349  14.505  19.768  0.00  0.00    +0.000 A 
ATOM      8  C   UNL     1      10.065  14.311  21.117  0.00  0.00    +0.000 A 
ATOM      9  C   UNL     1       9.885  13.022  21.603  0.00  0.00    +0.000 A 
ATOM     10  C   UNL     1       9.946  11.932  20.734  0.00  0.00    +0.000 A 
ATOM     11  C   UNL     1      10.229  12.109  19.372  0.00  0.00    +0.000 A 
BRANCH   6  13
ATOM     12  C   UNL     1      12.197  13.509  17.252  0.00  0.00    +0.000 C 
ATOM     13  O   UNL     1      10.813  13.633  17.585  0.00  0.00    +0.000 OA
ENDBRANCH   6  13
ENDBRANCH   5  11
ENDBRANCH   4   5
ENDBRANCH   3   4
ENDBRANCH   1   3
BRANCH   1  14
ATOM     14  C   UNL     1       7.567   7.027  17.579  0.00  0.00    +0.000 C 
BRANCH  14  15
ATOM     15  C   UNL     1       6.124   6.569  17.236  0.00  0.00    +0.000 C 
ATOM     16  O   UNL     1       5.921   6.539  15.804  0.00  0.00    +0.000 OA
ATOM     17  C   UNL     1       6.637   5.480  15.166  0.00  0.00    +0.000 C 
ATOM     18  C   UNL     1       6.455   4.122  15.849  0.00  0.00    +0.000 C 
ATOM     19  O   UNL     1       6.624   4.181  17.272  0.00  0.00    +0.000 OA
ATOM     20  C   UNL     1       5.780   5.194  17.857  0.00  0.00    +0.000 C 
BRANCH  20  21
ATOM     21  C   UNL     1       4.307   4.779  17.797  0.00  0.00    +0.000 A 
ATOM     22  C   UNL     1       3.311   5.751  17.987  0.00  0.00    +0.000 A 
ATOM     23  C   UNL     1       1.957   5.398  17.984  0.00  0.00    +0.000 A 
ATOM     24  C   UNL     1       1.578   4.072  17.791  0.00  0.00    +0.000 A 
ATOM     25  C   UNL     1       2.549   3.097  17.592  0.00  0.00    +0.000 A 
ATOM     26  C   UNL     1       3.899   3.450  17.591  0.00  0.00    +0.000 A 
ENDBRANCH  20  21
ENDBRANCH  14  15
ENDBRANCH   1  14
TORSDOF 8
ENDMDL
MODEL 4
REMARK VINA RESULT:      -7.2      4.790      8.463
REMARK  Name = 
REMARK  9 active torsions:
REMARK  status: ('A' for Active; 'I' for Inactive)
REMARK    1  A    between atoms: C_1  and  O_2
REMARK    2  A    between atoms: O_2  and  C_3
REMARK    3  A    between atoms: C_8  and  O_9
REMARK    4  A    between atoms: O_9  and  C_10
REMARK    5  A    between atoms: C_10  and  C_11
REMARK    6  A    between atoms: C_11  and  N_12
REMARK    7  A    between atoms: N_12  and  C_13
REMARK    8  A    between atoms: C_13  and  C_14
REMARK    9  A    between atoms: C_19  and  C_20
REMARK                            x       y       z     vdW  Elec       q    Type
REMARK                         _______ _______ _______ _____ _____    ______ ____
ROOT
ATOM      1  N   UNL     1       3.405   7.718  17.276  0.00  0.00    +0.000 NA
ATOM      2  H   UNL     1       3.778   8.627  17.001  0.00  0.00    +0.000 HD
ENDROOT
BRANCH   1   3
ATOM      3  C   UNL     1       2.501   7.911  18.428  0.00  0.00    +0.000 C 
BRANCH   3   4
ATOM      4  C   UNL     1       2.566   6.753  19.432  0.00  0.00    +0.000 C 
BRANCH   4   5
ATOM      5  O   UNL     1       1.469   5.859  19.315  0.00  0.00    +0.000 OA
BRANCH   5  11
ATOM      6  C   UNL     1       1.801   3.430  19.885  0.00  0.00    +0.000 A 
ATOM      7  C   UNL     1       2.063   2.158  19.360  0.00  0.00    +0.000 A 
ATOM      8  C   UNL     1       2.427   1.997  18.025  0.00  0.00    +0.000 A 
ATOM      9  C   UNL     1       2.498   3.108  17.194  0.00  0.00    +0.000 A 
ATOM     10  C   UNL     1       2.165   4.371  17.684  0.00  0.00    +0.000 A 
ATOM     11  C   UNL     1       1.795   4.551  19.024  0.00  0.00    +0.000 A 
BRANCH   6  13
ATOM     12  C   UNL     1       1.641   2.390  22.012  0.00  0.00    +0.000 C 
ATOM     13  O   UNL     1       1.488   3.564  21.213  0.00  0.00    +0.000 OA
ENDBRANCH   6  13
ENDBRANCH   5  11
ENDBRANCH   4   5
ENDBRANCH   3   4
ENDBRANCH   1   3
BRANCH   1  14
ATOM     14  C   UNL     1       4.541   6.810  17.549  0.00  0.00    +0.000 C 
BRANCH  14  15
ATOM     15  C   UNL     1       5.440   6.527  16.315  0.00  0.00    +0.000 C 
ATOM     16  O   UNL     1       6.811   6.905  16.580  0.00  0.00    +0.000 OA
ATOM     17  C   UNL     1       7.453   6.034  17.513  0.00  0.00    +0.000 C 
ATOM     18  C   UNL     1       7.267   4.549  17.191  0.00  0.00    +0.000 C 
ATOM     19  O   UNL     1       5.907   4.203  16.895  0.00  0.00    +0.000 OA
ATOM     20  C   UNL     1       5.366   5.050  15.860  0.00  0.00    +0.000 C 
BRANCH  20  21
ATOM     21  C   UNL     1       6.006   4.731  14.505  0.00  0.00    +0.000 A 
ATOM     22  C   UNL     1       5.415   3.763  13.677  0.00  0.00    +0.000 A 
ATOM     23  C   UNL     1       5.998   3.416  12.454  0.00  0.00    +0.000 A 
ATOM     24  C   UNL     1       7.178   4.029  12.039  0.00  0.00    +0.000 A 
ATOM     25  C   UNL     1       7.772   4.996  12.841  0.00  0.00    +0.000 A 
ATOM     26  C   UNL     1       7.188   5.346  14.059  0.00  0.00    +0.000 A 
ENDBRANCH  20  21
ENDBRANCH  14  15
ENDBRANCH   1  14
TORSDOF 8
ENDMDL
MODEL 5
REMARK VINA RESULT:      -7.2      0.908      1.373
REMARK  Name = 
REMARK  9 active torsions:
REMARK  status: ('A' for Active; 'I' for Inactive)
REMARK    1  A    between atoms: C_1  and  O_2
REMARK    2  A    between atoms: O_2  and  C_3
REMARK    3  A    between atoms: C_8  and  O_9
REMARK    4  A    between atoms: O_9  and  C_10
REMARK    5  A    between atoms: C_10  and  C_11
REMARK    6  A    between atoms: C_11  and  N_12
REMARK    7  A    between atoms: N_12  and  C_13
REMARK    8  A    between atoms: C_13  and  C_14
REMARK    9  A    between atoms: C_19  and  C_20
REMARK                            x       y       z     vdW  Elec       q    Type
REMARK                         _______ _______ _______ _____ _____    ______ ____
ROOT
ATOM      1  N   UNL     1       7.889   6.656  18.270  0.00  0.00    +0.000 NA
ATOM      2  H   UNL     1       7.180   6.302  18.914  0.00  0.00    +0.000 HD
ENDROOT
BRANCH   1   3
ATOM      3  C   UNL     1       8.376   7.956  18.773  0.00  0.00    +0.000 C 
BRANCH   3   4
ATOM      4  C   UNL     1       8.368   9.048  17.696  0.00  0.00    +0.000 C 
BRANCH   4   5
ATOM      5  O   UNL     1       8.225  10.354  18.237  0.00  0.00    +0.000 OA
BRANCH   5  11
ATOM      6  C   UNL     1       9.769  11.177  20.045  0.00  0.00    +0.000 A 
ATOM      7  C   UNL     1      11.047  11.686  20.314  0.00  0.00    +0.000 A 
ATOM      8  C   UNL     1      11.898  12.063  19.278  0.00  0.00    +0.000 A 
ATOM      9  C   UNL     1      11.489  11.900  17.959  0.00  0.00    +0.000 A 
ATOM     10  C   UNL     1      10.251  11.322  17.678  0.00  0.00    +0.000 A 
ATOM     11  C   UNL     1       9.383  10.935  18.708  0.00  0.00    +0.000 A 
BRANCH   6  13
ATOM     12  C   UNL     1       8.757  11.865  22.078  0.00  0.00    +0.000 C 
ATOM     13  O   UNL     1       8.936  10.854  21.085  0.00  0.00    +0.000 OA
ENDBRANCH   6  13
ENDBRANCH   5  11
ENDBRANCH   4   5
ENDBRANCH   3   4
ENDBRANCH   1   3
BRANCH   1  14
ATOM     14  C   UNL     1       7.299   6.718  16.914  0.00  0.00    +0.000 C 
BRANCH  14  15
ATOM     15  C   UNL     1       5.824   6.242  16.840  0.00  0.00    +0.000 C 
ATOM     16  O   UNL     1       5.303   6.385  15.498  0.00  0.00    +0.000 OA
ATOM     17  C   UNL     1       5.874   5.450  14.581  0.00  0.00    +0.000 C 
ATOM     18  C   UNL     1       5.873   4.008  15.099  0.00  0.00    +0.000 C 
ATOM     19  O   UNL     1       6.358   3.893  16.444  0.00  0.00    +0.000 OA
ATOM     20  C   UNL     1       5.651   4.784  17.332  0.00  0.00    +0.000 C 
BRANCH  20  21
ATOM     21  C   UNL     1       4.209   4.312  17.544  0.00  0.00    +0.000 A 
ATOM     22  C   UNL     1       3.203   5.264  17.775  0.00  0.00    +0.000 A 
ATOM     23  C   UNL     1       1.884   4.865  18.018  0.00  0.00    +0.000 A 
ATOM     24  C   UNL     1       1.551   3.512  18.034  0.00  0.00    +0.000 A 
ATOM     25  C   UNL     1       2.532   2.557  17.798  0.00  0.00    +0.000 A 
ATOM     26  C   UNL     1       3.847   2.954  17.551  0.00  0.00    +0.000 A 
ENDBRANCH  20  21
ENDBRANCH  14  15
ENDBRANCH   1  14
TORSDOF 8
ENDMDL
MODEL 6
REMARK VINA RESULT:      -7.1      5.996      8.038
REMARK  Name = 
REMARK  9 active torsions:
REMARK  status: ('A' for Active; 'I' for Inactive)
REMARK    1  A    between atoms: C_1  and  O_2
REMARK    2  A    between atoms: O_2  and  C_3
REMARK    3  A    between atoms: C_8  and  O_9
REMARK    4  A    between atoms: O_9  and  C_10
REMARK    5  A    between atoms: C_10  and  C_11
REMARK    6  A    between atoms: C_11  and  N_12
REMARK    7  A    between atoms: N_12  and  C_13
REMARK    8  A    between atoms: C_13  and  C_14
REMARK    9  A    between atoms: C_19  and  C_20
REMARK                            x       y       z     vdW  Elec       q    Type
REMARK                         _______ _______ _______ _____ _____    ______ ____
ROOT
ATOM      1  N   UNL     1       1.921   5.537  19.796  0.00  0.00    +0.000 NA
ATOM      2  H   UNL     1       1.677   5.171  18.876  0.00  0.00    +0.000 HD
ENDROOT
BRANCH   1   3
ATOM      3  C   UNL     1       2.304   6.956  19.651  0.00  0.00    +0.000 C 
BRANCH   3   4
ATOM      4  C   UNL     1       1.636   7.860  20.695  0.00  0.00    +0.000 C 
BRANCH   4   5
ATOM      5  O   UNL     1       1.120   9.059  20.135  0.00  0.00    +0.000 OA
BRANCH   5  11
ATOM      6  C   UNL     1      -0.273  11.071  20.723  0.00  0.00    +0.000 A 
ATOM      7  C   UNL     1      -1.099  11.645  21.700  0.00  0.00    +0.000 A 
ATOM      8  C   UNL     1      -1.219  11.068  22.961  0.00  0.00    +0.000 A 
ATOM      9  C   UNL     1      -0.538   9.891  23.247  0.00  0.00    +0.000 A 
ATOM     10  C   UNL     1       0.226   9.268  22.259  0.00  0.00    +0.000 A 
ATOM     11  C   UNL     1       0.357   9.833  20.983  0.00  0.00    +0.000 A 
BRANCH   6  13
ATOM     12  C   UNL     1      -1.275  11.614  18.642  0.00  0.00    +0.000 C 
ATOM     13  O   UNL     1      -0.139  11.684  19.504  0.00  0.00    +0.000 OA
ENDBRANCH   6  13
ENDBRANCH   5  11
ENDBRANCH   4   5
ENDBRANCH   3   4
ENDBRANCH   1   3
BRANCH   1  14
ATOM     14  C   UNL     1       2.983   4.683  20.374  0.00  0.00    +0.000 C 
BRANCH  14  15
ATOM     15  C   UNL     1       4.195   4.453  19.432  0.00  0.00    +0.000 C 
ATOM     16  O   UNL     1       4.852   3.201  19.735  0.00  0.00    +0.000 OA
ATOM     17  C   UNL     1       4.073   2.063  19.360  0.00  0.00    +0.000 C 
ATOM     18  C   UNL     1       3.518   2.145  17.936  0.00  0.00    +0.000 C 
ATOM     19  O   UNL     1       2.905   3.408  17.643  0.00  0.00    +0.000 OA
ATOM     20  C   UNL     1       3.796   4.503  17.937  0.00  0.00    +0.000 C 
BRANCH  20  21
ATOM     21  C   UNL     1       4.953   4.549  16.934  0.00  0.00    +0.000 A 
ATOM     22  C   UNL     1       4.673   4.491  15.559  0.00  0.00    +0.000 A 
ATOM     23  C   UNL     1       5.708   4.485  14.618  0.00  0.00    +0.000 A 
ATOM     24  C   UNL     1       7.037   4.536  15.035  0.00  0.00    +0.000 A 
ATOM     25  C   UNL     1       7.333   4.603  16.391  0.00  0.00    +0.000 A 
ATOM     26  C   UNL     1       6.300   4.613  17.330  0.00  0.00    +0.000 A 
ENDBRANCH  20  21
ENDBRANCH  14  15
ENDBRANCH   1  14
TORSDOF 8
ENDMDL
MODEL 7
REMARK VINA RESULT:      -7.1      5.500      7.552
REMARK  Name = 
REMARK  9 active torsions:
REMARK  status: ('A' for Active; 'I' for Inactive)
REMARK    1  A    between atoms: C_1  and  O_2
REMARK    2  A    between atoms: O_2  and  C_3
REMARK    3  A    between atoms: C_8  and  O_9
REMARK    4  A    between atoms: O_9  and  C_10
REMARK    5  A    between atoms: C_10  and  C_11
REMARK    6  A    between atoms: C_11  and  N_12
REMARK    7  A    between atoms: N_12  and  C_13
REMARK    8  A    between atoms: C_13  and  C_14
REMARK    9  A    between atoms: C_19  and  C_20
REMARK                            x       y       z     vdW  Elec       q    Type
REMARK                         _______ _______ _______ _____ _____    ______ ____
ROOT
ATOM      1  N   UNL     1       5.779   4.142  18.658  0.00  0.00    +0.000 NA
ATOM      2  H   UNL     1       5.570   4.907  19.301  0.00  0.00    +0.000 HD
ENDROOT
BRANCH   1   3
ATOM      3  C   UNL     1       6.847   4.581  17.738  0.00  0.00    +0.000 C 
BRANCH   3   4
ATOM      4  C   UNL     1       6.352   5.591  16.695  0.00  0.00    +0.000 C 
BRANCH   4   5
ATOM      5  O   UNL     1       7.244   5.733  15.599  0.00  0.00    +0.000 OA
BRANCH   5  11
ATOM      6  C   UNL     1       7.556   5.020  13.205  0.00  0.00    +0.000 A 
ATOM      7  C   UNL     1       7.098   4.158  12.200  0.00  0.00    +0.000 A 
ATOM      8  C   UNL     1       5.940   3.405  12.377  0.00  0.00    +0.000 A 
ATOM      9  C   UNL     1       5.248   3.483  13.580  0.00  0.00    +0.000 A 
ATOM     10  C   UNL     1       5.736   4.278  14.617  0.00  0.00    +0.000 A 
ATOM     11  C   UNL     1       6.901   5.041  14.457  0.00  0.00    +0.000 A 
BRANCH   6  13
ATOM     12  C   UNL     1       8.657   6.596  11.813  0.00  0.00    +0.000 C 
ATOM     13  O   UNL     1       8.675   5.782  12.987  0.00  0.00    +0.000 OA
ENDBRANCH   6  13
ENDBRANCH   5  11
ENDBRANCH   4   5
ENDBRANCH   3   4
ENDBRANCH   1   3
BRANCH   1  14
ATOM     14  C   UNL     1       4.525   3.745  17.979  0.00  0.00    +0.000 C 
BRANCH  14  15
ATOM     15  C   UNL     1       3.447   4.862  17.932  0.00  0.00    +0.000 C 
ATOM     16  O   UNL     1       2.141   4.304  17.660  0.00  0.00    +0.000 OA
ATOM     17  C   UNL     1       1.620   3.554  18.759  0.00  0.00    +0.000 C 
ATOM     18  C   UNL     1       1.718   4.288  20.100  0.00  0.00    +0.000 C 
ATOM     19  O   UNL     1       3.010   4.865  20.333  0.00  0.00    +0.000 OA
ATOM     20  C   UNL     1       3.414   5.703  19.231  0.00  0.00    +0.000 C 
BRANCH  20  21
ATOM     21  C   UNL     1       2.574   6.983  19.181  0.00  0.00    +0.000 A 
ATOM     22  C   UNL     1       2.453   7.679  17.968  0.00  0.00    +0.000 A 
ATOM     23  C   UNL     1       1.731   8.875  17.898  0.00  0.00    +0.000 A 
ATOM     24  C   UNL     1       1.120   9.394  19.037  0.00  0.00    +0.000 A 
ATOM     25  C   UNL     1       1.221   8.715  20.245  0.00  0.00    +0.000 A 
ATOM     26  C   UNL     1       1.938   7.519  20.314  0.00  0.00    +0.000 A 
ENDBRANCH  20  21
ENDBRANCH  14  15
ENDBRANCH   1  14
TORSDOF 8
ENDMDL
MODEL 8
REMARK VINA RESULT:      -7.0      1.568      1.697
REMARK  Name = 
REMARK  9 active torsions:
REMARK  status: ('A' for Active; 'I' for Inactive)
REMARK    1  A    between atoms: C_1  and  O_2
REMARK    2  A    between atoms: O_2  and  C_3
REMARK    3  A    between atoms: C_8  and  O_9
REMARK    4  A    between atoms: O_9  and  C_10
REMARK    5  A    between atoms: C_10  and  C_11
REMARK    6  A    between atoms: C_11  and  N_12
REMARK    7  A    between atoms: N_12  and  C_13
REMARK    8  A    between atoms: C_13  and  C_14
REMARK    9  A    between atoms: C_19  and  C_20
REMARK                            x       y       z     vdW  Elec       q    Type
REMARK                         _______ _______ _______ _____ _____    ______ ____
ROOT
ATOM      1  N   UNL     1       7.512   8.308  17.834  0.00  0.00    +0.000 NA
ATOM      2  H   UNL     1       7.563   9.030  17.115  0.00  0.00    +0.000 HD
ENDROOT
BRANCH   1   3
ATOM      3  C   UNL     1       8.691   8.434  18.713  0.00  0.00    +0.000 C 
BRANCH   3   4
ATOM      4  C   UNL     1       9.038   9.894  19.032  0.00  0.00    +0.000 C 
BRANCH   4   5
ATOM      5  O   UNL     1       8.654  10.790  17.999  0.00  0.00    +0.000 OA
BRANCH   5  11
ATOM      6  C   UNL     1       9.056  13.265  17.787  0.00  0.00    +0.000 A 
ATOM      7  C   UNL     1      10.037  14.265  17.745  0.00  0.00    +0.000 A 
ATOM      8  C   UNL     1      11.388  13.937  17.656  0.00  0.00    +0.000 A 
ATOM      9  C   UNL     1      11.771  12.601  17.643  0.00  0.00    +0.000 A 
ATOM     10  C   UNL     1      10.810  11.597  17.762  0.00  0.00    +0.000 A 
ATOM     11  C   UNL     1       9.446  11.909  17.854  0.00  0.00    +0.000 A 
BRANCH   6  13
ATOM     12  C   UNL     1       7.454  15.016  17.766  0.00  0.00    +0.000 C 
ATOM     13  O   UNL     1       7.732  13.617  17.830  0.00  0.00    +0.000 OA
ENDBRANCH   6  13
ENDBRANCH   5  11
ENDBRANCH   4   5
ENDBRANCH   3   4
ENDBRANCH   1   3
BRANCH   1  14
ATOM     14  C   UNL     1       7.397   6.991  17.167  0.00  0.00    +0.000 C 
BRANCH  14  15
ATOM     15  C   UNL     1       5.941   6.471  17.034  0.00  0.00    +0.000 C 
ATOM     16  O   UNL     1       5.535   6.427  15.647  0.00  0.00    +0.000 OA
ATOM     17  C   UNL     1       6.196   5.397  14.909  0.00  0.00    +0.000 C 
ATOM     18  C   UNL     1       6.173   4.034  15.608  0.00  0.00    +0.000 C 
ATOM     19  O   UNL     1       6.542   4.106  16.992  0.00  0.00    +0.000 OA
ATOM     20  C   UNL     1       5.750   5.084  17.695  0.00  0.00    +0.000 C 
BRANCH  20  21
ATOM     21  C   UNL     1       4.302   4.606  17.847  0.00  0.00    +0.000 A 
ATOM     22  C   UNL     1       4.047   3.240  18.053  0.00  0.00    +0.000 A 
ATOM     23  C   UNL     1       2.735   2.764  18.150  0.00  0.00    +0.000 A 
ATOM     24  C   UNL     1       1.660   3.643  18.044  0.00  0.00    +0.000 A 
ATOM     25  C   UNL     1       1.892   4.999  17.849  0.00  0.00    +0.000 A 
ATOM     26  C   UNL     1       3.201   5.475  17.756  0.00  0.00    +0.000 A 
ENDBRANCH  20  21
ENDBRANCH  14  15
ENDBRANCH   1  14
TORSDOF 8
ENDMDL
MODEL 9
REMARK VINA RESULT:      -7.0      4.930      8.307
REMARK  Name = 
REMARK  9 active torsions:
REMARK  status: ('A' for Active; 'I' for Inactive)
REMARK    1  A    between atoms: C_1  and  O_2
REMARK    2  A    between atoms: O_2  and  C_3
REMARK    3  A    between atoms: C_8  and  O_9
REMARK    4  A    between atoms: O_9  and  C_10
REMARK    5  A    between atoms: C_10  and  C_11
REMARK    6  A    between atoms: C_11  and  N_12
REMARK    7  A    between atoms: N_12  and  C_13
REMARK    8  A    between atoms: C_13  and  C_14
REMARK    9  A    between atoms: C_19  and  C_20
REMARK                            x       y       z     vdW  Elec       q    Type
REMARK                         _______ _______ _______ _____ _____    ______ ____
ROOT
ATOM      1  N   UNL     1       4.372   2.983  18.779  0.00  0.00    +0.000 NA
ATOM      2  H   UNL     1       4.828   2.284  19.366  0.00  0.00    +0.000 HD
ENDROOT
BRANCH   1   3
ATOM      3  C   UNL     1       3.749   2.298  17.629  0.00  0.00    +0.000 C 
BRANCH   3   4
ATOM      4  C   UNL     1       2.500   3.023  17.113  0.00  0.00    +0.000 C 
BRANCH   4   5
ATOM      5  O   UNL     1       1.509   3.194  18.116  0.00  0.00    +0.000 OA
BRANCH   5  11
ATOM      6  C   UNL     1       1.424   4.513  20.258  0.00  0.00    +0.000 A 
ATOM      7  C   UNL     1       1.685   5.758  20.846  0.00  0.00    +0.000 A 
ATOM      8  C   UNL     1       2.021   6.860  20.064  0.00  0.00    +0.000 A 
ATOM      9  C   UNL     1       2.131   6.717  18.686  0.00  0.00    +0.000 A 
ATOM     10  C   UNL     1       1.949   5.466  18.097  0.00  0.00    +0.000 A 
ATOM     11  C   UNL     1       1.613   4.345  18.868  0.00  0.00    +0.000 A 
BRANCH   6  13
ATOM     12  C   UNL     1       2.118   2.737  21.672  0.00  0.00    +0.000 C 
ATOM     13  O   UNL     1       1.053   3.455  21.048  0.00  0.00    +0.000 OA
ENDBRANCH   6  13
ENDBRANCH   5  11
ENDBRANCH   4   5
ENDBRANCH   3   4
ENDBRANCH   1   3
BRANCH   1  14
ATOM     14  C   UNL     1       5.377   4.003  18.400  0.00  0.00    +0.000 C 
BRANCH  14  15
ATOM     15  C   UNL     1       5.378   4.362  16.889  0.00  0.00    +0.000 C 
ATOM     16  O   UNL     1       4.780   5.661  16.669  0.00  0.00    +0.000 OA
ATOM     17  C   UNL     1       5.596   6.733  17.143  0.00  0.00    +0.000 C 
ATOM     18  C   UNL     1       7.056   6.636  16.691  0.00  0.00    +0.000 C 
ATOM     19  O   UNL     1       7.619   5.330  16.884  0.00  0.00    +0.000 OA
ATOM     20  C   UNL     1       6.798   4.313  16.275  0.00  0.00    +0.000 C 
BRANCH  20  21
ATOM     21  C   UNL     1       6.872   4.394  14.747  0.00  0.00    +0.000 A 
ATOM     22  C   UNL     1       6.013   3.595  13.974  0.00  0.00    +0.000 A 
ATOM     23  C   UNL     1       6.086   3.611  12.577  0.00  0.00    +0.000 A 
ATOM     24  C   UNL     1       7.015   4.424  11.931  0.00  0.00    +0.000 A 
ATOM     25  C   UNL     1       7.866   5.228  12.679  0.00  0.00    +0.000 A 
ATOM     26  C   UNL     1       7.792   5.215  14.073  0.00  0.00    +0.000 A 
ENDBRANCH  20  21
ENDBRANCH  14  15
ENDBRANCH   1  14
TORSDOF 8
ENDMDL
