MODEL 1
REMARK VINA RESULT:      -8.6      0.000      0.000
REMARK  Name = 
REMARK  6 active torsions:
REMARK  status: ('A' for Active; 'I' for Inactive)
REMARK    1  A    between atoms: C_1  and  C_2
REMARK    2  A    between atoms: C_5  and  C_6
REMARK    3  A    between atoms: C_6  and  N_7
REMARK    4  A    between atoms: C_8  and  C_10
REMARK    5  A    between atoms: C_13  and  S_14
REMARK    6  A    between atoms: S_14  and  N_17
REMARK                            x       y       z     vdW  Elec       q    Type
REMARK                         _______ _______ _______ _____ _____    ______ ____
ROOT
ATOM      1  C   UNL     1       1.419   8.955  18.945  0.00  0.00    +0.000 A 
ATOM      2  C   UNL     1       2.071   8.771  17.720  0.00  0.00    +0.000 A 
ATOM      3  C   UNL     1       2.973   7.712  17.557  0.00  0.00    +0.000 A 
ATOM      4  C   UNL     1       3.208   6.823  18.611  0.00  0.00    +0.000 A 
ATOM      5  C   UNL     1       2.467   6.937  19.791  0.00  0.00    +0.000 A 
ATOM      6  C   UNL     1       1.617   8.029  19.978  0.00  0.00    +0.000 A 
ENDROOT
BRANCH   1   8
ATOM      7  N   UNL     1      -0.270  10.542  18.218  0.00  0.00    +0.000 N 
ATOM      8  C   UNL     1       0.570  10.141  19.227  0.00  0.00    +0.000 C 
ATOM      9  O   UNL     1       0.639  10.694  20.315  0.00  0.00    +0.000 OA
ATOM     10  H   UNL     1      -0.471   9.917  17.447  0.00  0.00    +0.000 HD
BRANCH   7  11
ATOM     11  C   UNL     1      -1.193  11.635  18.417  0.00  0.00    +0.000 C 
BRANCH  11  16
ATOM     12  C   UNL     1      -3.441  10.144  14.402  0.00  0.00    +0.000 C 
ATOM     13  C   UNL     1      -3.415  10.733  15.756  0.00  0.00    +0.000 A 
ATOM     14  C   UNL     1      -4.396  11.202  16.601  0.00  0.00    +0.000 A 
ATOM     15  C   UNL     1      -3.737  11.639  17.773  0.00  0.00    +0.000 A 
ATOM     16  C   UNL     1      -2.392  11.408  17.577  0.00  0.00    +0.000 A 
ATOM     17  O   UNL     1      -2.190  10.859  16.341  0.00  0.00    +0.000 OA
ENDBRANCH  11  16
ENDBRANCH   7  11
ENDBRANCH   1   8
BRANCH   4  18
ATOM     18  S   UNL     1       4.430   5.538  18.420  0.00  0.00    +0.000 S 
ATOM     19  O   UNL     1       5.130   5.816  17.183  0.00  0.00    +0.000 OA
ATOM     20  O   UNL     1       5.147   5.443  19.678  0.00  0.00    +0.000 OA
BRANCH  18  21
ATOM     21  N   UNL     1       3.609   4.078  18.230  0.00  0.00    +0.000 NA
ATOM     22  C   UNL     1       2.224   4.057  17.672  0.00  0.00    +0.000 C 
ATOM     23  C   UNL     1       1.494   3.070  18.628  0.00  0.00    +0.000 C 
ATOM     24  C   UNL     1       2.227   3.254  19.953  0.00  0.00    +0.000 C 
ATOM     25  C   UNL     1       3.589   3.040  19.313  0.00  0.00    +0.000 C 
ATOM     26  C   UNL     1       3.340   1.657  18.641  0.00  0.00    +0.000 C 
ATOM     27  N   UNL     1       1.889   1.681  18.268  0.00  0.00    +0.000 NA
ATOM     28  H   UNL     1       1.381   1.030  18.866  0.00  0.00    +0.000 HD
ENDBRANCH  18  21
ENDBRANCH   4  18
TORSDOF 5
ENDMDL
MODEL 2
REMARK VINA RESULT:      -8.6      2.243      3.134
REMARK  Name = 
REMARK  6 active torsions:
REMARK  status: ('A' for Active; 'I' for Inactive)
REMARK    1  A    between atoms: C_1  and  C_2
REMARK    2  A    between atoms: C_5  and  C_6
REMARK    3  A    between atoms: C_6  and  N_7
REMARK    4  A    between atoms: C_8  and  C_10
REMARK    5  A    between atoms: C_13  and  S_14
REMARK    6  A    between atoms: S_14  and  N_17
REMARK                            x       y       z     vdW  Elec       q    Type
REMARK                         _______ _______ _______ _____ _____    ______ ____
ROOT
ATOM      1  C   UNL     1       1.098   9.273  19.255  0.00  0.00    +0.000 A 
ATOM      2  C   UNL     1       1.384   8.371  20.287  0.00  0.00    +0.000 A 
ATOM      3  C   UNL     1       2.190   7.253  20.039  0.00  0.00    +0.000 A 
ATOM      4  C   UNL     1       2.729   7.047  18.764  0.00  0.00    +0.000 A 
ATOM      5  C   UNL     1       2.541   8.011  17.769  0.00  0.00    +0.000 A 
ATOM      6  C   UNL     1       1.686   9.091  17.997  0.00  0.00    +0.000 A 
ENDROOT
BRANCH   1   8
ATOM      7  N   UNL     1      -0.364  10.940  18.262  0.00  0.00    +0.000 N 
ATOM      8  C   UNL     1       0.132  10.390  19.418  0.00  0.00    +0.000 C 
ATOM      9  O   UNL     1      -0.186  10.762  20.539  0.00  0.00    +0.000 OA
ATOM     10  H   UNL     1      -0.269  10.445  17.384  0.00  0.00    +0.000 HD
BRANCH   7  11
ATOM     11  C   UNL     1      -1.369  11.976  18.309  0.00  0.00    +0.000 C 
BRANCH  11  16
ATOM     12  C   UNL     1      -3.398  10.128  14.327  0.00  0.00    +0.000 C 
ATOM     13  C   UNL     1      -3.450  10.722  15.678  0.00  0.00    +0.000 A 
ATOM     14  C   UNL     1      -4.483  11.036  16.532  0.00  0.00    +0.000 A 
ATOM     15  C   UNL     1      -3.888  11.578  17.695  0.00  0.00    +0.000 A 
ATOM     16  C   UNL     1      -2.526  11.559  17.484  0.00  0.00    +0.000 A 
ATOM     17  O   UNL     1      -2.253  11.042  16.248  0.00  0.00    +0.000 OA
ENDBRANCH  11  16
ENDBRANCH   7  11
ENDBRANCH   1   8
BRANCH   4  18
ATOM     18  S   UNL     1       3.673   5.570  18.438  0.00  0.00    +0.000 S 
ATOM     19  O   UNL     1       4.085   5.051  19.727  0.00  0.00    +0.000 OA
ATOM     20  O   UNL     1       2.893   4.759  17.523  0.00  0.00    +0.000 OA
BRANCH  18  21
ATOM     21  N   UNL     1       5.063   6.027  17.600  0.00  0.00    +0.000 NA
ATOM     22  C   UNL     1       5.259   5.612  16.179  0.00  0.00    +0.000 C 
ATOM     23  C   UNL     1       6.744   5.146  16.170  0.00  0.00    +0.000 C 
ATOM     24  C   UNL     1       6.961   4.628  17.588  0.00  0.00    +0.000 C 
ATOM     25  C   UNL     1       6.426   5.907  18.214  0.00  0.00    +0.000 C 
ATOM     26  C   UNL     1       7.356   6.941  17.513  0.00  0.00    +0.000 C 
ATOM     27  N   UNL     1       7.619   6.349  16.162  0.00  0.00    +0.000 NA
ATOM     28  H   UNL     1       8.592   6.048  16.115  0.00  0.00    +0.000 HD
ENDBRANCH  18  21
ENDBRANCH   4  18
TORSDOF 5
ENDMDL
MODEL 3
REMARK VINA RESULT:      -8.4      0.574      1.104
REMARK  Name = 
REMARK  6 active torsions:
REMARK  status: ('A' for Active; 'I' for Inactive)
REMARK    1  A    between atoms: C_1  and  C_2
REMARK    2  A    between atoms: C_5  and  C_6
REMARK    3  A    between atoms: C_6  and  N_7
REMARK    4  A    between atoms: C_8  and  C_10
REMARK    5  A    between atoms: C_13  and  S_14
REMARK    6  A    between atoms: S_14  and  N_17
REMARK                            x       y       z     vdW  Elec       q    Type
REMARK                         _______ _______ _______ _____ _____    ______ ____
ROOT
ATOM      1  C   UNL     1       1.098   9.019  19.415  0.00  0.00    +0.000 A 
ATOM      2  C   UNL     1       1.501   8.059  20.351  0.00  0.00    +0.000 A 
ATOM      3  C   UNL     1       2.404   7.055  19.980  0.00  0.00    +0.000 A 
ATOM      4  C   UNL     1       2.921   7.020  18.681  0.00  0.00    +0.000 A 
ATOM      5  C   UNL     1       2.609   8.048  17.786  0.00  0.00    +0.000 A 
ATOM      6  C   UNL     1       1.660   9.012  18.132  0.00  0.00    +0.000 A 
ENDROOT
BRANCH   1   8
ATOM      7  N   UNL     1      -0.335  10.831  18.663  0.00  0.00    +0.000 N 
ATOM      8  C   UNL     1       0.033  10.015  19.703  0.00  0.00    +0.000 C 
ATOM      9  O   UNL     1      -0.469  10.064  20.817  0.00  0.00    +0.000 OA
ATOM     10  H   UNL     1      -0.078  10.590  17.714  0.00  0.00    +0.000 HD
BRANCH   7  11
ATOM     11  C   UNL     1      -1.415  11.778  18.815  0.00  0.00    +0.000 C 
BRANCH  11  16
ATOM     12  C   UNL     1      -3.023  10.098  14.574  0.00  0.00    +0.000 C 
ATOM     13  C   UNL     1      -3.212  10.691  15.913  0.00  0.00    +0.000 A 
ATOM     14  C   UNL     1      -4.324  11.081  16.625  0.00  0.00    +0.000 A 
ATOM     15  C   UNL     1      -3.852  11.574  17.864  0.00  0.00    +0.000 A 
ATOM     16  C   UNL     1      -2.479  11.452  17.837  0.00  0.00    +0.000 A 
ATOM     17  O   UNL     1      -2.082  10.918  16.643  0.00  0.00    +0.000 OA
ENDBRANCH  11  16
ENDBRANCH   7  11
ENDBRANCH   1   8
BRANCH   4  18
ATOM     18  S   UNL     1       3.993   5.681  18.196  0.00  0.00    +0.000 S 
ATOM     19  O   UNL     1       4.395   5.948  16.830  0.00  0.00    +0.000 OA
ATOM     20  O   UNL     1       4.981   5.524  19.246  0.00  0.00    +0.000 OA
BRANCH  18  21
ATOM     21  N   UNL     1       3.074   4.267  18.194  0.00  0.00    +0.000 NA
ATOM     22  C   UNL     1       1.609   4.319  17.907  0.00  0.00    +0.000 C 
ATOM     23  C   UNL     1       1.021   3.385  19.004  0.00  0.00    +0.000 C 
ATOM     24  C   UNL     1       1.999   3.542  20.164  0.00  0.00    +0.000 C 
ATOM     25  C   UNL     1       3.203   3.244  19.283  0.00  0.00    +0.000 C 
ATOM     26  C   UNL     1       2.757   1.870  18.700  0.00  0.00    +0.000 C 
ATOM     27  N   UNL     1       1.266   1.973  18.606  0.00  0.00    +0.000 NA
ATOM     28  H   UNL     1       0.846   1.357  19.303  0.00  0.00    +0.000 HD
ENDBRANCH  18  21
ENDBRANCH   4  18
TORSDOF 5
ENDMDL
MODEL 4
REMARK VINA RESULT:      -8.4      0.610      1.514
REMARK  Name = 
REMARK  6 active torsions:
REMARK  status: ('A' for Active; 'I' for Inactive)
REMARK    1  A    between atoms: C_1  and  C_2
REMARK    2  A    between atoms: C_5  and  C_6
REMARK    3  A    between atoms: C_6  and  N_7
REMARK    4  A    between atoms: C_8  and  C_10
REMARK    5  A    between atoms: C_13  and  S_14
REMARK    6  A    between atoms: S_14  and  N_17
REMARK                            x       y       z     vdW  Elec       q    Type
REMARK                         _______ _______ _______ _____ _____    ______ ____
ROOT
ATOM      1  C   UNL     1       1.255   9.289  19.259  0.00  0.00    +0.000 A 
ATOM      2  C   UNL     1       1.435   8.308  20.243  0.00  0.00    +0.000 A 
ATOM      3  C   UNL     1       2.245   7.196  19.984  0.00  0.00    +0.000 A 
ATOM      4  C   UNL     1       2.893   7.072  18.750  0.00  0.00    +0.000 A 
ATOM      5  C   UNL     1       2.809   8.109  17.817  0.00  0.00    +0.000 A 
ATOM      6  C   UNL     1       1.951   9.187  18.048  0.00  0.00    +0.000 A 
ENDROOT
BRANCH   1   8
ATOM      7  N   UNL     1      -0.355  10.822  18.281  0.00  0.00    +0.000 N 
ATOM      8  C   UNL     1       0.294  10.410  19.418  0.00  0.00    +0.000 C 
ATOM      9  O   UNL     1       0.112  10.905  20.522  0.00  0.00    +0.000 OA
ATOM     10  H   UNL     1      -0.361  10.231  17.458  0.00  0.00    +0.000 HD
BRANCH   7  11
ATOM     11  C   UNL     1      -1.368  11.850  18.340  0.00  0.00    +0.000 C 
BRANCH  11  16
ATOM     12  C   UNL     1      -3.265  10.082  14.257  0.00  0.00    +0.000 C 
ATOM     13  C   UNL     1      -3.362  10.660  15.613  0.00  0.00    +0.000 A 
ATOM     14  C   UNL     1      -4.423  10.979  16.430  0.00  0.00    +0.000 A 
ATOM     15  C   UNL     1      -3.867  11.497  17.623  0.00  0.00    +0.000 A 
ATOM     16  C   UNL     1      -2.498  11.461  17.465  0.00  0.00    +0.000 A 
ATOM     17  O   UNL     1      -2.184  10.955  16.234  0.00  0.00    +0.000 OA
ENDBRANCH  11  16
ENDBRANCH   7  11
ENDBRANCH   1   8
BRANCH   4  18
ATOM     18  S   UNL     1       3.842   5.604  18.400  0.00  0.00    +0.000 S 
ATOM     19  O   UNL     1       4.034   5.570  16.964  0.00  0.00    +0.000 OA
ATOM     20  O   UNL     1       4.977   5.604  19.304  0.00  0.00    +0.000 OA
BRANCH  18  21
ATOM     21  N   UNL     1       2.898   4.273  18.823  0.00  0.00    +0.000 NA
ATOM     22  C   UNL     1       3.499   3.127  19.568  0.00  0.00    +0.000 C 
ATOM     23  C   UNL     1       2.924   1.896  18.809  0.00  0.00    +0.000 C 
ATOM     24  C   UNL     1       2.749   2.411  17.383  0.00  0.00    +0.000 C 
ATOM     25  C   UNL     1       1.962   3.629  17.843  0.00  0.00    +0.000 C 
ATOM     26  C   UNL     1       0.841   2.915  18.655  0.00  0.00    +0.000 C 
ATOM     27  N   UNL     1       1.509   1.701  19.223  0.00  0.00    +0.000 NA
ATOM     28  H   UNL     1       1.142   0.871  18.757  0.00  0.00    +0.000 HD
ENDBRANCH  18  21
ENDBRANCH   4  18
TORSDOF 5
ENDMDL
MODEL 5
REMARK VINA RESULT:      -8.3      2.316      3.322
REMARK  Name = 
REMARK  6 active torsions:
REMARK  status: ('A' for Active; 'I' for Inactive)
REMARK    1  A    between atoms: C_1  and  C_2
REMARK    2  A    between atoms: C_5  and  C_6
REMARK    3  A    between atoms: C_6  and  N_7
REMARK    4  A    between atoms: C_8  and  C_10
REMARK    5  A    between atoms: C_13  and  S_14
REMARK    6  A    between atoms: S_14  and  N_17
REMARK                            x       y       z     vdW  Elec       q    Type
REMARK                         _______ _______ _______ _____ _____    ______ ____
ROOT
ATOM      1  C   UNL     1       1.217   9.244  19.216  0.00  0.00    +0.000 A 
ATOM      2  C   UNL     1       1.461   8.325  20.244  0.00  0.00    +0.000 A 
ATOM      3  C   UNL     1       2.245   7.191  20.000  0.00  0.00    +0.000 A 
ATOM      4  C   UNL     1       2.804   6.984  18.734  0.00  0.00    +0.000 A 
ATOM      5  C   UNL     1       2.658   7.962  17.745  0.00  0.00    +0.000 A 
ATOM      6  C   UNL     1       1.823   9.060  17.967  0.00  0.00    +0.000 A 
ENDROOT
BRANCH   1   8
ATOM      7  N   UNL     1      -0.166  10.971  18.213  0.00  0.00    +0.000 N 
ATOM      8  C   UNL     1       0.274  10.382  19.372  0.00  0.00    +0.000 C 
ATOM      9  O   UNL     1      -0.074  10.736  20.489  0.00  0.00    +0.000 OA
ATOM     10  H   UNL     1      -0.052  10.494  17.327  0.00  0.00    +0.000 HD
BRANCH   7  11
ATOM     11  C   UNL     1      -1.145  12.032  18.250  0.00  0.00    +0.000 C 
BRANCH  11  16
ATOM     12  C   UNL     1      -5.913  11.321  17.851  0.00  0.00    +0.000 C 
ATOM     13  C   UNL     1      -4.526  11.260  17.350  0.00  0.00    +0.000 A 
ATOM     14  C   UNL     1      -3.966  10.829  16.168  0.00  0.00    +0.000 A 
ATOM     15  C   UNL     1      -2.572  11.036  16.286  0.00  0.00    +0.000 A 
ATOM     16  C   UNL     1      -2.363  11.586  17.533  0.00  0.00    +0.000 A 
ATOM     17  O   UNL     1      -3.554  11.719  18.190  0.00  0.00    +0.000 OA
ENDBRANCH  11  16
ENDBRANCH   7  11
ENDBRANCH   1   8
BRANCH   4  18
ATOM     18  S   UNL     1       3.719   5.489  18.410  0.00  0.00    +0.000 S 
ATOM     19  O   UNL     1       4.176   5.000  19.696  0.00  0.00    +0.000 OA
ATOM     20  O   UNL     1       2.894   4.663  17.549  0.00  0.00    +0.000 OA
BRANCH  18  21
ATOM     21  N   UNL     1       5.079   5.908  17.507  0.00  0.00    +0.000 NA
ATOM     22  C   UNL     1       5.286   5.335  16.144  0.00  0.00    +0.000 C 
ATOM     23  C   UNL     1       6.791   4.943  16.171  0.00  0.00    +0.000 C 
ATOM     24  C   UNL     1       7.044   4.611  17.639  0.00  0.00    +0.000 C 
ATOM     25  C   UNL     1       6.451   5.928  18.114  0.00  0.00    +0.000 C 
ATOM     26  C   UNL     1       7.324   6.914  17.282  0.00  0.00    +0.000 C 
ATOM     27  N   UNL     1       7.606   6.177  16.009  0.00  0.00    +0.000 NA
ATOM     28  H   UNL     1       8.593   5.919  15.986  0.00  0.00    +0.000 HD
ENDBRANCH  18  21
ENDBRANCH   4  18
TORSDOF 5
ENDMDL
MODEL 6
REMARK VINA RESULT:      -8.3      0.773      1.503
REMARK  Name = 
REMARK  6 active torsions:
REMARK  status: ('A' for Active; 'I' for Inactive)
REMARK    1  A    between atoms: C_1  and  C_2
REMARK    2  A    between atoms: C_5  and  C_6
REMARK    3  A    between atoms: C_6  and  N_7
REMARK    4  A    between atoms: C_8  and  C_10
REMARK    5  A    between atoms: C_13  and  S_14
REMARK    6  A    between atoms: S_14  and  N_17
REMARK                            x       y       z     vdW  Elec       q    Type
REMARK                         _______ _______ _______ _____ _____    ______ ____
ROOT
ATOM      1  C   UNL     1       1.338   8.931  19.166  0.00  0.00    +0.000 A 
ATOM      2  C   UNL     1       1.661   7.975  20.137  0.00  0.00    +0.000 A 
ATOM      3  C   UNL     1       2.546   6.934  19.830  0.00  0.00    +0.000 A 
ATOM      4  C   UNL     1       3.126   6.859  18.559  0.00  0.00    +0.000 A 
ATOM      5  C   UNL     1       2.896   7.880  17.632  0.00  0.00    +0.000 A 
ATOM      6  C   UNL     1       1.964   8.882  17.914  0.00  0.00    +0.000 A 
ENDROOT
BRANCH   1   8
ATOM      7  N   UNL     1       0.098  10.857  18.357  0.00  0.00    +0.000 N 
ATOM      8  C   UNL     1       0.296   9.967  19.383  0.00  0.00    +0.000 C 
ATOM      9  O   UNL     1      -0.337   9.985  20.430  0.00  0.00    +0.000 OA
ATOM     10  H   UNL     1       0.459  10.653  17.433  0.00  0.00    +0.000 HD
BRANCH   7  11
ATOM     11  C   UNL     1      -0.945  11.853  18.434  0.00  0.00    +0.000 C 
BRANCH  11  16
ATOM     12  C   UNL     1      -5.664  11.782  17.374  0.00  0.00    +0.000 C 
ATOM     13  C   UNL     1      -4.268  11.331  17.203  0.00  0.00    +0.000 A 
ATOM     14  C   UNL     1      -3.667  10.416  16.368  0.00  0.00    +0.000 A 
ATOM     15  C   UNL     1      -2.288  10.436  16.680  0.00  0.00    +0.000 A 
ATOM     16  C   UNL     1      -2.128  11.366  17.686  0.00  0.00    +0.000 A 
ATOM     17  O   UNL     1      -3.337  11.911  18.013  0.00  0.00    +0.000 OA
ENDBRANCH  11  16
ENDBRANCH   7  11
ENDBRANCH   1   8
BRANCH   4  18
ATOM     18  S   UNL     1       4.174   5.475  18.152  0.00  0.00    +0.000 S 
ATOM     19  O   UNL     1       4.625   5.687  16.791  0.00  0.00    +0.000 OA
ATOM     20  O   UNL     1       5.124   5.326  19.238  0.00  0.00    +0.000 OA
BRANCH  18  21
ATOM     21  N   UNL     1       3.216   4.088  18.166  0.00  0.00    +0.000 NA
ATOM     22  C   UNL     1       1.766   4.168  17.817  0.00  0.00    +0.000 C 
ATOM     23  C   UNL     1       1.108   3.294  18.923  0.00  0.00    +0.000 C 
ATOM     24  C   UNL     1       2.043   3.469  20.116  0.00  0.00    +0.000 C 
ATOM     25  C   UNL     1       3.272   3.105  19.298  0.00  0.00    +0.000 C 
ATOM     26  C   UNL     1       2.811   1.722  18.749  0.00  0.00    +0.000 C 
ATOM     27  N   UNL     1       1.328   1.861  18.590  0.00  0.00    +0.000 NA
ATOM     28  H   UNL     1       0.863   1.285  19.291  0.00  0.00    +0.000 HD
ENDBRANCH  18  21
ENDBRANCH   4  18
TORSDOF 5
ENDMDL
MODEL 7
REMARK VINA RESULT:      -8.1      2.499      3.488
REMARK  Name = 
REMARK  6 active torsions:
REMARK  status: ('A' for Active; 'I' for Inactive)
REMARK    1  A    between atoms: C_1  and  C_2
REMARK    2  A    between atoms: C_5  and  C_6
REMARK    3  A    between atoms: C_6  and  N_7
REMARK    4  A    between atoms: C_8  and  C_10
REMARK    5  A    between atoms: C_13  and  S_14
REMARK    6  A    between atoms: S_14  and  N_17
REMARK                            x       y       z     vdW  Elec       q    Type
REMARK                         _______ _______ _______ _____ _____    ______ ____
ROOT
ATOM      1  C   UNL     1       1.950   7.315  20.073  0.00  0.00    +0.000 A 
ATOM      2  C   UNL     1       2.036   6.089  20.744  0.00  0.00    +0.000 A 
ATOM      3  C   UNL     1       2.498   4.951  20.071  0.00  0.00    +0.000 A 
ATOM      4  C   UNL     1       2.894   5.041  18.732  0.00  0.00    +0.000 A 
ATOM      5  C   UNL     1       2.921   6.288  18.101  0.00  0.00    +0.000 A 
ATOM      6  C   UNL     1       2.400   7.410  18.750  0.00  0.00    +0.000 A 
ENDROOT
BRANCH   1   8
ATOM      7  N   UNL     1       0.974   9.525  19.824  0.00  0.00    +0.000 N 
ATOM      8  C   UNL     1       1.330   8.517  20.686  0.00  0.00    +0.000 C 
ATOM      9  O   UNL     1       1.153   8.562  21.895  0.00  0.00    +0.000 OA
ATOM     10  H   UNL     1       0.909   9.344  18.830  0.00  0.00    +0.000 HD
BRANCH   7  11
ATOM     11  C   UNL     1       0.292  10.703  20.308  0.00  0.00    +0.000 C 
BRANCH  11  16
ATOM     12  C   UNL     1      -2.486   9.903  16.430  0.00  0.00    +0.000 C 
ATOM     13  C   UNL     1      -2.141  10.609  17.680  0.00  0.00    +0.000 A 
ATOM     14  C   UNL     1      -2.739  11.629  18.385  0.00  0.00    +0.000 A 
ATOM     15  C   UNL     1      -1.925  11.863  19.518  0.00  0.00    +0.000 A 
ATOM     16  C   UNL     1      -0.879  10.969  19.439  0.00  0.00    +0.000 A 
ATOM     17  O   UNL     1      -1.003  10.203  18.314  0.00  0.00    +0.000 OA
ENDBRANCH  11  16
ENDBRANCH   7  11
ENDBRANCH   1   8
BRANCH   4  18
ATOM     18  S   UNL     1       3.388   3.566  17.861  0.00  0.00    +0.000 S 
ATOM     19  O   UNL     1       3.542   2.529  18.862  0.00  0.00    +0.000 OA
ATOM     20  O   UNL     1       2.470   3.399  16.751  0.00  0.00    +0.000 OA
BRANCH  18  21
ATOM     21  N   UNL     1       4.904   3.856  17.184  0.00  0.00    +0.000 NA
ATOM     22  C   UNL     1       5.936   4.623  17.944  0.00  0.00    +0.000 C 
ATOM     23  C   UNL     1       6.493   5.594  16.864  0.00  0.00    +0.000 C 
ATOM     24  C   UNL     1       5.298   5.822  15.943  0.00  0.00    +0.000 C 
ATOM     25  C   UNL     1       5.055   4.331  15.769  0.00  0.00    +0.000 C 
ATOM     26  C   UNL     1       6.467   3.900  15.272  0.00  0.00    +0.000 C 
ATOM     27  N   UNL     1       7.408   4.835  15.969  0.00  0.00    +0.000 NA
ATOM     28  H   UNL     1       7.806   5.478  15.284  0.00  0.00    +0.000 HD
ENDBRANCH  18  21
ENDBRANCH   4  18
TORSDOF 5
ENDMDL
MODEL 8
REMARK VINA RESULT:      -8.1      0.942      1.408
REMARK  Name = 
REMARK  6 active torsions:
REMARK  status: ('A' for Active; 'I' for Inactive)
REMARK    1  A    between atoms: C_1  and  C_2
REMARK    2  A    between atoms: C_5  and  C_6
REMARK    3  A    between atoms: C_6  and  N_7
REMARK    4  A    between atoms: C_8  and  C_10
REMARK    5  A    between atoms: C_13  and  S_14
REMARK    6  A    between atoms: S_14  and  N_17
REMARK                            x       y       z     vdW  Elec       q    Type
REMARK                         _______ _______ _______ _____ _____    ______ ____
ROOT
ATOM      1  C   UNL     1       1.338   8.958  19.071  0.00  0.00    +0.000 A 
ATOM      2  C   UNL     1       1.960   8.790  17.828  0.00  0.00    +0.000 A 
ATOM      3  C   UNL     1       2.862   7.738  17.631  0.00  0.00    +0.000 A 
ATOM      4  C   UNL     1       3.130   6.839  18.670  0.00  0.00    +0.000 A 
ATOM      5  C   UNL     1       2.419   6.938  19.870  0.00  0.00    +0.000 A 
ATOM      6  C   UNL     1       1.568   8.023  20.090  0.00  0.00    +0.000 A 
ENDROOT
BRANCH   1   8
ATOM      7  N   UNL     1       0.289  11.032  18.366  0.00  0.00    +0.000 N 
ATOM      8  C   UNL     1       0.491  10.137  19.386  0.00  0.00    +0.000 C 
ATOM      9  O   UNL     1       0.009  10.259  20.504  0.00  0.00    +0.000 OA
ATOM     10  H   UNL     1       0.492  10.766  17.410  0.00  0.00    +0.000 HD
BRANCH   7  11
ATOM     11  C   UNL     1      -0.584  12.169  18.544  0.00  0.00    +0.000 C 
BRANCH  11  16
ATOM     12  C   UNL     1      -5.372  11.802  19.123  0.00  0.00    +0.000 C 
ATOM     13  C   UNL     1      -4.121  11.632  18.358  0.00  0.00    +0.000 A 
ATOM     14  C   UNL     1      -3.841  11.139  17.104  0.00  0.00    +0.000 A 
ATOM     15  C   UNL     1      -2.441  11.246  16.936  0.00  0.00    +0.000 A 
ATOM     16  C   UNL     1      -1.948  11.800  18.098  0.00  0.00    +0.000 A 
ATOM     17  O   UNL     1      -2.971  12.032  18.973  0.00  0.00    +0.000 OA
ENDBRANCH  11  16
ENDBRANCH   7  11
ENDBRANCH   1   8
BRANCH   4  18
ATOM     18  S   UNL     1       4.353   5.564  18.435  0.00  0.00    +0.000 S 
ATOM     19  O   UNL     1       5.025   5.862  17.187  0.00  0.00    +0.000 OA
ATOM     20  O   UNL     1       5.098   5.454  19.675  0.00  0.00    +0.000 OA
BRANCH  18  21
ATOM     21  N   UNL     1       3.535   4.102  18.242  0.00  0.00    +0.000 NA
ATOM     22  C   UNL     1       2.144   4.081  17.699  0.00  0.00    +0.000 C 
ATOM     23  C   UNL     1       1.428   3.084  18.655  0.00  0.00    +0.000 C 
ATOM     24  C   UNL     1       2.174   3.260  19.974  0.00  0.00    +0.000 C 
ATOM     25  C   UNL     1       3.530   3.056  19.317  0.00  0.00    +0.000 C 
ATOM     26  C   UNL     1       3.278   1.677  18.637  0.00  0.00    +0.000 C 
ATOM     27  N   UNL     1       1.823   1.700  18.280  0.00  0.00    +0.000 NA
ATOM     28  H   UNL     1       1.324   1.042  18.878  0.00  0.00    +0.000 HD
ENDBRANCH  18  21
ENDBRANCH   4  18
TORSDOF 5
ENDMDL
MODEL 9
REMARK VINA RESULT:      -8.0      0.629      1.196
REMARK  Name = 
REMARK  6 active torsions:
REMARK  status: ('A' for Active; 'I' for Inactive)
REMARK    1  A    between atoms: C_1  and  C_2
REMARK    2  A    between atoms: C_5  and  C_6
REMARK    3  A    between atoms: C_6  and  N_7
REMARK    4  A    between atoms: C_8  and  C_10
REMARK    5  A    between atoms: C_13  and  S_14
REMARK    6  A    between atoms: S_14  and  N_17
REMARK                            x       y       z     vdW  Elec       q    Type
REMARK                         _______ _______ _______ _____ _____    ______ ____
ROOT
ATOM      1  C   UNL     1       1.363   9.012  19.152  0.00  0.00    +0.000 A 
ATOM      2  C   UNL     1       2.025   8.809  17.935  0.00  0.00    +0.000 A 
ATOM      3  C   UNL     1       2.884   7.714  17.778  0.00  0.00    +0.000 A 
ATOM      4  C   UNL     1       3.066   6.809  18.830  0.00  0.00    +0.000 A 
ATOM      5  C   UNL     1       2.314   6.947  19.999  0.00  0.00    +0.000 A 
ATOM      6  C   UNL     1       1.507   8.073  20.181  0.00  0.00    +0.000 A 
ENDROOT
BRANCH   1   8
ATOM      7  N   UNL     1       0.196  10.981  18.338  0.00  0.00    +0.000 N 
ATOM      8  C   UNL     1       0.561  10.231  19.428  0.00  0.00    +0.000 C 
ATOM      9  O   UNL     1       0.254  10.510  20.579  0.00  0.00    +0.000 OA
ATOM     10  H   UNL     1       0.255  10.585  17.408  0.00  0.00    +0.000 HD
BRANCH   7  11
ATOM     11  C   UNL     1      -0.651  12.141  18.490  0.00  0.00    +0.000 C 
BRANCH  11  16
ATOM     12  C   UNL     1      -3.829  10.532  15.218  0.00  0.00    +0.000 C 
ATOM     13  C   UNL     1      -3.461  11.072  16.541  0.00  0.00    +0.000 A 
ATOM     14  C   UNL     1      -4.187  11.390  17.667  0.00  0.00    +0.000 A 
ATOM     15  C   UNL     1      -3.257  11.862  18.623  0.00  0.00    +0.000 A 
ATOM     16  C   UNL     1      -2.016  11.801  18.024  0.00  0.00    +0.000 A 
ATOM     17  O   UNL     1      -2.136  11.325  16.749  0.00  0.00    +0.000 OA
ENDBRANCH  11  16
ENDBRANCH   7  11
ENDBRANCH   1   8
BRANCH   4  18
ATOM     18  S   UNL     1       4.236   5.475  18.649  0.00  0.00    +0.000 S 
ATOM     19  O   UNL     1       4.660   5.484  17.263  0.00  0.00    +0.000 OA
ATOM     20  O   UNL     1       5.200   5.605  19.724  0.00  0.00    +0.000 OA
BRANCH  18  21
ATOM     21  N   UNL     1       3.410   4.031  18.924  0.00  0.00    +0.000 NA
ATOM     22  C   UNL     1       4.140   2.729  18.909  0.00  0.00    +0.000 C 
ATOM     23  C   UNL     1       3.191   1.824  18.070  0.00  0.00    +0.000 C 
ATOM     24  C   UNL     1       2.517   2.807  17.118  0.00  0.00    +0.000 C 
ATOM     25  C   UNL     1       2.103   3.733  18.251  0.00  0.00    +0.000 C 
ATOM     26  C   UNL     1       1.331   2.715  19.142  0.00  0.00    +0.000 C 
ATOM     27  N   UNL     1       2.045   1.416  18.926  0.00  0.00    +0.000 NA
ATOM     28  H   UNL     1       1.443   0.790  18.391  0.00  0.00    +0.000 HD
ENDBRANCH  18  21
ENDBRANCH   4  18
TORSDOF 5
ENDMDL
