MODEL 1
REMARK VINA RESULT:      -9.2      0.000      0.000
REMARK  Name = 
REMARK  7 active torsions:
REMARK  status: ('A' for Active; 'I' for Inactive)
REMARK    1  A    between atoms: C_1  and  N_2
REMARK    2  A    between atoms: N_2  and  S_3
REMARK    3  A    between atoms: S_3  and  C_6
REMARK    4  A    between atoms: C_9  and  O_10
REMARK    5  A    between atoms: O_10  and  C_11
REMARK    6  A    between atoms: C_15  and  N_16
REMARK    7  A    between atoms: C_19  and  N_20
REMARK                            x       y       z     vdW  Elec       q    Type
REMARK                         _______ _______ _______ _____ _____    ______ ____
ROOT
ATOM      1  C   UNL     1       5.399   4.945  17.571  0.00  0.00    +0.000 A 
ATOM      2  C   UNL     1       4.807   3.771  17.121  0.00  0.00    +0.000 A 
ATOM      3  C   UNL     1       3.467   3.528  17.414  0.00  0.00    +0.000 A 
ATOM      4  C   UNL     1       2.695   4.485  18.092  0.00  0.00    +0.000 A 
ATOM      5  C   UNL     1       3.308   5.662  18.589  0.00  0.00    +0.000 A 
ATOM      6  C   UNL     1       4.681   5.850  18.360  0.00  0.00    +0.000 A 
ENDROOT
BRANCH   5   7
ATOM      7  N   UNL     1       2.676   6.605  19.457  0.00  0.00    +0.000 N 
ATOM      8  C   UNL     1       2.233   7.901  19.085  0.00  0.00    +0.000 A 
ATOM      9  C   UNL     1       1.235   8.513  19.831  0.00  0.00    +0.000 A 
ATOM     10  C   UNL     1       0.743   9.718  19.364  0.00  0.00    +0.000 A 
ATOM     11  N   UNL     1       1.287  10.330  18.302  0.00  0.00    +0.000 NA
ATOM     12  C   UNL     1       2.321   9.722  17.718  0.00  0.00    +0.000 A 
ATOM     13  N   UNL     1       2.824   8.533  18.059  0.00  0.00    +0.000 NA
ATOM     14  H   UNL     1       1.920   6.116  19.931  0.00  0.00    +0.000 HD
BRANCH  10  15
ATOM     15  N   UNL     1      -0.397  10.278  19.974  0.00  0.00    +0.000 N 
ATOM     16  C   UNL     1      -1.556  10.677  19.288  0.00  0.00    +0.000 A 
ATOM     17  C   UNL     1      -2.050   9.916  18.225  0.00  0.00    +0.000 A 
ATOM     18  C   UNL     1      -3.199  10.320  17.549  0.00  0.00    +0.000 A 
ATOM     19  C   UNL     1      -3.843  11.473  17.969  0.00  0.00    +0.000 A 
ATOM     20 CL   UNL     1      -5.250  12.026  17.156  0.00  0.00    +0.000 Cl
ATOM     21  C   UNL     1      -3.321  12.154  19.053  0.00  0.00    +0.000 A 
ATOM     22  N   UNL     1      -2.202  11.779  19.731  0.00  0.00    +0.000 NA
ATOM     23  H   UNL     1      -0.173  10.964  20.684  0.00  0.00    +0.000 HD
ENDBRANCH  10  15
ENDBRANCH   5   7
BRANCH   1  24
ATOM     24  S   UNL     1       7.096   5.280  17.169  0.00  0.00    +0.000 S 
ATOM     25  O   UNL     1       7.926   4.644  18.165  0.00  0.00    +0.000 OA
ATOM     26  O   UNL     1       7.220   6.681  16.850  0.00  0.00    +0.000 OA
BRANCH  24  28
ATOM     27  C   UNL     1       6.971   5.005  14.481  0.00  0.00    +0.000 C 
ATOM     28  N   UNL     1       7.290   4.381  15.760  0.00  0.00    +0.000 NA
ATOM     29  H   UNL     1       8.085   3.744  15.805  0.00  0.00    +0.000 HD
ENDBRANCH  24  28
ENDBRANCH   1  24
BRANCH   4  30
ATOM     30  O   UNL     1       1.372   4.274  18.365  0.00  0.00    +0.000 OA
BRANCH  30  31
ATOM     31  C   UNL     1       1.047   3.514  19.526  0.00  0.00    +0.000 C 
ATOM     32  F   UNL     1       2.108   2.931  20.131  0.00  0.00    +0.000 F 
ATOM     33  F   UNL     1       0.442   4.328  20.422  0.00  0.00    +0.000 F 
ATOM     34  F   UNL     1       0.175   2.534  19.201  0.00  0.00    +0.000 F 
ENDBRANCH  30  31
ENDBRANCH   4  30
TORSDOF 6
ENDMDL
MODEL 2
REMARK VINA RESULT:      -9.0      2.211      2.664
REMARK  Name = 
REMARK  7 active torsions:
REMARK  status: ('A' for Active; 'I' for Inactive)
REMARK    1  A    between atoms: C_1  and  N_2
REMARK    2  A    between atoms: N_2  and  S_3
REMARK    3  A    between atoms: S_3  and  C_6
REMARK    4  A    between atoms: C_9  and  O_10
REMARK    5  A    between atoms: O_10  and  C_11
REMARK    6  A    between atoms: C_15  and  N_16
REMARK    7  A    between atoms: C_19  and  N_20
REMARK                            x       y       z     vdW  Elec       q    Type
REMARK                         _______ _______ _______ _____ _____    ______ ____
ROOT
ATOM      1  C   UNL     1       5.118   4.976  17.143  0.00  0.00    +0.000 A 
ATOM      2  C   UNL     1       4.502   3.771  16.822  0.00  0.00    +0.000 A 
ATOM      3  C   UNL     1       3.335   3.405  17.487  0.00  0.00    +0.000 A 
ATOM      4  C   UNL     1       2.737   4.268  18.418  0.00  0.00    +0.000 A 
ATOM      5  C   UNL     1       3.386   5.476  18.778  0.00  0.00    +0.000 A 
ATOM      6  C   UNL     1       4.608   5.788  18.161  0.00  0.00    +0.000 A 
ENDROOT
BRANCH   5   7
ATOM      7  N   UNL     1       2.980   6.331  19.848  0.00  0.00    +0.000 N 
ATOM      8  C   UNL     1       2.219   7.520  19.711  0.00  0.00    +0.000 A 
ATOM      9  C   UNL     1       1.489   7.984  20.797  0.00  0.00    +0.000 A 
ATOM     10  C   UNL     1       0.662   9.072  20.586  0.00  0.00    +0.000 A 
ATOM     11  N   UNL     1       0.652   9.727  19.416  0.00  0.00    +0.000 NA
ATOM     12  C   UNL     1       1.476   9.279  18.467  0.00  0.00    +0.000 A 
ATOM     13  N   UNL     1       2.262   8.204  18.557  0.00  0.00    +0.000 NA
ATOM     14  H   UNL     1       2.554   5.740  20.558  0.00  0.00    +0.000 HD
BRANCH  10  15
ATOM     15  N   UNL     1      -0.239   9.456  21.599  0.00  0.00    +0.000 N 
ATOM     16  C   UNL     1      -0.736  10.759  21.777  0.00  0.00    +0.000 A 
ATOM     17  C   UNL     1      -1.072  11.546  20.672  0.00  0.00    +0.000 A 
ATOM     18  C   UNL     1      -1.562  12.838  20.857  0.00  0.00    +0.000 A 
ATOM     19  C   UNL     1      -1.723  13.306  22.151  0.00  0.00    +0.000 A 
ATOM     20 CL   UNL     1      -2.301  14.897  22.432  0.00  0.00    +0.000 Cl
ATOM     21  C   UNL     1      -1.408  12.457  23.197  0.00  0.00    +0.000 A 
ATOM     22  N   UNL     1      -0.931  11.192  23.042  0.00  0.00    +0.000 NA
ATOM     23  H   UNL     1      -0.020   9.054  22.502  0.00  0.00    +0.000 HD
ENDBRANCH  10  15
ENDBRANCH   5   7
BRANCH   1  24
ATOM     24  S   UNL     1       6.585   5.469  16.273  0.00  0.00    +0.000 S 
ATOM     25  O   UNL     1       6.285   5.484  14.860  0.00  0.00    +0.000 OA
ATOM     26  O   UNL     1       7.702   4.732  16.811  0.00  0.00    +0.000 OA
BRANCH  24  28
ATOM     27  C   UNL     1       7.748   7.448  17.704  0.00  0.00    +0.000 C 
ATOM     28  N   UNL     1       6.723   7.082  16.735  0.00  0.00    +0.000 NA
ATOM     29  H   UNL     1       6.521   7.728  15.973  0.00  0.00    +0.000 HD
ENDBRANCH  24  28
ENDBRANCH   1  24
BRANCH   4  30
ATOM     30  O   UNL     1       1.577   3.936  19.061  0.00  0.00    +0.000 OA
BRANCH  30  31
ATOM     31  C   UNL     1       1.636   2.905  20.044  0.00  0.00    +0.000 C 
ATOM     32  F   UNL     1       0.757   3.049  21.062  0.00  0.00    +0.000 F 
ATOM     33  F   UNL     1       1.398   1.717  19.442  0.00  0.00    +0.000 F 
ATOM     34  F   UNL     1       2.875   2.857  20.580  0.00  0.00    +0.000 F 
ENDBRANCH  30  31
ENDBRANCH   4  30
TORSDOF 6
ENDMDL
MODEL 3
REMARK VINA RESULT:      -8.9      2.323      2.695
REMARK  Name = 
REMARK  7 active torsions:
REMARK  status: ('A' for Active; 'I' for Inactive)
REMARK    1  A    between atoms: C_1  and  N_2
REMARK    2  A    between atoms: N_2  and  S_3
REMARK    3  A    between atoms: S_3  and  C_6
REMARK    4  A    between atoms: C_9  and  O_10
REMARK    5  A    between atoms: O_10  and  C_11
REMARK    6  A    between atoms: C_15  and  N_16
REMARK    7  A    between atoms: C_19  and  N_20
REMARK                            x       y       z     vdW  Elec       q    Type
REMARK                         _______ _______ _______ _____ _____    ______ ____
ROOT
ATOM      1  C   UNL     1       5.410   4.959  17.264  0.00  0.00    +0.000 A 
ATOM      2  C   UNL     1       4.743   3.850  16.756  0.00  0.00    +0.000 A 
ATOM      3  C   UNL     1       3.421   3.621  17.129  0.00  0.00    +0.000 A 
ATOM      4  C   UNL     1       2.737   4.532  17.948  0.00  0.00    +0.000 A 
ATOM      5  C   UNL     1       3.428   5.639  18.501  0.00  0.00    +0.000 A 
ATOM      6  C   UNL     1       4.786   5.807  18.185  0.00  0.00    +0.000 A 
ENDROOT
BRANCH   5   7
ATOM      7  N   UNL     1       2.897   6.516  19.497  0.00  0.00    +0.000 N 
ATOM      8  C   UNL     1       2.230   7.743  19.246  0.00  0.00    +0.000 A 
ATOM      9  C   UNL     1       1.358   8.245  20.202  0.00  0.00    +0.000 A 
ATOM     10  C   UNL     1       0.634   9.375  19.867  0.00  0.00    +0.000 A 
ATOM     11  N   UNL     1       0.849  10.028  18.716  0.00  0.00    +0.000 NA
ATOM     12  C   UNL     1       1.792   9.537  17.910  0.00  0.00    +0.000 A 
ATOM     13  N   UNL     1       2.497   8.423  18.119  0.00  0.00    +0.000 NA
ATOM     14  H   UNL     1       2.330   5.949  20.124  0.00  0.00    +0.000 HD
BRANCH  10  15
ATOM     15  N   UNL     1      -0.400   9.807  20.722  0.00  0.00    +0.000 N 
ATOM     16  C   UNL     1      -0.503  11.099  21.264  0.00  0.00    +0.000 A 
ATOM     17  C   UNL     1      -0.175  12.219  20.495  0.00  0.00    +0.000 A 
ATOM     18  C   UNL     1      -0.277  13.497  21.041  0.00  0.00    +0.000 A 
ATOM     19  C   UNL     1      -0.727  13.626  22.345  0.00  0.00    +0.000 A 
ATOM     20 CL   UNL     1      -0.850  15.175  23.072  0.00  0.00    +0.000 Cl
ATOM     21  C   UNL     1      -1.073  12.476  23.033  0.00  0.00    +0.000 A 
ATOM     22  N   UNL     1      -0.984  11.218  22.521  0.00  0.00    +0.000 NA
ATOM     23  H   UNL     1      -0.644   9.125  21.429  0.00  0.00    +0.000 HD
ENDBRANCH  10  15
ENDBRANCH   5   7
BRANCH   1  24
ATOM     24  S   UNL     1       7.083   5.279  16.765  0.00  0.00    +0.000 S 
ATOM     25  O   UNL     1       7.280   6.710  16.747  0.00  0.00    +0.000 OA
ATOM     26  O   UNL     1       7.384   4.450  15.624  0.00  0.00    +0.000 OA
BRANCH  24  28
ATOM     27  C   UNL     1       8.068   5.566  19.268  0.00  0.00    +0.000 C 
ATOM     28  N   UNL     1       7.945   4.710  18.095  0.00  0.00    +0.000 NA
ATOM     29  H   UNL     1       7.835   3.706  18.236  0.00  0.00    +0.000 HD
ENDBRANCH  24  28
ENDBRANCH   1  24
BRANCH   4  30
ATOM     30  O   UNL     1       1.430   4.337  18.302  0.00  0.00    +0.000 OA
BRANCH  30  31
ATOM     31  C   UNL     1       1.163   3.455  19.390  0.00  0.00    +0.000 C 
ATOM     32  F   UNL     1       2.264   2.893  19.941  0.00  0.00    +0.000 F 
ATOM     33  F   UNL     1       0.510   4.143  20.354  0.00  0.00    +0.000 F 
ATOM     34  F   UNL     1       0.357   2.452  18.977  0.00  0.00    +0.000 F 
ENDBRANCH  30  31
ENDBRANCH   4  30
TORSDOF 6
ENDMDL
MODEL 4
REMARK VINA RESULT:      -8.9      1.996      2.272
REMARK  Name = 
REMARK  7 active torsions:
REMARK  status: ('A' for Active; 'I' for Inactive)
REMARK    1  A    between atoms: C_1  and  N_2
REMARK    2  A    between atoms: N_2  and  S_3
REMARK    3  A    between atoms: S_3  and  C_6
REMARK    4  A    between atoms: C_9  and  O_10
REMARK    5  A    between atoms: O_10  and  C_11
REMARK    6  A    between atoms: C_15  and  N_16
REMARK    7  A    between atoms: C_19  and  N_20
REMARK                            x       y       z     vdW  Elec       q    Type
REMARK                         _______ _______ _______ _____ _____    ______ ____
ROOT
ATOM      1  C   UNL     1       5.133   5.110  17.090  0.00  0.00    +0.000 A 
ATOM      2  C   UNL     1       4.417   4.015  16.618  0.00  0.00    +0.000 A 
ATOM      3  C   UNL     1       3.163   3.737  17.155  0.00  0.00    +0.000 A 
ATOM      4  C   UNL     1       2.586   4.589  18.110  0.00  0.00    +0.000 A 
ATOM      5  C   UNL     1       3.331   5.680  18.624  0.00  0.00    +0.000 A 
ATOM      6  C   UNL     1       4.629   5.893  18.133  0.00  0.00    +0.000 A 
ENDROOT
BRANCH   5   7
ATOM      7  N   UNL     1       2.930   6.490  19.730  0.00  0.00    +0.000 N 
ATOM      8  C   UNL     1       2.188   7.696  19.644  0.00  0.00    +0.000 A 
ATOM      9  C   UNL     1       1.458   8.119  20.746  0.00  0.00    +0.000 A 
ATOM     10  C   UNL     1       0.648   9.229  20.582  0.00  0.00    +0.000 A 
ATOM     11  N   UNL     1       0.657   9.938  19.444  0.00  0.00    +0.000 NA
ATOM     12  C   UNL     1       1.479   9.522  18.480  0.00  0.00    +0.000 A 
ATOM     13  N   UNL     1       2.249   8.433  18.524  0.00  0.00    +0.000 NA
ATOM     14  H   UNL     1       2.491   5.874  20.410  0.00  0.00    +0.000 HD
BRANCH  10  15
ATOM     15  N   UNL     1      -0.254   9.579  21.606  0.00  0.00    +0.000 N 
ATOM     16  C   UNL     1      -0.789  10.864  21.797  0.00  0.00    +0.000 A 
ATOM     17  C   UNL     1      -1.161  11.647  20.701  0.00  0.00    +0.000 A 
ATOM     18  C   UNL     1      -1.689  12.921  20.898  0.00  0.00    +0.000 A 
ATOM     19  C   UNL     1      -1.852  13.377  22.196  0.00  0.00    +0.000 A 
ATOM     20 CL   UNL     1      -2.476  14.947  22.493  0.00  0.00    +0.000 Cl
ATOM     21  C   UNL     1      -1.499  12.532  23.233  0.00  0.00    +0.000 A 
ATOM     22  N   UNL     1      -0.984  11.284  23.066  0.00  0.00    +0.000 NA
ATOM     23  H   UNL     1      -0.013   9.178  22.505  0.00  0.00    +0.000 HD
ENDBRANCH  10  15
ENDBRANCH   5   7
BRANCH   1  24
ATOM     24  S   UNL     1       6.716   5.492  16.384  0.00  0.00    +0.000 S 
ATOM     25  O   UNL     1       7.598   4.374  16.628  0.00  0.00    +0.000 OA
ATOM     26  O   UNL     1       7.067   6.840  16.757  0.00  0.00    +0.000 OA
BRANCH  24  28
ATOM     27  C   UNL     1       7.307   4.801  13.837  0.00  0.00    +0.000 C 
ATOM     28  N   UNL     1       6.366   5.456  14.738  0.00  0.00    +0.000 NA
ATOM     29  H   UNL     1       5.369   5.365  14.549  0.00  0.00    +0.000 HD
ENDBRANCH  24  28
ENDBRANCH   1  24
BRANCH   4  30
ATOM     30  O   UNL     1       1.344   4.346  18.628  0.00  0.00    +0.000 OA
BRANCH  30  31
ATOM     31  C   UNL     1       1.229   3.337  19.628  0.00  0.00    +0.000 C 
ATOM     32  F   UNL     1       2.399   2.754  19.976  0.00  0.00    +0.000 F 
ATOM     33  F   UNL     1       0.682   3.886  20.737  0.00  0.00    +0.000 F 
ATOM     34  F   UNL     1       0.400   2.360  19.197  0.00  0.00    +0.000 F 
ENDBRANCH  30  31
ENDBRANCH   4  30
TORSDOF 6
ENDMDL
MODEL 5
REMARK VINA RESULT:      -8.7      1.304      1.538
REMARK  Name = 
REMARK  7 active torsions:
REMARK  status: ('A' for Active; 'I' for Inactive)
REMARK    1  A    between atoms: C_1  and  N_2
REMARK    2  A    between atoms: N_2  and  S_3
REMARK    3  A    between atoms: S_3  and  C_6
REMARK    4  A    between atoms: C_9  and  O_10
REMARK    5  A    between atoms: O_10  and  C_11
REMARK    6  A    between atoms: C_15  and  N_16
REMARK    7  A    between atoms: C_19  and  N_20
REMARK                            x       y       z     vdW  Elec       q    Type
REMARK                         _______ _______ _______ _____ _____    ______ ____
ROOT
ATOM      1  C   UNL     1       4.859   4.712  17.572  0.00  0.00    +0.000 A 
ATOM      2  C   UNL     1       4.839   3.401  18.035  0.00  0.00    +0.000 A 
ATOM      3  C   UNL     1       4.093   3.091  19.169  0.00  0.00    +0.000 A 
ATOM      4  C   UNL     1       3.308   4.067  19.803  0.00  0.00    +0.000 A 
ATOM      5  C   UNL     1       3.362   5.412  19.359  0.00  0.00    +0.000 A 
ATOM      6  C   UNL     1       4.187   5.724  18.266  0.00  0.00    +0.000 A 
ENDROOT
BRANCH   5   7
ATOM      7  N   UNL     1       2.768   6.518  20.040  0.00  0.00    +0.000 N 
ATOM      8  C   UNL     1       2.276   7.699  19.425  0.00  0.00    +0.000 A 
ATOM      9  C   UNL     1       1.316   8.454  20.085  0.00  0.00    +0.000 A 
ATOM     10  C   UNL     1       0.771   9.525  19.400  0.00  0.00    +0.000 A 
ATOM     11  N   UNL     1       1.233   9.892  18.196  0.00  0.00    +0.000 NA
ATOM     12  C   UNL     1       2.239   9.176  17.691  0.00  0.00    +0.000 A 
ATOM     13  N   UNL     1       2.787   8.094  18.249  0.00  0.00    +0.000 NA
ATOM     14  H   UNL     1       2.054   6.141  20.659  0.00  0.00    +0.000 HD
BRANCH  10  15
ATOM     15  N   UNL     1      -0.338  10.198  19.948  0.00  0.00    +0.000 N 
ATOM     16  C   UNL     1      -1.471  10.599  19.219  0.00  0.00    +0.000 A 
ATOM     17  C   UNL     1      -2.001   9.776  18.223  0.00  0.00    +0.000 A 
ATOM     18  C   UNL     1      -3.124  10.182  17.504  0.00  0.00    +0.000 A 
ATOM     19  C   UNL     1      -3.704  11.401  17.814  0.00  0.00    +0.000 A 
ATOM     20 CL   UNL     1      -5.074  11.957  16.943  0.00  0.00    +0.000 Cl
ATOM     21  C   UNL     1      -3.149  12.146  18.840  0.00  0.00    +0.000 A 
ATOM     22  N   UNL     1      -2.056  11.769  19.558  0.00  0.00    +0.000 NA
ATOM     23  H   UNL     1      -0.079  10.931  20.597  0.00  0.00    +0.000 HD
ENDBRANCH  10  15
ENDBRANCH   5   7
BRANCH   1  24
ATOM     24  S   UNL     1       5.776   5.109  16.105  0.00  0.00    +0.000 S 
ATOM     25  O   UNL     1       5.824   6.547  15.982  0.00  0.00    +0.000 OA
ATOM     26  O   UNL     1       5.309   4.264  15.034  0.00  0.00    +0.000 OA
BRANCH  24  28
ATOM     27  C   UNL     1       7.773   4.854  17.911  0.00  0.00    +0.000 C 
ATOM     28  N   UNL     1       7.330   4.629  16.541  0.00  0.00    +0.000 NA
ATOM     29  H   UNL     1       7.626   3.776  16.068  0.00  0.00    +0.000 HD
ENDBRANCH  24  28
ENDBRANCH   1  24
BRANCH   4  30
ATOM     30  O   UNL     1       2.549   3.773  20.902  0.00  0.00    +0.000 OA
BRANCH  30  31
ATOM     31  C   UNL     1       1.228   3.284  20.683  0.00  0.00    +0.000 C 
ATOM     32  F   UNL     1       1.111   2.425  19.645  0.00  0.00    +0.000 F 
ATOM     33  F   UNL     1       0.808   2.655  21.804  0.00  0.00    +0.000 F 
ATOM     34  F   UNL     1       0.391   4.320  20.451  0.00  0.00    +0.000 F 
ENDBRANCH  30  31
ENDBRANCH   4  30
TORSDOF 6
ENDMDL
MODEL 6
REMARK VINA RESULT:      -8.7      2.781      3.370
REMARK  Name = 
REMARK  7 active torsions:
REMARK  status: ('A' for Active; 'I' for Inactive)
REMARK    1  A    between atoms: C_1  and  N_2
REMARK    2  A    between atoms: N_2  and  S_3
REMARK    3  A    between atoms: S_3  and  C_6
REMARK    4  A    between atoms: C_9  and  O_10
REMARK    5  A    between atoms: O_10  and  C_11
REMARK    6  A    between atoms: C_15  and  N_16
REMARK    7  A    between atoms: C_19  and  N_20
REMARK                            x       y       z     vdW  Elec       q    Type
REMARK                         _______ _______ _______ _____ _____    ______ ____
ROOT
ATOM      1  C   UNL     1       5.771   5.690  18.241  0.00  0.00    +0.000 A 
ATOM      2  C   UNL     1       5.567   4.539  18.993  0.00  0.00    +0.000 A 
ATOM      3  C   UNL     1       4.269   4.173  19.339  0.00  0.00    +0.000 A 
ATOM      4  C   UNL     1       3.167   4.908  18.876  0.00  0.00    +0.000 A 
ATOM      5  C   UNL     1       3.375   6.105  18.145  0.00  0.00    +0.000 A 
ATOM      6  C   UNL     1       4.694   6.507  17.881  0.00  0.00    +0.000 A 
ENDROOT
BRANCH   5   7
ATOM      7  N   UNL     1       2.347   7.034  17.796  0.00  0.00    +0.000 N 
ATOM      8  C   UNL     1       1.812   8.033  18.649  0.00  0.00    +0.000 A 
ATOM      9  C   UNL     1       1.206   9.148  18.087  0.00  0.00    +0.000 A 
ATOM     10  C   UNL     1       0.811  10.156  18.947  0.00  0.00    +0.000 A 
ATOM     11  N   UNL     1       0.900  10.015  20.277  0.00  0.00    +0.000 NA
ATOM     12  C   UNL     1       1.387   8.858  20.730  0.00  0.00    +0.000 A 
ATOM     13  N   UNL     1       1.848   7.855  19.979  0.00  0.00    +0.000 NA
ATOM     14  H   UNL     1       2.615   7.458  16.911  0.00  0.00    +0.000 HD
BRANCH  10  15
ATOM     15  N   UNL     1       0.373  11.384  18.412  0.00  0.00    +0.000 N 
ATOM     16  C   UNL     1       1.070  12.599  18.523  0.00  0.00    +0.000 A 
ATOM     17  C   UNL     1       2.462  12.631  18.413  0.00  0.00    +0.000 A 
ATOM     18  C   UNL     1       3.145  13.840  18.527  0.00  0.00    +0.000 A 
ATOM     19  C   UNL     1       2.412  14.999  18.728  0.00  0.00    +0.000 A 
ATOM     20 CL   UNL     1       3.207  16.510  18.896  0.00  0.00    +0.000 Cl
ATOM     21  C   UNL     1       1.034  14.897  18.785  0.00  0.00    +0.000 A 
ATOM     22  N   UNL     1       0.344  13.729  18.675  0.00  0.00    +0.000 NA
ATOM     23  H   UNL     1      -0.616  11.549  18.550  0.00  0.00    +0.000 HD
ENDBRANCH  10  15
ENDBRANCH   5   7
BRANCH   1  24
ATOM     24  S   UNL     1       7.420   6.144  17.764  0.00  0.00    +0.000 S 
ATOM     25  O   UNL     1       8.258   6.085  18.938  0.00  0.00    +0.000 OA
ATOM     26  O   UNL     1       7.345   7.320  16.933  0.00  0.00    +0.000 OA
BRANCH  24  28
ATOM     27  C   UNL     1       7.089   4.539  15.611  0.00  0.00    +0.000 C 
ATOM     28  N   UNL     1       7.866   4.830  16.810  0.00  0.00    +0.000 NA
ATOM     29  H   UNL     1       8.875   4.689  16.781  0.00  0.00    +0.000 HD
ENDBRANCH  24  28
ENDBRANCH   1  24
BRANCH   4  30
ATOM     30  O   UNL     1       1.884   4.547  19.184  0.00  0.00    +0.000 OA
BRANCH  30  31
ATOM     31  C   UNL     1       1.234   3.615  18.323  0.00  0.00    +0.000 C 
ATOM     32  F   UNL     1       0.251   2.896  18.912  0.00  0.00    +0.000 F 
ATOM     33  F   UNL     1       0.699   4.290  17.279  0.00  0.00    +0.000 F 
ATOM     34  F   UNL     1       2.139   2.741  17.830  0.00  0.00    +0.000 F 
ENDBRANCH  30  31
ENDBRANCH   4  30
TORSDOF 6
ENDMDL
MODEL 7
REMARK VINA RESULT:      -8.7      2.744      3.326
REMARK  Name = 
REMARK  7 active torsions:
REMARK  status: ('A' for Active; 'I' for Inactive)
REMARK    1  A    between atoms: C_1  and  N_2
REMARK    2  A    between atoms: N_2  and  S_3
REMARK    3  A    between atoms: S_3  and  C_6
REMARK    4  A    between atoms: C_9  and  O_10
REMARK    5  A    between atoms: O_10  and  C_11
REMARK    6  A    between atoms: C_15  and  N_16
REMARK    7  A    between atoms: C_19  and  N_20
REMARK                            x       y       z     vdW  Elec       q    Type
REMARK                         _______ _______ _______ _____ _____    ______ ____
ROOT
ATOM      1  C   UNL     1       5.716   5.557  17.548  0.00  0.00    +0.000 A 
ATOM      2  C   UNL     1       5.699   4.637  18.590  0.00  0.00    +0.000 A 
ATOM      3  C   UNL     1       4.545   4.497  19.357  0.00  0.00    +0.000 A 
ATOM      4  C   UNL     1       3.382   5.218  19.044  0.00  0.00    +0.000 A 
ATOM      5  C   UNL     1       3.411   6.187  18.010  0.00  0.00    +0.000 A 
ATOM      6  C   UNL     1       4.609   6.377  17.303  0.00  0.00    +0.000 A 
ENDROOT
BRANCH   5   7
ATOM      7  N   UNL     1       2.359   7.114  17.733  0.00  0.00    +0.000 N 
ATOM      8  C   UNL     1       1.868   8.098  18.630  0.00  0.00    +0.000 A 
ATOM      9  C   UNL     1       1.224   9.216  18.119  0.00  0.00    +0.000 A 
ATOM     10  C   UNL     1       0.874  10.210  19.014  0.00  0.00    +0.000 A 
ATOM     11  N   UNL     1       1.041  10.052  20.335  0.00  0.00    +0.000 NA
ATOM     12  C   UNL     1       1.561   8.893  20.743  0.00  0.00    +0.000 A 
ATOM     13  N   UNL     1       1.984   7.903  19.953  0.00  0.00    +0.000 NA
ATOM     14  H   UNL     1       2.572   7.551  16.840  0.00  0.00    +0.000 HD
BRANCH  10  15
ATOM     15  N   UNL     1       0.398  11.441  18.522  0.00  0.00    +0.000 N 
ATOM     16  C   UNL     1       1.123  12.645  18.541  0.00  0.00    +0.000 A 
ATOM     17  C   UNL     1       2.494  12.652  18.272  0.00  0.00    +0.000 A 
ATOM     18  C   UNL     1       3.206  13.849  18.296  0.00  0.00    +0.000 A 
ATOM     19  C   UNL     1       2.521  15.022  18.569  0.00  0.00    +0.000 A 
ATOM     20 CL   UNL     1       3.355  16.520  18.632  0.00  0.00    +0.000 Cl
ATOM     21  C   UNL     1       1.157  14.945  18.786  0.00  0.00    +0.000 A 
ATOM     22  N   UNL     1       0.439  13.789  18.766  0.00  0.00    +0.000 NA
ATOM     23  H   UNL     1      -0.566  11.626  18.772  0.00  0.00    +0.000 HD
ENDBRANCH  10  15
ENDBRANCH   5   7
BRANCH   1  24
ATOM     24  S   UNL     1       7.169   5.713  16.541  0.00  0.00    +0.000 S 
ATOM     25  O   UNL     1       7.989   4.543  16.753  0.00  0.00    +0.000 OA
ATOM     26  O   UNL     1       7.688   7.050  16.696  0.00  0.00    +0.000 OA
BRANCH  24  28
ATOM     27  C   UNL     1       6.382   4.218  14.430  0.00  0.00    +0.000 C 
ATOM     28  N   UNL     1       6.525   5.554  14.995  0.00  0.00    +0.000 NA
ATOM     29  H   UNL     1       5.802   6.245  14.795  0.00  0.00    +0.000 HD
ENDBRANCH  24  28
ENDBRANCH   1  24
BRANCH   4  30
ATOM     30  O   UNL     1       2.232   5.074  19.770  0.00  0.00    +0.000 OA
BRANCH  30  31
ATOM     31  C   UNL     1       1.403   3.951  19.481  0.00  0.00    +0.000 C 
ATOM     32  F   UNL     1       1.986   2.750  19.701  0.00  0.00    +0.000 F 
ATOM     33  F   UNL     1       0.289   4.027  20.244  0.00  0.00    +0.000 F 
ATOM     34  F   UNL     1       1.021   3.987  18.185  0.00  0.00    +0.000 F 
ENDBRANCH  30  31
ENDBRANCH   4  30
TORSDOF 6
ENDMDL
MODEL 8
REMARK VINA RESULT:      -8.7      0.970      1.000
REMARK  Name = 
REMARK  7 active torsions:
REMARK  status: ('A' for Active; 'I' for Inactive)
REMARK    1  A    between atoms: C_1  and  N_2
REMARK    2  A    between atoms: N_2  and  S_3
REMARK    3  A    between atoms: S_3  and  C_6
REMARK    4  A    between atoms: C_9  and  O_10
REMARK    5  A    between atoms: O_10  and  C_11
REMARK    6  A    between atoms: C_15  and  N_16
REMARK    7  A    between atoms: C_19  and  N_20
REMARK                            x       y       z     vdW  Elec       q    Type
REMARK                         _______ _______ _______ _____ _____    ______ ____
ROOT
ATOM      1  C   UNL     1       5.047   4.974  17.460  0.00  0.00    +0.000 A 
ATOM      2  C   UNL     1       4.690   3.632  17.535  0.00  0.00    +0.000 A 
ATOM      3  C   UNL     1       3.610   3.258  18.330  0.00  0.00    +0.000 A 
ATOM      4  C   UNL     1       2.838   4.224  18.994  0.00  0.00    +0.000 A 
ATOM      5  C   UNL     1       3.226   5.587  18.954  0.00  0.00    +0.000 A 
ATOM      6  C   UNL     1       4.370   5.935  18.217  0.00  0.00    +0.000 A 
ENDROOT
BRANCH   5   7
ATOM      7  N   UNL     1       2.641   6.624  19.743  0.00  0.00    +0.000 N 
ATOM      8  C   UNL     1       2.182   7.874  19.255  0.00  0.00    +0.000 A 
ATOM      9  C   UNL     1       1.225   8.572  19.979  0.00  0.00    +0.000 A 
ATOM     10  C   UNL     1       0.711   9.721  19.407  0.00  0.00    +0.000 A 
ATOM     11  N   UNL     1       1.201  10.209  18.258  0.00  0.00    +0.000 NA
ATOM     12  C   UNL     1       2.202   9.533  17.693  0.00  0.00    +0.000 A 
ATOM     13  N   UNL     1       2.720   8.385  18.136  0.00  0.00    +0.000 NA
ATOM     14  H   UNL     1       1.910   6.195  20.307  0.00  0.00    +0.000 HD
BRANCH  10  15
ATOM     15  N   UNL     1      -0.394  10.353  20.009  0.00  0.00    +0.000 N 
ATOM     16  C   UNL     1      -1.562  10.740  19.330  0.00  0.00    +0.000 A 
ATOM     17  C   UNL     1      -2.107   9.925  18.334  0.00  0.00    +0.000 A 
ATOM     18  C   UNL     1      -3.264  10.317  17.664  0.00  0.00    +0.000 A 
ATOM     19  C   UNL     1      -3.864  11.513  18.023  0.00  0.00    +0.000 A 
ATOM     20 CL   UNL     1      -5.278  12.052  17.214  0.00  0.00    +0.000 Cl
ATOM     21  C   UNL     1      -3.293  12.249  19.046  0.00  0.00    +0.000 A 
ATOM     22  N   UNL     1      -2.165  11.887  19.716  0.00  0.00    +0.000 NA
ATOM     23  H   UNL     1      -0.132  11.078  20.666  0.00  0.00    +0.000 HD
ENDBRANCH  10  15
ENDBRANCH   5   7
BRANCH   1  24
ATOM     24  S   UNL     1       6.399   5.464  16.419  0.00  0.00    +0.000 S 
ATOM     25  O   UNL     1       7.483   4.531  16.623  0.00  0.00    +0.000 OA
ATOM     26  O   UNL     1       6.579   6.888  16.547  0.00  0.00    +0.000 OA
BRANCH  24  28
ATOM     27  C   UNL     1       6.472   4.152  14.054  0.00  0.00    +0.000 C 
ATOM     28  N   UNL     1       5.782   5.128  14.889  0.00  0.00    +0.000 NA
ATOM     29  H   UNL     1       4.764   5.159  14.859  0.00  0.00    +0.000 HD
ENDBRANCH  24  28
ENDBRANCH   1  24
BRANCH   4  30
ATOM     30  O   UNL     1       1.758   3.877  19.757  0.00  0.00    +0.000 OA
BRANCH  30  31
ATOM     31  C   UNL     1       2.008   3.342  21.055  0.00  0.00    +0.000 C 
ATOM     32  F   UNL     1       2.992   2.414  21.101  0.00  0.00    +0.000 F 
ATOM     33  F   UNL     1       2.343   4.357  21.884  0.00  0.00    +0.000 F 
ATOM     34  F   UNL     1       0.883   2.768  21.536  0.00  0.00    +0.000 F 
ENDBRANCH  30  31
ENDBRANCH   4  30
TORSDOF 6
ENDMDL
MODEL 9
REMARK VINA RESULT:      -8.7      2.804      3.402
REMARK  Name = 
REMARK  7 active torsions:
REMARK  status: ('A' for Active; 'I' for Inactive)
REMARK    1  A    between atoms: C_1  and  N_2
REMARK    2  A    between atoms: N_2  and  S_3
REMARK    3  A    between atoms: S_3  and  C_6
REMARK    4  A    between atoms: C_9  and  O_10
REMARK    5  A    between atoms: O_10  and  C_11
REMARK    6  A    between atoms: C_15  and  N_16
REMARK    7  A    between atoms: C_19  and  N_20
REMARK                            x       y       z     vdW  Elec       q    Type
REMARK                         _______ _______ _______ _____ _____    ______ ____
ROOT
ATOM      1  C   UNL     1       5.618   5.712  18.201  0.00  0.00    +0.000 A 
ATOM      2  C   UNL     1       5.400   4.529  18.899  0.00  0.00    +0.000 A 
ATOM      3  C   UNL     1       4.098   4.160  19.224  0.00  0.00    +0.000 A 
ATOM      4  C   UNL     1       3.004   4.927  18.793  0.00  0.00    +0.000 A 
ATOM      5  C   UNL     1       3.226   6.154  18.120  0.00  0.00    +0.000 A 
ATOM      6  C   UNL     1       4.550   6.555  17.877  0.00  0.00    +0.000 A 
ENDROOT
BRANCH   5   7
ATOM      7  N   UNL     1       2.209   7.109  17.811  0.00  0.00    +0.000 N 
ATOM      8  C   UNL     1       1.750   8.135  18.677  0.00  0.00    +0.000 A 
ATOM      9  C   UNL     1       1.148   9.260  18.130  0.00  0.00    +0.000 A 
ATOM     10  C   UNL     1       0.830  10.292  18.995  0.00  0.00    +0.000 A 
ATOM     11  N   UNL     1       0.986  10.166  20.321  0.00  0.00    +0.000 NA
ATOM     12  C   UNL     1       1.463   9.002  20.765  0.00  0.00    +0.000 A 
ATOM     13  N   UNL     1       1.853   7.976  20.006  0.00  0.00    +0.000 NA
ATOM     14  H   UNL     1       2.441   7.512  16.907  0.00  0.00    +0.000 HD
BRANCH  10  15
ATOM     15  N   UNL     1       0.399  11.524  18.465  0.00  0.00    +0.000 N 
ATOM     16  C   UNL     1       1.133  12.722  18.527  0.00  0.00    +0.000 A 
ATOM     17  C   UNL     1       2.519  12.714  18.351  0.00  0.00    +0.000 A 
ATOM     18  C   UNL     1       3.239  13.905  18.415  0.00  0.00    +0.000 A 
ATOM     19  C   UNL     1       2.548  15.086  18.636  0.00  0.00    +0.000 A 
ATOM     20 CL   UNL     1       3.390  16.577  18.746  0.00  0.00    +0.000 Cl
ATOM     21  C   UNL     1       1.172  15.023  18.760  0.00  0.00    +0.000 A 
ATOM     22  N   UNL     1       0.447  13.873  18.698  0.00  0.00    +0.000 NA
ATOM     23  H   UNL     1      -0.577  11.719  18.649  0.00  0.00    +0.000 HD
ENDBRANCH  10  15
ENDBRANCH   5   7
BRANCH   1  24
ATOM     24  S   UNL     1       7.272   6.171  17.750  0.00  0.00    +0.000 S 
ATOM     25  O   UNL     1       8.092   6.120  18.938  0.00  0.00    +0.000 OA
ATOM     26  O   UNL     1       7.207   7.344  16.914  0.00  0.00    +0.000 OA
BRANCH  24  28
ATOM     27  C   UNL     1       7.002   4.575  15.583  0.00  0.00    +0.000 C 
ATOM     28  N   UNL     1       7.739   4.856  16.808  0.00  0.00    +0.000 NA
ATOM     29  H   UNL     1       8.748   4.705  16.814  0.00  0.00    +0.000 HD
ENDBRANCH  24  28
ENDBRANCH   1  24
BRANCH   4  30
ATOM     30  O   UNL     1       1.717   4.565  19.080  0.00  0.00    +0.000 OA
BRANCH  30  31
ATOM     31  C   UNL     1       1.328   4.534  20.452  0.00  0.00    +0.000 C 
ATOM     32  F   UNL     1       0.986   3.309  20.911  0.00  0.00    +0.000 F 
ATOM     33  F   UNL     1       2.353   4.998  21.203  0.00  0.00    +0.000 F 
ATOM     34  F   UNL     1       0.269   5.351  20.644  0.00  0.00    +0.000 F 
ENDBRANCH  30  31
ENDBRANCH   4  30
TORSDOF 6
ENDMDL
