MODEL 1
REMARK VINA RESULT:      -7.6      0.000      0.000
REMARK  Name = 
REMARK  6 active torsions:
REMARK  status: ('A' for Active; 'I' for Inactive)
REMARK    1  A    between atoms: C_1  and  N_2
REMARK    2  A    between atoms: N_2  and  C_3
REMARK    3  A    between atoms: C_3  and  C_4
REMARK    4  A    between atoms: C_13  and  C_15
REMARK    5  A    between atoms: C_15  and  N_16
REMARK    6  A    between atoms: N_16  and  C_17
REMARK                            x       y       z     vdW  Elec       q    Type
REMARK                         _______ _______ _______ _____ _____    ______ ____
ROOT
ATOM      1  C   UNL     1       3.009   3.410  18.236  0.00  0.00    +0.000 C 
ATOM      2  N   UNL     1       3.655   4.366  19.129  0.00  0.00    +0.000 N 
ATOM      3  C   UNL     1       4.992   4.734  19.019  0.00  0.00    +0.000 C 
ATOM      4  O   UNL     1       5.513   5.512  19.828  0.00  0.00    +0.000 OA
ENDROOT
BRANCH   2   5
ATOM      5  C   UNL     1       2.843   4.921  20.217  0.00  0.00    +0.000 C 
BRANCH   5   6
ATOM      6  C   UNL     1       2.386   6.309  19.894  0.00  0.00    +0.000 A 
ATOM      7  N   UNL     1       2.525   6.937  18.741  0.00  0.00    +0.000 NA
ATOM      8  C   UNL     1       1.963   8.178  18.920  0.00  0.00    +0.000 A 
ATOM      9  C   UNL     1       1.842   9.247  18.020  0.00  0.00    +0.000 A 
ATOM     10  C   UNL     1       1.244  10.435  18.462  0.00  0.00    +0.000 A 
ATOM     11  C   UNL     1       0.769  10.549  19.770  0.00  0.00    +0.000 A 
ATOM     12  C   UNL     1       0.864   9.485  20.677  0.00  0.00    +0.000 A 
ATOM     13  C   UNL     1       1.470   8.314  20.212  0.00  0.00    +0.000 A 
ATOM     14  N   UNL     1       1.730   7.104  20.804  0.00  0.00    +0.000 N 
ATOM     15  H   UNL     1       1.492   6.842  21.750  0.00  0.00    +0.000 HD
ENDBRANCH   5   6
ENDBRANCH   2   5
BRANCH   3  16
ATOM     16  C   UNL     1       5.803   4.188  17.827  0.00  0.00    +0.000 C 
BRANCH  16  17
ATOM     17  N   UNL     1       6.403   5.202  16.941  0.00  0.00    +0.000 N 
ATOM     18  C   UNL     1       7.386   6.149  17.460  0.00  0.00    +0.000 C 
ATOM     19  C   UNL     1       6.586   4.870  15.592  0.00  0.00    +0.000 A 
ATOM     20  C   UNL     1       5.754   3.956  14.935  0.00  0.00    +0.000 A 
ATOM     21  C   UNL     1       5.928   3.678  13.574  0.00  0.00    +0.000 A 
ATOM     22  C   UNL     1       6.934   4.322  12.879  0.00  0.00    +0.000 A 
ATOM     23 CL   UNL     1       7.173   4.036  11.205  0.00  0.00    +0.000 Cl
ATOM     24  C   UNL     1       7.729   5.208  13.578  0.00  0.00    +0.000 A 
ATOM     25  N   UNL     1       7.573   5.485  14.897  0.00  0.00    +0.000 NA
ENDBRANCH  16  17
ENDBRANCH   3  16
TORSDOF 4
ENDMDL
MODEL 2
REMARK VINA RESULT:      -7.6      3.649      7.967
REMARK  Name = 
REMARK  6 active torsions:
REMARK  status: ('A' for Active; 'I' for Inactive)
REMARK    1  A    between atoms: C_1  and  N_2
REMARK    2  A    between atoms: N_2  and  C_3
REMARK    3  A    between atoms: C_3  and  C_4
REMARK    4  A    between atoms: C_13  and  C_15
REMARK    5  A    between atoms: C_15  and  N_16
REMARK    6  A    between atoms: N_16  and  C_17
REMARK                            x       y       z     vdW  Elec       q    Type
REMARK                         _______ _______ _______ _____ _____    ______ ____
ROOT
ATOM      1  C   UNL     1       0.900   3.622  19.454  0.00  0.00    +0.000 C 
ATOM      2  N   UNL     1       2.316   3.962  19.556  0.00  0.00    +0.000 N 
ATOM      3  C   UNL     1       2.776   5.205  19.979  0.00  0.00    +0.000 C 
ATOM      4  O   UNL     1       3.984   5.468  20.004  0.00  0.00    +0.000 OA
ENDROOT
BRANCH   2   5
ATOM      5  C   UNL     1       3.282   2.939  19.144  0.00  0.00    +0.000 C 
BRANCH   5   6
ATOM      6  C   UNL     1       4.165   3.443  18.046  0.00  0.00    +0.000 A 
ATOM      7  N   UNL     1       3.828   3.621  16.782  0.00  0.00    +0.000 NA
ATOM      8  C   UNL     1       4.958   4.089  16.155  0.00  0.00    +0.000 A 
ATOM      9  C   UNL     1       5.161   4.436  14.811  0.00  0.00    +0.000 A 
ATOM     10  C   UNL     1       6.433   4.866  14.412  0.00  0.00    +0.000 A 
ATOM     11  C   UNL     1       7.478   4.955  15.334  0.00  0.00    +0.000 A 
ATOM     12  C   UNL     1       7.289   4.630  16.684  0.00  0.00    +0.000 A 
ATOM     13  C   UNL     1       6.012   4.199  17.055  0.00  0.00    +0.000 A 
ATOM     14  N   UNL     1       5.476   3.805  18.255  0.00  0.00    +0.000 N 
ATOM     15  H   UNL     1       5.960   3.775  19.141  0.00  0.00    +0.000 HD
ENDBRANCH   5   6
ENDBRANCH   2   5
BRANCH   3  16
ATOM     16  C   UNL     1       1.741   6.237  20.469  0.00  0.00    +0.000 C 
BRANCH  16  17
ATOM     17  N   UNL     1       1.944   7.620  20.000  0.00  0.00    +0.000 N 
ATOM     18  C   UNL     1       2.228   7.890  18.593  0.00  0.00    +0.000 C 
ATOM     19  C   UNL     1       1.237   8.643  20.647  0.00  0.00    +0.000 A 
ATOM     20  C   UNL     1       0.854   8.544  21.990  0.00  0.00    +0.000 A 
ATOM     21  C   UNL     1       0.191   9.600  22.626  0.00  0.00    +0.000 A 
ATOM     22  C   UNL     1      -0.080  10.751  21.912  0.00  0.00    +0.000 A 
ATOM     23 CL   UNL     1      -0.867  12.084  22.652  0.00  0.00    +0.000 Cl
ATOM     24  C   UNL     1       0.314  10.792  20.590  0.00  0.00    +0.000 A 
ATOM     25  N   UNL     1       0.955   9.775  19.960  0.00  0.00    +0.000 NA
ENDBRANCH  16  17
ENDBRANCH   3  16
TORSDOF 4
ENDMDL
MODEL 3
REMARK VINA RESULT:      -7.5      3.968      8.477
REMARK  Name = 
REMARK  6 active torsions:
REMARK  status: ('A' for Active; 'I' for Inactive)
REMARK    1  A    between atoms: C_1  and  N_2
REMARK    2  A    between atoms: N_2  and  C_3
REMARK    3  A    between atoms: C_3  and  C_4
REMARK    4  A    between atoms: C_13  and  C_15
REMARK    5  A    between atoms: C_15  and  N_16
REMARK    6  A    between atoms: N_16  and  C_17
REMARK                            x       y       z     vdW  Elec       q    Type
REMARK                         _______ _______ _______ _____ _____    ______ ____
ROOT
ATOM      1  C   UNL     1       2.371   8.175  17.930  0.00  0.00    +0.000 C 
ATOM      2  N   UNL     1       2.039   7.711  19.273  0.00  0.00    +0.000 N 
ATOM      3  C   UNL     1       1.516   8.538  20.262  0.00  0.00    +0.000 C 
ATOM      4  O   UNL     1       1.295   8.116  21.404  0.00  0.00    +0.000 OA
ENDROOT
BRANCH   2   5
ATOM      5  C   UNL     1       2.321   6.306  19.586  0.00  0.00    +0.000 C 
BRANCH   5   6
ATOM      6  C   UNL     1       3.515   5.815  18.829  0.00  0.00    +0.000 A 
ATOM      7  N   UNL     1       4.769   5.827  19.240  0.00  0.00    +0.000 NA
ATOM      8  C   UNL     1       5.505   5.286  18.215  0.00  0.00    +0.000 A 
ATOM      9  C   UNL     1       6.888   5.067  18.119  0.00  0.00    +0.000 A 
ATOM     10  C   UNL     1       7.402   4.518  16.937  0.00  0.00    +0.000 A 
ATOM     11  C   UNL     1       6.555   4.186  15.877  0.00  0.00    +0.000 A 
ATOM     12  C   UNL     1       5.170   4.380  15.962  0.00  0.00    +0.000 A 
ATOM     13  C   UNL     1       4.684   4.934  17.150  0.00  0.00    +0.000 A 
ATOM     14  N   UNL     1       3.420   5.259  17.575  0.00  0.00    +0.000 N 
ATOM     15  H   UNL     1       2.565   5.124  17.055  0.00  0.00    +0.000 HD
ENDBRANCH   5   6
ENDBRANCH   2   5
BRANCH   3  16
ATOM     16  C   UNL     1       1.168   9.992  19.886  0.00  0.00    +0.000 C 
BRANCH  16  17
ATOM     17  N   UNL     1      -0.172  10.455  20.290  0.00  0.00    +0.000 N 
ATOM     18  C   UNL     1      -0.338  11.302  21.468  0.00  0.00    +0.000 C 
ATOM     19  C   UNL     1      -1.119  10.686  19.283  0.00  0.00    +0.000 A 
ATOM     20  C   UNL     1      -1.096   9.985  18.071  0.00  0.00    +0.000 A 
ATOM     21  C   UNL     1      -2.082  10.199  17.100  0.00  0.00    +0.000 A 
ATOM     22  C   UNL     1      -3.087  11.113  17.353  0.00  0.00    +0.000 A 
ATOM     23 CL   UNL     1      -4.332  11.394  16.208  0.00  0.00    +0.000 Cl
ATOM     24  C   UNL     1      -3.057  11.780  18.561  0.00  0.00    +0.000 A 
ATOM     25  N   UNL     1      -2.106  11.584  19.509  0.00  0.00    +0.000 NA
ENDBRANCH  16  17
ENDBRANCH   3  16
TORSDOF 4
ENDMDL
MODEL 4
REMARK VINA RESULT:      -7.3      4.103      8.606
REMARK  Name = 
REMARK  6 active torsions:
REMARK  status: ('A' for Active; 'I' for Inactive)
REMARK    1  A    between atoms: C_1  and  N_2
REMARK    2  A    between atoms: N_2  and  C_3
REMARK    3  A    between atoms: C_3  and  C_4
REMARK    4  A    between atoms: C_13  and  C_15
REMARK    5  A    between atoms: C_15  and  N_16
REMARK    6  A    between atoms: N_16  and  C_17
REMARK                            x       y       z     vdW  Elec       q    Type
REMARK                         _______ _______ _______ _____ _____    ______ ____
ROOT
ATOM      1  C   UNL     1       2.580   8.221  17.874  0.00  0.00    +0.000 C 
ATOM      2  N   UNL     1       2.156   7.748  19.187  0.00  0.00    +0.000 N 
ATOM      3  C   UNL     1       1.494   8.550  20.113  0.00  0.00    +0.000 C 
ATOM      4  O   UNL     1       1.195   8.124  21.235  0.00  0.00    +0.000 OA
ENDROOT
BRANCH   2   5
ATOM      5  C   UNL     1       2.493   6.367  19.544  0.00  0.00    +0.000 C 
BRANCH   5   6
ATOM      6  C   UNL     1       3.596   5.841  18.681  0.00  0.00    +0.000 A 
ATOM      7  N   UNL     1       3.471   5.305  17.481  0.00  0.00    +0.000 NA
ATOM      8  C   UNL     1       4.743   4.968  17.086  0.00  0.00    +0.000 A 
ATOM      9  C   UNL     1       5.186   4.364  15.900  0.00  0.00    +0.000 A 
ATOM     10  C   UNL     1       6.553   4.097  15.750  0.00  0.00    +0.000 A 
ATOM     11  C   UNL     1       7.460   4.434  16.757  0.00  0.00    +0.000 A 
ATOM     12  C   UNL     1       7.039   5.055  17.940  0.00  0.00    +0.000 A 
ATOM     13  C   UNL     1       5.670   5.305  18.067  0.00  0.00    +0.000 A 
ATOM     14  N   UNL     1       4.918   5.880  19.060  0.00  0.00    +0.000 N 
ATOM     15  H   UNL     1       5.269   6.258  19.928  0.00  0.00    +0.000 HD
ENDBRANCH   5   6
ENDBRANCH   2   5
BRANCH   3  16
ATOM     16  C   UNL     1       1.093   9.976  19.686  0.00  0.00    +0.000 C 
BRANCH  16  17
ATOM     17  N   UNL     1      -0.174  10.480  20.246  0.00  0.00    +0.000 N 
ATOM     18  C   UNL     1      -0.176  11.295  21.457  0.00  0.00    +0.000 C 
ATOM     19  C   UNL     1      -1.213  10.781  19.354  0.00  0.00    +0.000 A 
ATOM     20  C   UNL     1      -1.351  10.118  18.128  0.00  0.00    +0.000 A 
ATOM     21  C   UNL     1      -2.425  10.403  17.277  0.00  0.00    +0.000 A 
ATOM     22  C   UNL     1      -3.356  11.348  17.661  0.00  0.00    +0.000 A 
ATOM     23 CL   UNL     1      -4.704  11.716  16.666  0.00  0.00    +0.000 Cl
ATOM     24  C   UNL     1      -3.167  11.975  18.876  0.00  0.00    +0.000 A 
ATOM     25  N   UNL     1      -2.130  11.711  19.711  0.00  0.00    +0.000 NA
ENDBRANCH  16  17
ENDBRANCH   3  16
TORSDOF 4
ENDMDL
MODEL 5
REMARK VINA RESULT:      -7.3      0.307      1.223
REMARK  Name = 
REMARK  6 active torsions:
REMARK  status: ('A' for Active; 'I' for Inactive)
REMARK    1  A    between atoms: C_1  and  N_2
REMARK    2  A    between atoms: N_2  and  C_3
REMARK    3  A    between atoms: C_3  and  C_4
REMARK    4  A    between atoms: C_13  and  C_15
REMARK    5  A    between atoms: C_15  and  N_16
REMARK    6  A    between atoms: N_16  and  C_17
REMARK                            x       y       z     vdW  Elec       q    Type
REMARK                         _______ _______ _______ _____ _____    ______ ____
ROOT
ATOM      1  C   UNL     1       3.116   3.795  17.679  0.00  0.00    +0.000 C 
ATOM      2  N   UNL     1       3.789   4.332  18.857  0.00  0.00    +0.000 N 
ATOM      3  C   UNL     1       5.172   4.404  18.982  0.00  0.00    +0.000 C 
ATOM      4  O   UNL     1       5.703   4.822  20.019  0.00  0.00    +0.000 OA
ENDROOT
BRANCH   2   5
ATOM      5  C   UNL     1       2.942   4.774  19.970  0.00  0.00    +0.000 C 
BRANCH   5   6
ATOM      6  C   UNL     1       2.473   6.180  19.765  0.00  0.00    +0.000 A 
ATOM      7  N   UNL     1       1.814   6.926  20.632  0.00  0.00    +0.000 NA
ATOM      8  C   UNL     1       1.597   8.128  20.004  0.00  0.00    +0.000 A 
ATOM      9  C   UNL     1       0.940   9.278  20.467  0.00  0.00    +0.000 A 
ATOM     10  C   UNL     1       0.826  10.380  19.610  0.00  0.00    +0.000 A 
ATOM     11  C   UNL     1       1.364  10.339  18.321  0.00  0.00    +0.000 A 
ATOM     12  C   UNL     1       2.040   9.206  17.848  0.00  0.00    +0.000 A 
ATOM     13  C   UNL     1       2.134   8.119  18.722  0.00  0.00    +0.000 A 
ATOM     14  N   UNL     1       2.706   6.878  18.603  0.00  0.00    +0.000 N 
ATOM     15  H   UNL     1       3.205   6.528  17.797  0.00  0.00    +0.000 HD
ENDBRANCH   5   6
ENDBRANCH   2   5
BRANCH   3  16
ATOM     16  C   UNL     1       6.036   3.996  17.773  0.00  0.00    +0.000 C 
BRANCH  16  17
ATOM     17  N   UNL     1       6.474   5.099  16.897  0.00  0.00    +0.000 N 
ATOM     18  C   UNL     1       7.337   6.156  17.416  0.00  0.00    +0.000 C 
ATOM     19  C   UNL     1       6.665   4.821  15.536  0.00  0.00    +0.000 A 
ATOM     20  C   UNL     1       5.944   3.818  14.877  0.00  0.00    +0.000 A 
ATOM     21  C   UNL     1       6.119   3.593  13.507  0.00  0.00    +0.000 A 
ATOM     22  C   UNL     1       7.013   4.379  12.804  0.00  0.00    +0.000 A 
ATOM     23 CL   UNL     1       7.244   4.161  11.119  0.00  0.00    +0.000 Cl
ATOM     24  C   UNL     1       7.701   5.348  13.506  0.00  0.00    +0.000 A 
ATOM     25  N   UNL     1       7.544   5.575  14.834  0.00  0.00    +0.000 NA
ENDBRANCH  16  17
ENDBRANCH   3  16
TORSDOF 4
ENDMDL
MODEL 6
REMARK VINA RESULT:      -7.3      4.292      6.877
REMARK  Name = 
REMARK  6 active torsions:
REMARK  status: ('A' for Active; 'I' for Inactive)
REMARK    1  A    between atoms: C_1  and  N_2
REMARK    2  A    between atoms: N_2  and  C_3
REMARK    3  A    between atoms: C_3  and  C_4
REMARK    4  A    between atoms: C_13  and  C_15
REMARK    5  A    between atoms: C_15  and  N_16
REMARK    6  A    between atoms: N_16  and  C_17
REMARK                            x       y       z     vdW  Elec       q    Type
REMARK                         _______ _______ _______ _____ _____    ______ ____
ROOT
ATOM      1  C   UNL     1       6.187   5.775  19.190  0.00  0.00    +0.000 C 
ATOM      2  N   UNL     1       6.336   6.337  17.852  0.00  0.00    +0.000 N 
ATOM      3  C   UNL     1       5.268   6.532  16.981  0.00  0.00    +0.000 C 
ATOM      4  O   UNL     1       5.444   6.965  15.835  0.00  0.00    +0.000 OA
ENDROOT
BRANCH   2   5
ATOM      5  C   UNL     1       7.694   6.665  17.408  0.00  0.00    +0.000 C 
BRANCH   5   6
ATOM      6  C   UNL     1       8.084   8.043  17.842  0.00  0.00    +0.000 A 
ATOM      7  N   UNL     1       7.861   9.168  17.188  0.00  0.00    +0.000 NA
ATOM      8  C   UNL     1       8.399  10.166  17.964  0.00  0.00    +0.000 A 
ATOM      9  C   UNL     1       8.446  11.550  17.742  0.00  0.00    +0.000 A 
ATOM     10  C   UNL     1       9.086  12.362  18.688  0.00  0.00    +0.000 A 
ATOM     11  C   UNL     1       9.660  11.806  19.833  0.00  0.00    +0.000 A 
ATOM     12  C   UNL     1       9.606  10.428  20.081  0.00  0.00    +0.000 A 
ATOM     13  C   UNL     1       8.967   9.640  19.120  0.00  0.00    +0.000 A 
ATOM     14  N   UNL     1       8.733   8.291  19.029  0.00  0.00    +0.000 N 
ATOM     15  H   UNL     1       8.999   7.595  19.711  0.00  0.00    +0.000 HD
ENDBRANCH   5   6
ENDBRANCH   2   5
BRANCH   3  16
ATOM     16  C   UNL     1       3.845   6.242  17.496  0.00  0.00    +0.000 C 
BRANCH  16  17
ATOM     17  N   UNL     1       3.430   4.827  17.472  0.00  0.00    +0.000 N 
ATOM     18  C   UNL     1       4.147   3.860  16.646  0.00  0.00    +0.000 C 
ATOM     19  C   UNL     1       2.882   4.283  18.642  0.00  0.00    +0.000 A 
ATOM     20  C   UNL     1       2.184   5.070  19.567  0.00  0.00    +0.000 A 
ATOM     21  C   UNL     1       1.604   4.494  20.703  0.00  0.00    +0.000 A 
ATOM     22  C   UNL     1       1.723   3.132  20.903  0.00  0.00    +0.000 A 
ATOM     23 CL   UNL     1       1.009   2.373  22.265  0.00  0.00    +0.000 Cl
ATOM     24  C   UNL     1       2.427   2.406  19.963  0.00  0.00    +0.000 A 
ATOM     25  N   UNL     1       2.996   2.952  18.858  0.00  0.00    +0.000 NA
ENDBRANCH  16  17
ENDBRANCH   3  16
TORSDOF 4
ENDMDL
MODEL 7
REMARK VINA RESULT:      -7.2      3.250      5.216
REMARK  Name = 
REMARK  6 active torsions:
REMARK  status: ('A' for Active; 'I' for Inactive)
REMARK    1  A    between atoms: C_1  and  N_2
REMARK    2  A    between atoms: N_2  and  C_3
REMARK    3  A    between atoms: C_3  and  C_4
REMARK    4  A    between atoms: C_13  and  C_15
REMARK    5  A    between atoms: C_15  and  N_16
REMARK    6  A    between atoms: N_16  and  C_17
REMARK                            x       y       z     vdW  Elec       q    Type
REMARK                         _______ _______ _______ _____ _____    ______ ____
ROOT
ATOM      1  C   UNL     1       0.938   8.745  21.133  0.00  0.00    +0.000 C 
ATOM      2  N   UNL     1       1.434   8.853  19.765  0.00  0.00    +0.000 N 
ATOM      3  C   UNL     1       2.019   7.794  19.078  0.00  0.00    +0.000 C 
ATOM      4  O   UNL     1       2.471   7.941  17.936  0.00  0.00    +0.000 OA
ENDROOT
BRANCH   2   5
ATOM      5  C   UNL     1       1.340  10.165  19.119  0.00  0.00    +0.000 C 
BRANCH   5   6
ATOM      6  C   UNL     1      -0.050  10.426  18.630  0.00  0.00    +0.000 A 
ATOM      7  N   UNL     1      -0.982  11.132  19.242  0.00  0.00    +0.000 NA
ATOM      8  C   UNL     1      -2.085  11.088  18.424  0.00  0.00    +0.000 A 
ATOM      9  C   UNL     1      -3.353  11.664  18.593  0.00  0.00    +0.000 A 
ATOM     10  C   UNL     1      -4.328  11.445  17.612  0.00  0.00    +0.000 A 
ATOM     11  C   UNL     1      -4.042  10.675  16.482  0.00  0.00    +0.000 A 
ATOM     12  C   UNL     1      -2.776  10.107  16.287  0.00  0.00    +0.000 A 
ATOM     13  C   UNL     1      -1.823  10.337  17.284  0.00  0.00    +0.000 A 
ATOM     14  N   UNL     1      -0.516   9.947  17.428  0.00  0.00    +0.000 N 
ATOM     15  H   UNL     1       0.015   9.393  16.770  0.00  0.00    +0.000 HD
ENDBRANCH   5   6
ENDBRANCH   2   5
BRANCH   3  16
ATOM     16  C   UNL     1       2.044   6.410  19.756  0.00  0.00    +0.000 C 
BRANCH  16  17
ATOM     17  N   UNL     1       2.412   5.277  18.887  0.00  0.00    +0.000 N 
ATOM     18  C   UNL     1       1.494   4.810  17.853  0.00  0.00    +0.000 C 
ATOM     19  C   UNL     1       3.767   5.105  18.569  0.00  0.00    +0.000 A 
ATOM     20  C   UNL     1       4.788   5.521  19.432  0.00  0.00    +0.000 A 
ATOM     21  C   UNL     1       6.132   5.294  19.113  0.00  0.00    +0.000 A 
ATOM     22  C   UNL     1       6.443   4.648  17.932  0.00  0.00    +0.000 A 
ATOM     23 CL   UNL     1       8.073   4.323  17.507  0.00  0.00    +0.000 Cl
ATOM     24  C   UNL     1       5.397   4.266  17.117  0.00  0.00    +0.000 A 
ATOM     25  N   UNL     1       4.090   4.481  17.412  0.00  0.00    +0.000 NA
ENDBRANCH  16  17
ENDBRANCH   3  16
TORSDOF 4
ENDMDL
MODEL 8
REMARK VINA RESULT:      -7.2      3.739      8.053
REMARK  Name = 
REMARK  6 active torsions:
REMARK  status: ('A' for Active; 'I' for Inactive)
REMARK    1  A    between atoms: C_1  and  N_2
REMARK    2  A    between atoms: N_2  and  C_3
REMARK    3  A    between atoms: C_3  and  C_4
REMARK    4  A    between atoms: C_13  and  C_15
REMARK    5  A    between atoms: C_15  and  N_16
REMARK    6  A    between atoms: N_16  and  C_17
REMARK                            x       y       z     vdW  Elec       q    Type
REMARK                         _______ _______ _______ _____ _____    ______ ____
ROOT
ATOM      1  C   UNL     1       1.134   3.501  20.250  0.00  0.00    +0.000 C 
ATOM      2  N   UNL     1       2.476   4.052  20.092  0.00  0.00    +0.000 N 
ATOM      3  C   UNL     1       2.751   5.416  20.119  0.00  0.00    +0.000 C 
ATOM      4  O   UNL     1       3.897   5.844  19.933  0.00  0.00    +0.000 OA
ENDROOT
BRANCH   2   5
ATOM      5  C   UNL     1       3.567   3.103  19.852  0.00  0.00    +0.000 C 
BRANCH   5   6
ATOM      6  C   UNL     1       4.415   3.538  18.698  0.00  0.00    +0.000 A 
ATOM      7  N   UNL     1       5.698   3.850  18.735  0.00  0.00    +0.000 NA
ATOM      8  C   UNL     1       6.038   4.191  17.449  0.00  0.00    +0.000 A 
ATOM      9  C   UNL     1       7.271   4.608  16.926  0.00  0.00    +0.000 A 
ATOM     10  C   UNL     1       7.352   4.929  15.565  0.00  0.00    +0.000 A 
ATOM     11  C   UNL     1       6.228   4.828  14.741  0.00  0.00    +0.000 A 
ATOM     12  C   UNL     1       4.993   4.395  15.241  0.00  0.00    +0.000 A 
ATOM     13  C   UNL     1       4.939   4.087  16.604  0.00  0.00    +0.000 A 
ATOM     14  N   UNL     1       3.925   3.648  17.418  0.00  0.00    +0.000 N 
ATOM     15  H   UNL     1       2.978   3.447  17.132  0.00  0.00    +0.000 HD
ENDBRANCH   5   6
ENDBRANCH   2   5
BRANCH   3  16
ATOM     16  C   UNL     1       1.597   6.386  20.440  0.00  0.00    +0.000 C 
BRANCH  16  17
ATOM     17  N   UNL     1       1.814   7.791  20.052  0.00  0.00    +0.000 N 
ATOM     18  C   UNL     1       2.135   8.135  18.669  0.00  0.00    +0.000 C 
ATOM     19  C   UNL     1       1.093   8.781  20.734  0.00  0.00    +0.000 A 
ATOM     20  C   UNL     1       0.674   8.610  22.059  0.00  0.00    +0.000 A 
ATOM     21  C   UNL     1      -0.003   9.633  22.734  0.00  0.00    +0.000 A 
ATOM     22  C   UNL     1      -0.253  10.822  22.076  0.00  0.00    +0.000 A 
ATOM     23 CL   UNL     1      -1.057  12.115  22.866  0.00  0.00    +0.000 Cl
ATOM     24  C   UNL     1       0.175  10.933  20.769  0.00  0.00    +0.000 A 
ATOM     25  N   UNL     1       0.831   9.949  20.102  0.00  0.00    +0.000 NA
ENDBRANCH  16  17
ENDBRANCH   3  16
TORSDOF 4
ENDMDL
MODEL 9
REMARK VINA RESULT:      -7.1      4.278      6.152
REMARK  Name = 
REMARK  6 active torsions:
REMARK  status: ('A' for Active; 'I' for Inactive)
REMARK    1  A    between atoms: C_1  and  N_2
REMARK    2  A    between atoms: N_2  and  C_3
REMARK    3  A    between atoms: C_3  and  C_4
REMARK    4  A    between atoms: C_13  and  C_15
REMARK    5  A    between atoms: C_15  and  N_16
REMARK    6  A    between atoms: N_16  and  C_17
REMARK                            x       y       z     vdW  Elec       q    Type
REMARK                         _______ _______ _______ _____ _____    ______ ____
ROOT
ATOM      1  C   UNL     1       4.643   6.454  16.617  0.00  0.00    +0.000 C 
ATOM      2  N   UNL     1       5.615   5.368  16.537  0.00  0.00    +0.000 N 
ATOM      3  C   UNL     1       6.991   5.573  16.508  0.00  0.00    +0.000 C 
ATOM      4  O   UNL     1       7.780   4.627  16.390  0.00  0.00    +0.000 OA
ENDROOT
BRANCH   2   5
ATOM      5  C   UNL     1       5.090   4.003  16.440  0.00  0.00    +0.000 C 
BRANCH   5   6
ATOM      6  C   UNL     1       4.161   3.702  17.574  0.00  0.00    +0.000 A 
ATOM      7  N   UNL     1       2.844   3.799  17.563  0.00  0.00    +0.000 NA
ATOM      8  C   UNL     1       2.430   3.428  18.819  0.00  0.00    +0.000 A 
ATOM      9  C   UNL     1       1.135   3.355  19.352  0.00  0.00    +0.000 A 
ATOM     10  C   UNL     1       0.979   2.969  20.690  0.00  0.00    +0.000 A 
ATOM     11  C   UNL     1       2.090   2.654  21.476  0.00  0.00    +0.000 A 
ATOM     12  C   UNL     1       3.390   2.703  20.954  0.00  0.00    +0.000 A 
ATOM     13  C   UNL     1       3.518   3.097  19.619  0.00  0.00    +0.000 A 
ATOM     14  N   UNL     1       4.605   3.256  18.797  0.00  0.00    +0.000 N 
ATOM     15  H   UNL     1       5.569   3.087  19.047  0.00  0.00    +0.000 HD
ENDBRANCH   5   6
ENDBRANCH   2   5
BRANCH   3  16
ATOM     16  C   UNL     1       7.517   7.012  16.679  0.00  0.00    +0.000 C 
BRANCH  16  17
ATOM     17  N   UNL     1       7.765   7.444  18.067  0.00  0.00    +0.000 N 
ATOM     18  C   UNL     1       8.170   6.475  19.081  0.00  0.00    +0.000 C 
ATOM     19  C   UNL     1       8.272   8.734  18.273  0.00  0.00    +0.000 A 
ATOM     20  C   UNL     1       8.008   9.784  17.385  0.00  0.00    +0.000 A 
ATOM     21  C   UNL     1       8.487  11.074  17.639  0.00  0.00    +0.000 A 
ATOM     22  C   UNL     1       9.223  11.306  18.785  0.00  0.00    +0.000 A 
ATOM     23 CL   UNL     1       9.810  12.874  19.156  0.00  0.00    +0.000 Cl
ATOM     24  C   UNL     1       9.458  10.233  19.622  0.00  0.00    +0.000 A 
ATOM     25  N   UNL     1       9.003   8.976  19.387  0.00  0.00    +0.000 NA
ENDBRANCH  16  17
ENDBRANCH   3  16
TORSDOF 4
ENDMDL
