MODEL 1
REMARK VINA RESULT:      -7.2      0.000      0.000
REMARK  Name = 
REMARK  7 active torsions:
REMARK  status: ('A' for Active; 'I' for Inactive)
REMARK    1  A    between atoms: C_1  and  C_2
REMARK    2  A    between atoms: C_2  and  C_3
REMARK    3  A    between atoms: C_2  and  C_4
REMARK    4  A    between atoms: C_4  and  C_5
REMARK    5  A    between atoms: C_5  and  N_6
REMARK    6  A    between atoms: C_5  and  C_8
REMARK    7  A    between atoms: N_6  and  O_7
REMARK                            x       y       z     vdW  Elec       q    Type
REMARK                         _______ _______ _______ _____ _____    ______ ____
ROOT
ATOM      1  C   UNL     1       5.197   5.251  16.273  0.00  0.00    +0.000 A 
ATOM      2  C   UNL     1       5.448   6.600  16.462  0.00  0.00    +0.000 A 
ATOM      3  N   UNL     1       4.554   7.097  17.367  0.00  0.00    +0.000 N 
ATOM      4  C   UNL     1       3.722   6.102  17.808  0.00  0.00    +0.000 A 
ATOM      5  C   UNL     1       2.695   6.154  18.757  0.00  0.00    +0.000 A 
ATOM      6  C   UNL     1       2.003   4.976  19.034  0.00  0.00    +0.000 A 
ATOM      7  C   UNL     1       2.332   3.794  18.374  0.00  0.00    +0.000 A 
ATOM      8 BR   UNL     1       1.375   2.211  18.781  0.00  0.00    +0.000 Br
ATOM      9  C   UNL     1       3.362   3.750  17.421  0.00  0.00    +0.000 A 
ATOM     10  C   UNL     1       4.083   4.933  17.132  0.00  0.00    +0.000 A 
ATOM     11  H   UNL     1       4.525   8.052  17.691  0.00  0.00    +0.000 HD
ENDROOT
BRANCH   1  12
ATOM     12  C   UNL     1       5.999   4.289  15.399  0.00  0.00    +0.000 C 
BRANCH  12  13
ATOM     13  N   UNL     1       7.405   4.695  15.594  0.00  0.00    +0.000 NA
ATOM     14  H   UNL     1       7.407   5.697  15.813  0.00  0.00    +0.000 HD
BRANCH  13  15
ATOM     15  O   UNL     1       7.879   4.122  16.840  0.00  0.00    +0.000 OA
ATOM     16  H   UNL     1       7.103   4.264  17.418  0.00  0.00    +0.000 HD
ENDBRANCH  13  15
ENDBRANCH  12  13
BRANCH  12  17
ATOM     17  C   UNL     1       5.538   4.343  13.915  0.00  0.00    +0.000 C 
BRANCH  17  19
ATOM     18  C   UNL     1       5.422   2.779  11.895  0.00  0.00    +0.000 C 
ATOM     19  C   UNL     1       6.330   3.532  12.867  0.00  0.00    +0.000 C 
ATOM     20  C   UNL     1       7.267   4.464  12.086  0.00  0.00    +0.000 C 
ENDBRANCH  17  19
ENDBRANCH  12  17
ENDBRANCH   1  12
TORSDOF 5
ENDMDL
MODEL 2
REMARK VINA RESULT:      -7.1      3.587      5.413
REMARK  Name = 
REMARK  7 active torsions:
REMARK  status: ('A' for Active; 'I' for Inactive)
REMARK    1  A    between atoms: C_1  and  C_2
REMARK    2  A    between atoms: C_2  and  C_3
REMARK    3  A    between atoms: C_2  and  C_4
REMARK    4  A    between atoms: C_4  and  C_5
REMARK    5  A    between atoms: C_5  and  N_6
REMARK    6  A    between atoms: C_5  and  C_8
REMARK    7  A    between atoms: N_6  and  O_7
REMARK                            x       y       z     vdW  Elec       q    Type
REMARK                         _______ _______ _______ _____ _____    ______ ____
ROOT
ATOM      1  C   UNL     1       3.789   4.451  18.700  0.00  0.00    +0.000 A 
ATOM      2  C   UNL     1       4.443   4.548  17.482  0.00  0.00    +0.000 A 
ATOM      3  N   UNL     1       4.228   5.789  16.957  0.00  0.00    +0.000 N 
ATOM      4  C   UNL     1       3.460   6.539  17.810  0.00  0.00    +0.000 A 
ATOM      5  C   UNL     1       3.036   7.867  17.693  0.00  0.00    +0.000 A 
ATOM      6  C   UNL     1       2.265   8.398  18.726  0.00  0.00    +0.000 A 
ATOM      7  C   UNL     1       1.932   7.617  19.830  0.00  0.00    +0.000 A 
ATOM      8 BR   UNL     1       0.889   8.375  21.218  0.00  0.00    +0.000 Br
ATOM      9  C   UNL     1       2.360   6.285  19.940  0.00  0.00    +0.000 A 
ATOM     10  C   UNL     1       3.152   5.729  18.906  0.00  0.00    +0.000 A 
ATOM     11  H   UNL     1       4.602   6.123  16.082  0.00  0.00    +0.000 HD
ENDROOT
BRANCH   1  12
ATOM     12  C   UNL     1       3.819   3.264  19.659  0.00  0.00    +0.000 C 
BRANCH  12  13
ATOM     13  N   UNL     1       5.227   2.818  19.655  0.00  0.00    +0.000 NA
ATOM     14  H   UNL     1       5.697   3.285  20.437  0.00  0.00    +0.000 HD
BRANCH  13  15
ATOM     15  O   UNL     1       5.268   1.430  20.076  0.00  0.00    +0.000 OA
ATOM     16  H   UNL     1       5.795   1.031  19.356  0.00  0.00    +0.000 HD
ENDBRANCH  13  15
ENDBRANCH  12  13
BRANCH  12  17
ATOM     17  C   UNL     1       2.818   2.155  19.228  0.00  0.00    +0.000 C 
BRANCH  17  19
ATOM     18  C   UNL     1       1.319   2.900  21.162  0.00  0.00    +0.000 C 
ATOM     19  C   UNL     1       1.390   2.181  19.816  0.00  0.00    +0.000 C 
ATOM     20  C   UNL     1       0.430   2.849  18.820  0.00  0.00    +0.000 C 
ENDBRANCH  17  19
ENDBRANCH  12  17
ENDBRANCH   1  12
TORSDOF 5
ENDMDL
MODEL 3
REMARK VINA RESULT:      -6.9      1.551      1.721
REMARK  Name = 
REMARK  7 active torsions:
REMARK  status: ('A' for Active; 'I' for Inactive)
REMARK    1  A    between atoms: C_1  and  C_2
REMARK    2  A    between atoms: C_2  and  C_3
REMARK    3  A    between atoms: C_2  and  C_4
REMARK    4  A    between atoms: C_4  and  C_5
REMARK    5  A    between atoms: C_5  and  N_6
REMARK    6  A    between atoms: C_5  and  C_8
REMARK    7  A    between atoms: N_6  and  O_7
REMARK                            x       y       z     vdW  Elec       q    Type
REMARK                         _______ _______ _______ _____ _____    ______ ____
ROOT
ATOM      1  C   UNL     1       4.959   5.438  17.378  0.00  0.00    +0.000 A 
ATOM      2  C   UNL     1       4.768   6.736  16.932  0.00  0.00    +0.000 A 
ATOM      3  N   UNL     1       3.751   7.306  17.642  0.00  0.00    +0.000 N 
ATOM      4  C   UNL     1       3.269   6.424  18.574  0.00  0.00    +0.000 A 
ATOM      5  C   UNL     1       2.266   6.601  19.533  0.00  0.00    +0.000 A 
ATOM      6  C   UNL     1       1.978   5.530  20.379  0.00  0.00    +0.000 A 
ATOM      7  C   UNL     1       2.671   4.329  20.257  0.00  0.00    +0.000 A 
ATOM      8 BR   UNL     1       2.258   2.899  21.428  0.00  0.00    +0.000 Br
ATOM      9  C   UNL     1       3.676   4.159  19.291  0.00  0.00    +0.000 A 
ATOM     10  C   UNL     1       3.990   5.236  18.427  0.00  0.00    +0.000 A 
ATOM     11  H   UNL     1       3.417   8.251  17.524  0.00  0.00    +0.000 HD
ENDROOT
BRANCH   1  12
ATOM     12  C   UNL     1       6.035   4.463  16.908  0.00  0.00    +0.000 C 
BRANCH  12  13
ATOM     13  N   UNL     1       6.865   4.219  18.105  0.00  0.00    +0.000 NA
ATOM     14  H   UNL     1       6.644   3.277  18.444  0.00  0.00    +0.000 HD
BRANCH  13  15
ATOM     15  O   UNL     1       8.244   4.063  17.682  0.00  0.00    +0.000 OA
ATOM     16  H   UNL     1       8.217   4.478  16.797  0.00  0.00    +0.000 HD
ENDBRANCH  13  15
ENDBRANCH  12  13
BRANCH  12  17
ATOM     17  C   UNL     1       6.838   5.032  15.704  0.00  0.00    +0.000 C 
BRANCH  17  19
ATOM     18  C   UNL     1       5.334   4.075  13.871  0.00  0.00    +0.000 C 
ATOM     19  C   UNL     1       6.768   4.288  14.353  0.00  0.00    +0.000 C 
ATOM     20  C   UNL     1       7.563   5.062  13.291  0.00  0.00    +0.000 C 
ENDBRANCH  17  19
ENDBRANCH  12  17
ENDBRANCH   1  12
TORSDOF 5
ENDMDL
MODEL 4
REMARK VINA RESULT:      -6.9      3.125      5.516
REMARK  Name = 
REMARK  7 active torsions:
REMARK  status: ('A' for Active; 'I' for Inactive)
REMARK    1  A    between atoms: C_1  and  C_2
REMARK    2  A    between atoms: C_2  and  C_3
REMARK    3  A    between atoms: C_2  and  C_4
REMARK    4  A    between atoms: C_4  and  C_5
REMARK    5  A    between atoms: C_5  and  N_6
REMARK    6  A    between atoms: C_5  and  C_8
REMARK    7  A    between atoms: N_6  and  O_7
REMARK                            x       y       z     vdW  Elec       q    Type
REMARK                         _______ _______ _______ _____ _____    ______ ____
ROOT
ATOM      1  C   UNL     1       3.870   4.497  19.192  0.00  0.00    +0.000 A 
ATOM      2  C   UNL     1       3.306   5.641  19.735  0.00  0.00    +0.000 A 
ATOM      3  N   UNL     1       3.477   6.678  18.864  0.00  0.00    +0.000 N 
ATOM      4  C   UNL     1       4.125   6.248  17.735  0.00  0.00    +0.000 A 
ATOM      5  C   UNL     1       4.466   6.959  16.579  0.00  0.00    +0.000 A 
ATOM      6  C   UNL     1       5.117   6.268  15.558  0.00  0.00    +0.000 A 
ATOM      7  C   UNL     1       5.416   4.916  15.702  0.00  0.00    +0.000 A 
ATOM      8 BR   UNL     1       6.296   4.008  14.291  0.00  0.00    +0.000 Br
ATOM      9  C   UNL     1       5.072   4.210  16.866  0.00  0.00    +0.000 A 
ATOM     10  C   UNL     1       4.402   4.890  17.911  0.00  0.00    +0.000 A 
ATOM     11  H   UNL     1       3.150   7.621  19.011  0.00  0.00    +0.000 HD
ENDROOT
BRANCH   1  12
ATOM     12  C   UNL     1       3.846   3.095  19.797  0.00  0.00    +0.000 C 
BRANCH  12  13
ATOM     13  N   UNL     1       5.228   2.600  19.642  0.00  0.00    +0.000 NA
ATOM     14  H   UNL     1       5.802   3.068  20.351  0.00  0.00    +0.000 HD
BRANCH  13  15
ATOM     15  O   UNL     1       5.272   1.221  20.093  0.00  0.00    +0.000 OA
ATOM     16  H   UNL     1       5.793   0.806  19.376  0.00  0.00    +0.000 HD
ENDBRANCH  13  15
ENDBRANCH  12  13
BRANCH  12  17
ATOM     17  C   UNL     1       2.784   2.193  19.108  0.00  0.00    +0.000 C 
BRANCH  17  19
ATOM     18  C   UNL     1       1.271   2.770  21.088  0.00  0.00    +0.000 C 
ATOM     19  C   UNL     1       1.353   2.162  19.689  0.00  0.00    +0.000 C 
ATOM     20  C   UNL     1       0.393   2.901  18.745  0.00  0.00    +0.000 C 
ENDBRANCH  17  19
ENDBRANCH  12  17
ENDBRANCH   1  12
TORSDOF 5
ENDMDL
MODEL 5
REMARK VINA RESULT:      -6.8      3.153      5.977
REMARK  Name = 
REMARK  7 active torsions:
REMARK  status: ('A' for Active; 'I' for Inactive)
REMARK    1  A    between atoms: C_1  and  C_2
REMARK    2  A    between atoms: C_2  and  C_3
REMARK    3  A    between atoms: C_2  and  C_4
REMARK    4  A    between atoms: C_4  and  C_5
REMARK    5  A    between atoms: C_5  and  N_6
REMARK    6  A    between atoms: C_5  and  C_8
REMARK    7  A    between atoms: N_6  and  O_7
REMARK                            x       y       z     vdW  Elec       q    Type
REMARK                         _______ _______ _______ _____ _____    ______ ____
ROOT
ATOM      1  C   UNL     1       4.028   4.867  18.574  0.00  0.00    +0.000 A 
ATOM      2  C   UNL     1       4.810   5.075  19.699  0.00  0.00    +0.000 A 
ATOM      3  N   UNL     1       6.126   4.960  19.354  0.00  0.00    +0.000 N 
ATOM      4  C   UNL     1       6.245   4.700  18.014  0.00  0.00    +0.000 A 
ATOM      5  C   UNL     1       7.398   4.549  17.234  0.00  0.00    +0.000 A 
ATOM      6  C   UNL     1       7.234   4.302  15.872  0.00  0.00    +0.000 A 
ATOM      7  C   UNL     1       5.959   4.207  15.321  0.00  0.00    +0.000 A 
ATOM      8 BR   UNL     1       5.776   3.877  13.465  0.00  0.00    +0.000 Br
ATOM      9  C   UNL     1       4.808   4.358  16.110  0.00  0.00    +0.000 A 
ATOM     10  C   UNL     1       4.951   4.619  17.494  0.00  0.00    +0.000 A 
ATOM     11  H   UNL     1       6.905   5.077  19.985  0.00  0.00    +0.000 HD
ENDROOT
BRANCH   1  12
ATOM     12  C   UNL     1       2.507   4.970  18.491  0.00  0.00    +0.000 C 
BRANCH  12  13
ATOM     13  N   UNL     1       2.258   6.286  17.870  0.00  0.00    +0.000 NA
ATOM     14  H   UNL     1       1.271   6.311  17.593  0.00  0.00    +0.000 HD
BRANCH  13  15
ATOM     15  O   UNL     1       2.295   7.297  18.911  0.00  0.00    +0.000 OA
ATOM     16  H   UNL     1       2.839   6.848  19.589  0.00  0.00    +0.000 HD
ENDBRANCH  13  15
ENDBRANCH  12  13
BRANCH  12  17
ATOM     17  C   UNL     1       1.845   4.809  19.888  0.00  0.00    +0.000 C 
BRANCH  17  19
ATOM     18  C   UNL     1       0.945   2.600  18.964  0.00  0.00    +0.000 C 
ATOM     19  C   UNL     1       1.004   3.543  20.165  0.00  0.00    +0.000 C 
ATOM     20  C   UNL     1       1.569   2.799  21.383  0.00  0.00    +0.000 C 
ENDBRANCH  17  19
ENDBRANCH  12  17
ENDBRANCH   1  12
TORSDOF 5
ENDMDL
MODEL 6
REMARK VINA RESULT:      -6.8      3.132      4.152
REMARK  Name = 
REMARK  7 active torsions:
REMARK  status: ('A' for Active; 'I' for Inactive)
REMARK    1  A    between atoms: C_1  and  C_2
REMARK    2  A    between atoms: C_2  and  C_3
REMARK    3  A    between atoms: C_2  and  C_4
REMARK    4  A    between atoms: C_4  and  C_5
REMARK    5  A    between atoms: C_5  and  N_6
REMARK    6  A    between atoms: C_5  and  C_8
REMARK    7  A    between atoms: N_6  and  O_7
REMARK                            x       y       z     vdW  Elec       q    Type
REMARK                         _______ _______ _______ _____ _____    ______ ____
ROOT
ATOM      1  C   UNL     1       4.886   4.865  17.756  0.00  0.00    +0.000 A 
ATOM      2  C   UNL     1       4.868   3.807  18.651  0.00  0.00    +0.000 A 
ATOM      3  N   UNL     1       3.972   4.079  19.645  0.00  0.00    +0.000 N 
ATOM      4  C   UNL     1       3.371   5.291  19.423  0.00  0.00    +0.000 A 
ATOM      5  C   UNL     1       2.371   5.937  20.160  0.00  0.00    +0.000 A 
ATOM      6  C   UNL     1       1.920   7.173  19.699  0.00  0.00    +0.000 A 
ATOM      7  C   UNL     1       2.460   7.735  18.545  0.00  0.00    +0.000 A 
ATOM      8 BR   UNL     1       1.816   9.413  17.946  0.00  0.00    +0.000 Br
ATOM      9  C   UNL     1       3.463   7.081  17.813  0.00  0.00    +0.000 A 
ATOM     10  C   UNL     1       3.929   5.821  18.257  0.00  0.00    +0.000 A 
ATOM     11  H   UNL     1       3.758   3.468  20.418  0.00  0.00    +0.000 HD
ENDROOT
BRANCH   1  12
ATOM     12  C   UNL     1       5.691   4.949  16.462  0.00  0.00    +0.000 C 
BRANCH  12  13
ATOM     13  N   UNL     1       5.922   3.543  16.075  0.00  0.00    +0.000 NA
ATOM     14  H   UNL     1       5.014   3.068  16.094  0.00  0.00    +0.000 HD
BRANCH  13  15
ATOM     15  O   UNL     1       6.243   3.505  14.660  0.00  0.00    +0.000 OA
ATOM     16  H   UNL     1       5.382   3.242  14.280  0.00  0.00    +0.000 HD
ENDBRANCH  13  15
ENDBRANCH  12  13
BRANCH  12  17
ATOM     17  C   UNL     1       7.003   5.762  16.656  0.00  0.00    +0.000 C 
BRANCH  17  19
ATOM     18  C   UNL     1       7.965   5.943  19.018  0.00  0.00    +0.000 C 
ATOM     19  C   UNL     1       7.152   6.631  17.923  0.00  0.00    +0.000 C 
ATOM     20  C   UNL     1       7.803   7.974  17.560  0.00  0.00    +0.000 C 
ENDBRANCH  17  19
ENDBRANCH  12  17
ENDBRANCH   1  12
TORSDOF 5
ENDMDL
MODEL 7
REMARK VINA RESULT:      -6.8      3.021      5.768
REMARK  Name = 
REMARK  7 active torsions:
REMARK  status: ('A' for Active; 'I' for Inactive)
REMARK    1  A    between atoms: C_1  and  C_2
REMARK    2  A    between atoms: C_2  and  C_3
REMARK    3  A    between atoms: C_2  and  C_4
REMARK    4  A    between atoms: C_4  and  C_5
REMARK    5  A    between atoms: C_5  and  N_6
REMARK    6  A    between atoms: C_5  and  C_8
REMARK    7  A    between atoms: N_6  and  O_7
REMARK                            x       y       z     vdW  Elec       q    Type
REMARK                         _______ _______ _______ _____ _____    ______ ____
ROOT
ATOM      1  C   UNL     1       4.678   3.906  18.605  0.00  0.00    +0.000 A 
ATOM      2  C   UNL     1       5.255   4.730  19.557  0.00  0.00    +0.000 A 
ATOM      3  N   UNL     1       6.221   5.490  18.964  0.00  0.00    +0.000 N 
ATOM      4  C   UNL     1       6.289   5.209  17.624  0.00  0.00    +0.000 A 
ATOM      5  C   UNL     1       7.101   5.776  16.635  0.00  0.00    +0.000 A 
ATOM      6  C   UNL     1       6.956   5.311  15.328  0.00  0.00    +0.000 A 
ATOM      7  C   UNL     1       6.034   4.310  15.034  0.00  0.00    +0.000 A 
ATOM      8 BR   UNL     1       5.860   3.709  13.247  0.00  0.00    +0.000 Br
ATOM      9  C   UNL     1       5.224   3.745  16.033  0.00  0.00    +0.000 A 
ATOM     10  C   UNL     1       5.348   4.209  17.364  0.00  0.00    +0.000 A 
ATOM     11  H   UNL     1       6.787   6.182  19.432  0.00  0.00    +0.000 HD
ENDROOT
BRANCH   1  12
ATOM     12  C   UNL     1       3.511   2.945  18.819  0.00  0.00    +0.000 C 
BRANCH  12  13
ATOM     13  N   UNL     1       3.766   1.836  17.877  0.00  0.00    +0.000 NA
ATOM     14  H   UNL     1       4.554   2.114  17.284  0.00  0.00    +0.000 HD
BRANCH  13  15
ATOM     15  O   UNL     1       4.336   0.727  18.621  0.00  0.00    +0.000 OA
ATOM     16  H   UNL     1       3.582   0.477  19.191  0.00  0.00    +0.000 HD
ENDBRANCH  13  15
ENDBRANCH  12  13
BRANCH  12  17
ATOM     17  C   UNL     1       2.142   3.646  18.594  0.00  0.00    +0.000 C 
BRANCH  17  19
ATOM     18  C   UNL     1       1.280   2.805  20.850  0.00  0.00    +0.000 C 
ATOM     19  C   UNL     1       1.250   3.934  19.821  0.00  0.00    +0.000 C 
ATOM     20  C   UNL     1       1.683   5.250  20.482  0.00  0.00    +0.000 C 
ENDBRANCH  17  19
ENDBRANCH  12  17
ENDBRANCH   1  12
TORSDOF 5
ENDMDL
MODEL 8
REMARK VINA RESULT:      -6.6      3.674      5.553
REMARK  Name = 
REMARK  7 active torsions:
REMARK  status: ('A' for Active; 'I' for Inactive)
REMARK    1  A    between atoms: C_1  and  C_2
REMARK    2  A    between atoms: C_2  and  C_3
REMARK    3  A    between atoms: C_2  and  C_4
REMARK    4  A    between atoms: C_4  and  C_5
REMARK    5  A    between atoms: C_5  and  N_6
REMARK    6  A    between atoms: C_5  and  C_8
REMARK    7  A    between atoms: N_6  and  O_7
REMARK                            x       y       z     vdW  Elec       q    Type
REMARK                         _______ _______ _______ _____ _____    ______ ____
ROOT
ATOM      1  C   UNL     1       3.882   5.094  18.760  0.00  0.00    +0.000 A 
ATOM      2  C   UNL     1       4.524   5.234  17.540  0.00  0.00    +0.000 A 
ATOM      3  N   UNL     1       4.178   6.435  16.989  0.00  0.00    +0.000 N 
ATOM      4  C   UNL     1       3.333   7.115  17.827  0.00  0.00    +0.000 A 
ATOM      5  C   UNL     1       2.769   8.388  17.681  0.00  0.00    +0.000 A 
ATOM      6  C   UNL     1       1.944   8.855  18.704  0.00  0.00    +0.000 A 
ATOM      7  C   UNL     1       1.695   8.067  19.824  0.00  0.00    +0.000 A 
ATOM      8 BR   UNL     1       0.575   8.737  21.196  0.00  0.00    +0.000 Br
ATOM      9  C   UNL     1       2.263   6.790  19.962  0.00  0.00    +0.000 A 
ATOM     10  C   UNL     1       3.111   6.300  18.940  0.00  0.00    +0.000 A 
ATOM     11  H   UNL     1       4.515   6.788  16.107  0.00  0.00    +0.000 HD
ENDROOT
BRANCH   1  12
ATOM     12  C   UNL     1       4.038   3.937  19.744  0.00  0.00    +0.000 C 
BRANCH  12  13
ATOM     13  N   UNL     1       5.340   3.332  19.403  0.00  0.00    +0.000 NA
ATOM     14  H   UNL     1       6.036   3.719  20.048  0.00  0.00    +0.000 HD
BRANCH  13  15
ATOM     15  O   UNL     1       5.315   1.937  19.803  0.00  0.00    +0.000 OA
ATOM     16  H   UNL     1       5.021   2.014  20.733  0.00  0.00    +0.000 HD
ENDBRANCH  13  15
ENDBRANCH  12  13
BRANCH  12  17
ATOM     17  C   UNL     1       2.847   2.941  19.648  0.00  0.00    +0.000 C 
BRANCH  17  19
ATOM     18  C   UNL     1       0.304   3.001  19.392  0.00  0.00    +0.000 C 
ATOM     19  C   UNL     1       1.498   3.341  20.283  0.00  0.00    +0.000 C 
ATOM     20  C   UNL     1       1.340   2.654  21.647  0.00  0.00    +0.000 C 
ENDBRANCH  17  19
ENDBRANCH  12  17
ENDBRANCH   1  12
TORSDOF 5
ENDMDL
MODEL 9
REMARK VINA RESULT:      -6.6      2.839      4.012
REMARK  Name = 
REMARK  7 active torsions:
REMARK  status: ('A' for Active; 'I' for Inactive)
REMARK    1  A    between atoms: C_1  and  C_2
REMARK    2  A    between atoms: C_2  and  C_3
REMARK    3  A    between atoms: C_2  and  C_4
REMARK    4  A    between atoms: C_4  and  C_5
REMARK    5  A    between atoms: C_5  and  N_6
REMARK    6  A    between atoms: C_5  and  C_8
REMARK    7  A    between atoms: N_6  and  O_7
REMARK                            x       y       z     vdW  Elec       q    Type
REMARK                         _______ _______ _______ _____ _____    ______ ____
ROOT
ATOM      1  C   UNL     1       4.911   4.831  16.957  0.00  0.00    +0.000 A 
ATOM      2  C   UNL     1       4.950   3.450  16.848  0.00  0.00    +0.000 A 
ATOM      3  N   UNL     1       4.083   2.906  17.752  0.00  0.00    +0.000 N 
ATOM      4  C   UNL     1       3.444   3.896  18.451  0.00  0.00    +0.000 A 
ATOM      5  C   UNL     1       2.455   3.795  19.437  0.00  0.00    +0.000 A 
ATOM      6  C   UNL     1       1.957   4.977  19.983  0.00  0.00    +0.000 A 
ATOM      7  C   UNL     1       2.442   6.210  19.556  0.00  0.00    +0.000 A 
ATOM      8 BR   UNL     1       1.737   7.795  20.316  0.00  0.00    +0.000 Br
ATOM      9  C   UNL     1       3.436   6.304  18.568  0.00  0.00    +0.000 A 
ATOM     10  C   UNL     1       3.949   5.116  17.993  0.00  0.00    +0.000 A 
ATOM     11  H   UNL     1       3.911   1.919  17.871  0.00  0.00    +0.000 HD
ENDROOT
BRANCH   1  12
ATOM     12  C   UNL     1       5.669   5.835  16.092  0.00  0.00    +0.000 C 
BRANCH  12  13
ATOM     13  N   UNL     1       5.674   5.235  14.744  0.00  0.00    +0.000 NA
ATOM     14  H   UNL     1       5.126   5.849  14.133  0.00  0.00    +0.000 HD
BRANCH  13  15
ATOM     15  O   UNL     1       7.006   5.378  14.185  0.00  0.00    +0.000 OA
ATOM     16  H   UNL     1       7.446   5.904  14.882  0.00  0.00    +0.000 HD
ENDBRANCH  13  15
ENDBRANCH  12  13
BRANCH  12  17
ATOM     17  C   UNL     1       7.093   6.113  16.652  0.00  0.00    +0.000 C 
BRANCH  17  19
ATOM     18  C   UNL     1       7.933   6.074  19.067  0.00  0.00    +0.000 C 
ATOM     19  C   UNL     1       7.224   6.885  17.983  0.00  0.00    +0.000 C 
ATOM     20  C   UNL     1       7.974   8.204  17.748  0.00  0.00    +0.000 C 
ENDBRANCH  17  19
ENDBRANCH  12  17
ENDBRANCH   1  12
TORSDOF 5
ENDMDL
