MODEL 1
REMARK VINA RESULT:      -7.5      0.000      0.000
REMARK  Name = 
REMARK  2 active torsions:
REMARK  status: ('A' for Active; 'I' for Inactive)
REMARK    1  A    between atoms: C_2  and  C_14
REMARK    2  A    between atoms: N_3  and  N_4
REMARK                            x       y       z     vdW  Elec       q    Type
REMARK                         _______ _______ _______ _____ _____    ______ ____
ROOT
ATOM      1  O   UNL     1       5.292   5.824  16.181  0.00  0.00    +0.000 OA
ATOM      2  C   UNL     1       6.043   4.891  15.913  0.00  0.00    +0.000 C 
ATOM      3  N   UNL     1       6.573   4.050  16.871  0.00  0.00    +0.000 N 
ATOM      4  H   UNL     1       7.280   3.336  16.719  0.00  0.00    +0.000 HD
ENDROOT
BRANCH   3   5
ATOM      5  N   UNL     1       6.184   4.265  18.200  0.00  0.00    +0.000 N 
ATOM      6  C   UNL     1       4.915   4.000  18.595  0.00  0.00    +0.000 A 
ATOM      7  N   UNL     1       4.122   3.114  18.031  0.00  0.00    +0.000 NA
ATOM      8  C   UNL     1       2.897   3.088  18.679  0.00  0.00    +0.000 A 
ATOM      9  C   UNL     1       1.811   2.242  18.370  0.00  0.00    +0.000 A 
ATOM     10  C   UNL     1       0.617   2.345  19.095  0.00  0.00    +0.000 A 
ATOM     11  C   UNL     1       0.491   3.280  20.116  0.00  0.00    +0.000 A 
ATOM     12  C   UNL     1       1.556   4.123  20.451  0.00  0.00    +0.000 A 
ATOM     13  C   UNL     1       2.753   4.002  19.724  0.00  0.00    +0.000 A 
ATOM     14  S   UNL     1       4.229   4.862  19.917  0.00  0.00    +0.000 S 
ATOM     15  H   UNL     1       6.642   5.084  18.608  0.00  0.00    +0.000 HD
ENDBRANCH   3   5
BRANCH   2  16
ATOM     16  C   UNL     1       6.442   4.620  14.507  0.00  0.00    +0.000 A 
ATOM     17  C   UNL     1       7.503   5.356  13.958  0.00  0.00    +0.000 A 
ATOM     18  C   UNL     1       7.895   5.137  12.636  0.00  0.00    +0.000 A 
ATOM     19  C   UNL     1       7.216   4.199  11.866  0.00  0.00    +0.000 A 
ATOM     20  F   UNL     1       7.589   3.992  10.597  0.00  0.00    +0.000 F 
ATOM     21  C   UNL     1       6.150   3.476  12.393  0.00  0.00    +0.000 A 
ATOM     22  C   UNL     1       5.757   3.685  13.718  0.00  0.00    +0.000 A 
ENDBRANCH   2  16
TORSDOF 2
ENDMDL
MODEL 2
REMARK VINA RESULT:      -7.5      5.598      6.534
REMARK  Name = 
REMARK  2 active torsions:
REMARK  status: ('A' for Active; 'I' for Inactive)
REMARK    1  A    between atoms: C_2  and  C_14
REMARK    2  A    between atoms: N_3  and  N_4
REMARK                            x       y       z     vdW  Elec       q    Type
REMARK                         _______ _______ _______ _____ _____    ______ ____
ROOT
ATOM      1  O   UNL     1       8.592   7.390  18.949  0.00  0.00    +0.000 OA
ATOM      2  C   UNL     1       8.339   8.295  18.159  0.00  0.00    +0.000 C 
ATOM      3  N   UNL     1       7.771   8.077  16.919  0.00  0.00    +0.000 N 
ATOM      4  H   UNL     1       7.642   8.770  16.188  0.00  0.00    +0.000 HD
ENDROOT
BRANCH   3   5
ATOM      5  N   UNL     1       7.435   6.758  16.590  0.00  0.00    +0.000 N 
ATOM      6  C   UNL     1       6.259   6.225  17.003  0.00  0.00    +0.000 A 
ATOM      7  N   UNL     1       5.170   6.918  17.257  0.00  0.00    +0.000 NA
ATOM      8  C   UNL     1       4.146   6.070  17.654  0.00  0.00    +0.000 A 
ATOM      9  C   UNL     1       2.828   6.454  17.978  0.00  0.00    +0.000 A 
ATOM     10  C   UNL     1       1.901   5.489  18.391  0.00  0.00    +0.000 A 
ATOM     11  C   UNL     1       2.272   4.152  18.489  0.00  0.00    +0.000 A 
ATOM     12  C   UNL     1       3.569   3.743  18.162  0.00  0.00    +0.000 A 
ATOM     13  C   UNL     1       4.487   4.720  17.737  0.00  0.00    +0.000 A 
ATOM     14  S   UNL     1       6.122   4.527  17.243  0.00  0.00    +0.000 S 
ATOM     15  H   UNL     1       8.253   6.142  16.582  0.00  0.00    +0.000 HD
ENDBRANCH   3   5
BRANCH   2  16
ATOM     16  C   UNL     1       8.653   9.708  18.499  0.00  0.00    +0.000 A 
ATOM     17  C   UNL     1       8.321  10.709  17.574  0.00  0.00    +0.000 A 
ATOM     18  C   UNL     1       8.615  12.045  17.856  0.00  0.00    +0.000 A 
ATOM     19  C   UNL     1       9.252  12.371  19.048  0.00  0.00    +0.000 A 
ATOM     20  F   UNL     1       9.538  13.650  19.316  0.00  0.00    +0.000 F 
ATOM     21  C   UNL     1       9.605  11.384  19.965  0.00  0.00    +0.000 A 
ATOM     22  C   UNL     1       9.307  10.046  19.692  0.00  0.00    +0.000 A 
ENDBRANCH   2  16
TORSDOF 2
ENDMDL
MODEL 3
REMARK VINA RESULT:      -7.5      5.480      7.060
REMARK  Name = 
REMARK  2 active torsions:
REMARK  status: ('A' for Active; 'I' for Inactive)
REMARK    1  A    between atoms: C_2  and  C_14
REMARK    2  A    between atoms: N_3  and  N_4
REMARK                            x       y       z     vdW  Elec       q    Type
REMARK                         _______ _______ _______ _____ _____    ______ ____
ROOT
ATOM      1  O   UNL     1       4.157   7.120  17.501  0.00  0.00    +0.000 OA
ATOM      2  C   UNL     1       3.315   6.475  18.120  0.00  0.00    +0.000 C 
ATOM      3  N   UNL     1       2.226   7.056  18.739  0.00  0.00    +0.000 N 
ATOM      4  H   UNL     1       1.564   6.589  19.351  0.00  0.00    +0.000 HD
ENDROOT
BRANCH   3   5
ATOM      5  N   UNL     1       2.072   8.442  18.602  0.00  0.00    +0.000 N 
ATOM      6  C   UNL     1       1.304   9.138  19.475  0.00  0.00    +0.000 A 
ATOM      7  N   UNL     1       1.069   8.779  20.719  0.00  0.00    +0.000 NA
ATOM      8  C   UNL     1       0.250   9.711  21.338  0.00  0.00    +0.000 A 
ATOM      9  C   UNL     1      -0.186   9.673  22.680  0.00  0.00    +0.000 A 
ATOM     10  C   UNL     1      -1.038  10.673  23.166  0.00  0.00    +0.000 A 
ATOM     11  C   UNL     1      -1.462  11.703  22.333  0.00  0.00    +0.000 A 
ATOM     12  C   UNL     1      -1.035  11.770  21.003  0.00  0.00    +0.000 A 
ATOM     13  C   UNL     1      -0.171  10.768  20.531  0.00  0.00    +0.000 A 
ATOM     14  S   UNL     1       0.542  10.597  18.975  0.00  0.00    +0.000 S 
ATOM     15  H   UNL     1       2.048   8.732  17.620  0.00  0.00    +0.000 HD
ENDBRANCH   3   5
BRANCH   2  16
ATOM     16  C   UNL     1       3.436   5.000  18.250  0.00  0.00    +0.000 A 
ATOM     17  C   UNL     1       2.574   4.188  17.496  0.00  0.00    +0.000 A 
ATOM     18  C   UNL     1       2.651   2.798  17.604  0.00  0.00    +0.000 A 
ATOM     19  C   UNL     1       3.573   2.228  18.475  0.00  0.00    +0.000 A 
ATOM     20  F   UNL     1       3.644   0.896  18.582  0.00  0.00    +0.000 F 
ATOM     21  C   UNL     1       4.419   3.023  19.243  0.00  0.00    +0.000 A 
ATOM     22  C   UNL     1       4.353   4.414  19.134  0.00  0.00    +0.000 A 
ENDBRANCH   2  16
TORSDOF 2
ENDMDL
MODEL 4
REMARK VINA RESULT:      -7.4      5.543      6.668
REMARK  Name = 
REMARK  2 active torsions:
REMARK  status: ('A' for Active; 'I' for Inactive)
REMARK    1  A    between atoms: C_2  and  C_14
REMARK    2  A    between atoms: N_3  and  N_4
REMARK                            x       y       z     vdW  Elec       q    Type
REMARK                         _______ _______ _______ _____ _____    ______ ____
ROOT
ATOM      1  O   UNL     1       2.018   4.995  19.812  0.00  0.00    +0.000 OA
ATOM      2  C   UNL     1       2.655   5.925  19.326  0.00  0.00    +0.000 C 
ATOM      3  N   UNL     1       2.584   7.219  19.804  0.00  0.00    +0.000 N 
ATOM      4  H   UNL     1       3.001   8.040  19.376  0.00  0.00    +0.000 HD
ENDROOT
BRANCH   3   5
ATOM      5  N   UNL     1       1.775   7.446  20.925  0.00  0.00    +0.000 N 
ATOM      6  C   UNL     1       1.031   8.575  21.018  0.00  0.00    +0.000 A 
ATOM      7  N   UNL     1       0.581   9.264  19.991  0.00  0.00    +0.000 NA
ATOM      8  C   UNL     1      -0.147  10.358  20.432  0.00  0.00    +0.000 A 
ATOM      9  C   UNL     1      -0.804  11.303  19.616  0.00  0.00    +0.000 A 
ATOM     10  C   UNL     1      -1.483  12.379  20.201  0.00  0.00    +0.000 A 
ATOM     11  C   UNL     1      -1.512  12.527  21.583  0.00  0.00    +0.000 A 
ATOM     12  C   UNL     1      -0.879  11.597  22.416  0.00  0.00    +0.000 A 
ATOM     13  C   UNL     1      -0.211  10.515  21.817  0.00  0.00    +0.000 A 
ATOM     14  S   UNL     1       0.623   9.210  22.563  0.00  0.00    +0.000 S 
ATOM     15  H   UNL     1       2.202   7.092  21.786  0.00  0.00    +0.000 HD
ENDBRANCH   3   5
BRANCH   2  16
ATOM     16  C   UNL     1       3.548   5.703  18.159  0.00  0.00    +0.000 A 
ATOM     17  C   UNL     1       4.114   6.821  17.527  0.00  0.00    +0.000 A 
ATOM     18  C   UNL     1       4.947   6.649  16.418  0.00  0.00    +0.000 A 
ATOM     19  C   UNL     1       5.194   5.368  15.938  0.00  0.00    +0.000 A 
ATOM     20  F   UNL     1       5.988   5.204  14.873  0.00  0.00    +0.000 F 
ATOM     21  C   UNL     1       4.622   4.253  16.544  0.00  0.00    +0.000 A 
ATOM     22  C   UNL     1       3.795   4.417  17.658  0.00  0.00    +0.000 A 
ENDBRANCH   2  16
TORSDOF 2
ENDMDL
MODEL 5
REMARK VINA RESULT:      -7.4      5.589      6.791
REMARK  Name = 
REMARK  2 active torsions:
REMARK  status: ('A' for Active; 'I' for Inactive)
REMARK    1  A    between atoms: C_2  and  C_14
REMARK    2  A    between atoms: N_3  and  N_4
REMARK                            x       y       z     vdW  Elec       q    Type
REMARK                         _______ _______ _______ _____ _____    ______ ____
ROOT
ATOM      1  O   UNL     1       2.619   5.067  20.257  0.00  0.00    +0.000 OA
ATOM      2  C   UNL     1       2.876   6.010  19.515  0.00  0.00    +0.000 C 
ATOM      3  N   UNL     1       2.464   7.303  19.768  0.00  0.00    +0.000 N 
ATOM      4  H   UNL     1       2.553   8.096  19.139  0.00  0.00    +0.000 HD
ENDROOT
BRANCH   3   5
ATOM      5  N   UNL     1       1.760   7.531  20.957  0.00  0.00    +0.000 N 
ATOM      6  C   UNL     1       0.985   8.635  21.096  0.00  0.00    +0.000 A 
ATOM      7  N   UNL     1       0.411   9.279  20.102  0.00  0.00    +0.000 NA
ATOM      8  C   UNL     1      -0.313  10.358  20.587  0.00  0.00    +0.000 A 
ATOM      9  C   UNL     1      -1.081  11.256  19.817  0.00  0.00    +0.000 A 
ATOM     10  C   UNL     1      -1.742  12.322  20.440  0.00  0.00    +0.000 A 
ATOM     11  C   UNL     1      -1.641  12.506  21.815  0.00  0.00    +0.000 A 
ATOM     12  C   UNL     1      -0.895  11.624  22.602  0.00  0.00    +0.000 A 
ATOM     13  C   UNL     1      -0.247  10.551  21.967  0.00  0.00    +0.000 A 
ATOM     14  S   UNL     1       0.705   9.297  22.659  0.00  0.00    +0.000 S 
ATOM     15  H   UNL     1       2.281   7.217  21.780  0.00  0.00    +0.000 HD
ENDBRANCH   3   5
BRANCH   2  16
ATOM     16  C   UNL     1       3.652   5.800  18.264  0.00  0.00    +0.000 A 
ATOM     17  C   UNL     1       3.881   4.485  17.831  0.00  0.00    +0.000 A 
ATOM     18  C   UNL     1       4.618   4.252  16.668  0.00  0.00    +0.000 A 
ATOM     19  C   UNL     1       5.136   5.328  15.957  0.00  0.00    +0.000 A 
ATOM     20  F   UNL     1       5.847   5.104  14.845  0.00  0.00    +0.000 F 
ATOM     21  C   UNL     1       4.934   6.636  16.388  0.00  0.00    +0.000 A 
ATOM     22  C   UNL     1       4.190   6.877  17.546  0.00  0.00    +0.000 A 
ENDBRANCH   2  16
TORSDOF 2
ENDMDL
MODEL 6
REMARK VINA RESULT:      -7.3      0.263      1.114
REMARK  Name = 
REMARK  2 active torsions:
REMARK  status: ('A' for Active; 'I' for Inactive)
REMARK    1  A    between atoms: C_2  and  C_14
REMARK    2  A    between atoms: N_3  and  N_4
REMARK                            x       y       z     vdW  Elec       q    Type
REMARK                         _______ _______ _______ _____ _____    ______ ____
ROOT
ATOM      1  O   UNL     1       5.198   6.067  15.955  0.00  0.00    +0.000 OA
ATOM      2  C   UNL     1       5.960   5.122  15.774  0.00  0.00    +0.000 C 
ATOM      3  N   UNL     1       6.474   4.360  16.805  0.00  0.00    +0.000 N 
ATOM      4  H   UNL     1       7.189   3.643  16.723  0.00  0.00    +0.000 HD
ENDROOT
BRANCH   3   5
ATOM      5  N   UNL     1       6.055   4.672  18.105  0.00  0.00    +0.000 N 
ATOM      6  C   UNL     1       4.818   4.316  18.531  0.00  0.00    +0.000 A 
ATOM      7  N   UNL     1       4.129   3.295  18.067  0.00  0.00    +0.000 NA
ATOM      8  C   UNL     1       2.908   3.207  18.719  0.00  0.00    +0.000 A 
ATOM      9  C   UNL     1       1.922   2.221  18.506  0.00  0.00    +0.000 A 
ATOM     10  C   UNL     1       0.719   2.272  19.221  0.00  0.00    +0.000 A 
ATOM     11  C   UNL     1       0.485   3.291  20.138  0.00  0.00    +0.000 A 
ATOM     12  C   UNL     1       1.452   4.274  20.376  0.00  0.00    +0.000 A 
ATOM     13  C   UNL     1       2.660   4.205  19.661  0.00  0.00    +0.000 A 
ATOM     14  S   UNL     1       4.034   5.234  19.756  0.00  0.00    +0.000 S 
ATOM     15  H   UNL     1       6.420   5.574  18.422  0.00  0.00    +0.000 HD
ENDBRANCH   3   5
BRANCH   2  16
ATOM     16  C   UNL     1       6.392   4.748  14.402  0.00  0.00    +0.000 A 
ATOM     17  C   UNL     1       5.680   3.747  13.725  0.00  0.00    +0.000 A 
ATOM     18  C   UNL     1       6.068   3.362  12.439  0.00  0.00    +0.000 A 
ATOM     19  C   UNL     1       7.171   3.965  11.846  0.00  0.00    +0.000 A 
ATOM     20  F   UNL     1       7.546   3.593  10.617  0.00  0.00    +0.000 F 
ATOM     21  C   UNL     1       7.898   4.945  12.516  0.00  0.00    +0.000 A 
ATOM     22  C   UNL     1       7.511   5.341  13.799  0.00  0.00    +0.000 A 
ENDBRANCH   2  16
TORSDOF 2
ENDMDL
MODEL 7
REMARK VINA RESULT:      -7.3      5.710      7.092
REMARK  Name = 
REMARK  2 active torsions:
REMARK  status: ('A' for Active; 'I' for Inactive)
REMARK    1  A    between atoms: C_2  and  C_14
REMARK    2  A    between atoms: N_3  and  N_4
REMARK                            x       y       z     vdW  Elec       q    Type
REMARK                         _______ _______ _______ _____ _____    ______ ____
ROOT
ATOM      1  O   UNL     1       4.025   7.621  17.492  0.00  0.00    +0.000 OA
ATOM      2  C   UNL     1       3.076   6.963  17.907  0.00  0.00    +0.000 C 
ATOM      3  N   UNL     1       1.937   7.536  18.439  0.00  0.00    +0.000 N 
ATOM      4  H   UNL     1       1.174   7.043  18.894  0.00  0.00    +0.000 HD
ENDROOT
BRANCH   3   5
ATOM      5  N   UNL     1       1.867   8.935  18.451  0.00  0.00    +0.000 N 
ATOM      6  C   UNL     1       1.120   9.577  19.383  0.00  0.00    +0.000 A 
ATOM      7  N   UNL     1       0.836   9.101  20.576  0.00  0.00    +0.000 NA
ATOM      8  C   UNL     1       0.058  10.008  21.279  0.00  0.00    +0.000 A 
ATOM      9  C   UNL     1      -0.411   9.851  22.600  0.00  0.00    +0.000 A 
ATOM     10  C   UNL     1      -1.214  10.842  23.178  0.00  0.00    +0.000 A 
ATOM     11  C   UNL     1      -1.559  11.980  22.457  0.00  0.00    +0.000 A 
ATOM     12  C   UNL     1      -1.097  12.165  21.149  0.00  0.00    +0.000 A 
ATOM     13  C   UNL     1      -0.282  11.169  20.585  0.00  0.00    +0.000 A 
ATOM     14  S   UNL     1       0.456  11.125  19.032  0.00  0.00    +0.000 S 
ATOM     15  H   UNL     1       1.884   9.330  17.507  0.00  0.00    +0.000 HD
ENDBRANCH   3   5
BRANCH   2  16
ATOM     16  C   UNL     1       3.110   5.478  17.872  0.00  0.00    +0.000 A 
ATOM     17  C   UNL     1       4.249   4.846  17.351  0.00  0.00    +0.000 A 
ATOM     18  C   UNL     1       4.308   3.452  17.290  0.00  0.00    +0.000 A 
ATOM     19  C   UNL     1       3.226   2.700  17.731  0.00  0.00    +0.000 A 
ATOM     20  F   UNL     1       3.281   1.364  17.668  0.00  0.00    +0.000 F 
ATOM     21  C   UNL     1       2.082   3.315  18.232  0.00  0.00    +0.000 A 
ATOM     22  C   UNL     1       2.019   4.709  18.303  0.00  0.00    +0.000 A 
ENDBRANCH   2  16
TORSDOF 2
ENDMDL
MODEL 8
REMARK VINA RESULT:      -7.3      1.371      1.765
REMARK  Name = 
REMARK  2 active torsions:
REMARK  status: ('A' for Active; 'I' for Inactive)
REMARK    1  A    between atoms: C_2  and  C_14
REMARK    2  A    between atoms: N_3  and  N_4
REMARK                            x       y       z     vdW  Elec       q    Type
REMARK                         _______ _______ _______ _____ _____    ______ ____
ROOT
ATOM      1  O   UNL     1       6.843   5.079  16.870  0.00  0.00    +0.000 OA
ATOM      2  C   UNL     1       6.130   5.350  15.909  0.00  0.00    +0.000 C 
ATOM      3  N   UNL     1       4.946   6.051  16.023  0.00  0.00    +0.000 N 
ATOM      4  H   UNL     1       4.267   6.208  15.283  0.00  0.00    +0.000 HD
ENDROOT
BRANCH   3   5
ATOM      5  N   UNL     1       4.587   6.503  17.300  0.00  0.00    +0.000 N 
ATOM      6  C   UNL     1       3.838   5.724  18.118  0.00  0.00    +0.000 A 
ATOM      7  N   UNL     1       3.803   4.410  18.079  0.00  0.00    +0.000 NA
ATOM      8  C   UNL     1       2.941   3.926  19.052  0.00  0.00    +0.000 A 
ATOM      9  C   UNL     1       2.676   2.567  19.325  0.00  0.00    +0.000 A 
ATOM     10  C   UNL     1       1.757   2.222  20.324  0.00  0.00    +0.000 A 
ATOM     11  C   UNL     1       1.099   3.210  21.048  0.00  0.00    +0.000 A 
ATOM     12  C   UNL     1       1.354   4.564  20.805  0.00  0.00    +0.000 A 
ATOM     13  C   UNL     1       2.287   4.897  19.808  0.00  0.00    +0.000 A 
ATOM     14  S   UNL     1       2.828   6.450  19.307  0.00  0.00    +0.000 S 
ATOM     15  H   UNL     1       4.408   7.511  17.316  0.00  0.00    +0.000 HD
ENDBRANCH   3   5
BRANCH   2  16
ATOM     16  C   UNL     1       6.506   4.914  14.539  0.00  0.00    +0.000 A 
ATOM     17  C   UNL     1       5.778   3.873  13.943  0.00  0.00    +0.000 A 
ATOM     18  C   UNL     1       6.114   3.429  12.663  0.00  0.00    +0.000 A 
ATOM     19  C   UNL     1       7.183   4.013  11.993  0.00  0.00    +0.000 A 
ATOM     20  F   UNL     1       7.509   3.584  10.768  0.00  0.00    +0.000 F 
ATOM     21  C   UNL     1       7.927   5.032  12.581  0.00  0.00    +0.000 A 
ATOM     22  C   UNL     1       7.591   5.487  13.859  0.00  0.00    +0.000 A 
ENDBRANCH   2  16
TORSDOF 2
ENDMDL
MODEL 9
REMARK VINA RESULT:      -7.2      6.387      7.714
REMARK  Name = 
REMARK  2 active torsions:
REMARK  status: ('A' for Active; 'I' for Inactive)
REMARK    1  A    between atoms: C_2  and  C_14
REMARK    2  A    between atoms: N_3  and  N_4
REMARK                            x       y       z     vdW  Elec       q    Type
REMARK                         _______ _______ _______ _____ _____    ______ ____
ROOT
ATOM      1  O   UNL     1       9.231  10.051  20.328  0.00  0.00    +0.000 OA
ATOM      2  C   UNL     1       9.212  10.168  19.106  0.00  0.00    +0.000 C 
ATOM      3  N   UNL     1       8.860   9.138  18.256  0.00  0.00    +0.000 N 
ATOM      4  H   UNL     1       8.931   9.145  17.243  0.00  0.00    +0.000 HD
ENDROOT
BRANCH   3   5
ATOM      5  N   UNL     1       8.467   7.928  18.842  0.00  0.00    +0.000 N 
ATOM      6  C   UNL     1       7.723   7.036  18.143  0.00  0.00    +0.000 A 
ATOM      7  N   UNL     1       7.722   6.924  16.832  0.00  0.00    +0.000 NA
ATOM      8  C   UNL     1       6.855   5.914  16.440  0.00  0.00    +0.000 A 
ATOM      9  C   UNL     1       6.618   5.491  15.115  0.00  0.00    +0.000 A 
ATOM     10  C   UNL     1       5.691   4.472  14.863  0.00  0.00    +0.000 A 
ATOM     11  C   UNL     1       4.995   3.877  15.910  0.00  0.00    +0.000 A 
ATOM     12  C   UNL     1       5.220   4.271  17.234  0.00  0.00    +0.000 A 
ATOM     13  C   UNL     1       6.162   5.286  17.475  0.00  0.00    +0.000 A 
ATOM     14  S   UNL     1       6.674   5.955  18.973  0.00  0.00    +0.000 S 
ATOM     15  H   UNL     1       8.263   8.030  19.840  0.00  0.00    +0.000 HD
ENDBRANCH   3   5
BRANCH   2  16
ATOM     16  C   UNL     1       9.589  11.453  18.461  0.00  0.00    +0.000 A 
ATOM     17  C   UNL     1      10.817  11.528  17.787  0.00  0.00    +0.000 A 
ATOM     18  C   UNL     1      11.209  12.724  17.182  0.00  0.00    +0.000 A 
ATOM     19  C   UNL     1      10.384  13.839  17.269  0.00  0.00    +0.000 A 
ATOM     20  F   UNL     1      10.762  14.987  16.693  0.00  0.00    +0.000 F 
ATOM     21  C   UNL     1       9.173  13.783  17.953  0.00  0.00    +0.000 A 
ATOM     22  C   UNL     1       8.771  12.587  18.553  0.00  0.00    +0.000 A 
ENDBRANCH   2  16
TORSDOF 2
ENDMDL
