MODEL 1
REMARK VINA RESULT:      -5.8      0.000      0.000
REMARK  Name = 
REMARK  11 active torsions:
REMARK  status: ('A' for Active; 'I' for Inactive)
REMARK    1  A    between atoms: C_1  and  C_2
REMARK    2  A    between atoms: C_2  and  C_3
REMARK    3  A    between atoms: C_3  and  C_4
REMARK    4  A    between atoms: C_3  and  N_6
REMARK    5  A    between atoms: C_4  and  C_5
REMARK    6  A    between atoms: C_9  and  C_10
REMARK    7  A    between atoms: C_9  and  C_11
REMARK    8  A    between atoms: C_11  and  C_12
REMARK    9  A    between atoms: C_12  and  O_14
REMARK   10  A    between atoms: C_16  and  C_17
REMARK   11  A    between atoms: C_24  and  C_25
REMARK                            x       y       z     vdW  Elec       q    Type
REMARK                         _______ _______ _______ _____ _____    ______ ____
ROOT
ATOM      1  N   UNL     1      -0.792  11.670  19.908  0.00  0.00    +0.000 N 
ATOM      2  C   UNL     1      -0.604  11.929  21.278  0.00  0.00    +0.000 C 
ATOM      3  O   UNL     1       0.350  11.517  21.932  0.00  0.00    +0.000 OA
ATOM      4  C   UNL     1      -1.508  13.035  21.838  0.00  0.00    +0.000 C 
ATOM      5  C   UNL     1      -1.453  13.021  23.377  0.00  0.00    +0.000 C 
ATOM      6  C   UNL     1      -2.968  12.821  21.417  0.00  0.00    +0.000 C 
ATOM      7  C   UNL     1      -3.135  12.552  19.917  0.00  0.00    +0.000 C 
ATOM      8  C   UNL     1      -2.185  11.375  19.499  0.00  0.00    +0.000 C 
ENDROOT
BRANCH   7   9
ATOM      9  C   UNL     1      -4.621  12.348  19.629  0.00  0.00    +0.000 A 
ATOM     10  C   UNL     1      -5.129  12.690  18.365  0.00  0.00    +0.000 A 
ATOM     11  C   UNL     1      -6.478  12.500  18.061  0.00  0.00    +0.000 A 
ATOM     12  C   UNL     1      -7.342  11.967  19.017  0.00  0.00    +0.000 A 
ATOM     13  C   UNL     1      -6.853  11.639  20.278  0.00  0.00    +0.000 A 
ATOM     14 CL   UNL     1      -7.909  10.977  21.464  0.00  0.00    +0.000 Cl
ATOM     15  C   UNL     1      -5.508  11.840  20.592  0.00  0.00    +0.000 A 
ENDBRANCH   7   9
BRANCH   8  16
ATOM     16  C   UNL     1      -2.422  10.913  18.058  0.00  0.00    +0.000 A 
ATOM     17  C   UNL     1      -2.148  11.729  16.947  0.00  0.00    +0.000 A 
ATOM     18  C   UNL     1      -2.626  11.391  15.676  0.00  0.00    +0.000 A 
ATOM     19  C   UNL     1      -3.339  10.210  15.493  0.00  0.00    +0.000 A 
ATOM     20 CL   UNL     1      -3.984   9.828  13.944  0.00  0.00    +0.000 Cl
ATOM     21  C   UNL     1      -3.554   9.348  16.563  0.00  0.00    +0.000 A 
ATOM     22  C   UNL     1      -3.096   9.697  17.837  0.00  0.00    +0.000 A 
ENDBRANCH   8  16
BRANCH   1  23
ATOM     23  C   UNL     1       0.394  11.238  19.105  0.00  0.00    +0.000 C 
BRANCH  23  25
ATOM     24  C   UNL     1       1.387  13.588  18.487  0.00  0.00    +0.000 C 
ATOM     25  C   UNL     1       1.499  12.314  19.304  0.00  0.00    +0.000 C 
ENDBRANCH  23  25
BRANCH  23  26
ATOM     26  C   UNL     1       0.805   9.785  19.431  0.00  0.00    +0.000 C 
ATOM     27  C   UNL     1       1.463   9.016  18.293  0.00  0.00    +0.000 C 
ENDBRANCH  23  26
ENDBRANCH   1  23
BRANCH   4  28
ATOM     28  C   UNL     1      -0.863  14.328  21.285  0.00  0.00    +0.000 C 
BRANCH  28  29
ATOM     29  C   UNL     1       0.152  14.965  22.189  0.00  0.00    +0.000 C 
ATOM     30  O   UNL     1      -0.095  15.930  22.898  0.00  0.00    +0.000 OA
BRANCH  29  31
ATOM     31  O   UNL     1       1.359  14.372  22.155  0.00  0.00    +0.000 OA
ATOM     32  H   UNL     1       2.122  14.992  22.140  0.00  0.00    +0.000 HD
ENDBRANCH  29  31
ENDBRANCH  28  29
ENDBRANCH   4  28
TORSDOF 8
ENDMDL
MODEL 2
REMARK VINA RESULT:      -5.6      4.003      6.565
REMARK  Name = 
REMARK  11 active torsions:
REMARK  status: ('A' for Active; 'I' for Inactive)
REMARK    1  A    between atoms: C_1  and  C_2
REMARK    2  A    between atoms: C_2  and  C_3
REMARK    3  A    between atoms: C_3  and  C_4
REMARK    4  A    between atoms: C_3  and  N_6
REMARK    5  A    between atoms: C_4  and  C_5
REMARK    6  A    between atoms: C_9  and  C_10
REMARK    7  A    between atoms: C_9  and  C_11
REMARK    8  A    between atoms: C_11  and  C_12
REMARK    9  A    between atoms: C_12  and  O_14
REMARK   10  A    between atoms: C_16  and  C_17
REMARK   11  A    between atoms: C_24  and  C_25
REMARK                            x       y       z     vdW  Elec       q    Type
REMARK                         _______ _______ _______ _____ _____    ______ ____
ROOT
ATOM      1  N   UNL     1      -2.249  14.977  23.109  0.00  0.00    +0.000 N 
ATOM      2  C   UNL     1      -3.021  14.409  24.139  0.00  0.00    +0.000 C 
ATOM      3  O   UNL     1      -3.254  14.962  25.210  0.00  0.00    +0.000 OA
ATOM      4  C   UNL     1      -3.829  13.176  23.712  0.00  0.00    +0.000 C 
ATOM      5  C   UNL     1      -4.377  12.458  24.960  0.00  0.00    +0.000 C 
ATOM      6  C   UNL     1      -2.952  12.181  22.942  0.00  0.00    +0.000 C 
ATOM      7  C   UNL     1      -2.133  12.832  21.821  0.00  0.00    +0.000 C 
ATOM      8  C   UNL     1      -1.331  14.045  22.412  0.00  0.00    +0.000 C 
ENDROOT
BRANCH   7   9
ATOM      9  C   UNL     1      -1.301  11.746  21.142  0.00  0.00    +0.000 A 
ATOM     10  C   UNL     1      -1.418  11.559  19.755  0.00  0.00    +0.000 A 
ATOM     11  C   UNL     1      -0.660  10.588  19.098  0.00  0.00    +0.000 A 
ATOM     12  C   UNL     1       0.225   9.787  19.818  0.00  0.00    +0.000 A 
ATOM     13  C   UNL     1       0.337   9.952  21.195  0.00  0.00    +0.000 A 
ATOM     14 CL   UNL     1       1.428   8.972  22.093  0.00  0.00    +0.000 Cl
ATOM     15  C   UNL     1      -0.429  10.911  21.860  0.00  0.00    +0.000 A 
ENDBRANCH   7   9
BRANCH   8  16
ATOM     16  C   UNL     1      -0.342  14.639  21.406  0.00  0.00    +0.000 A 
ATOM     17  C   UNL     1      -0.749  15.189  20.178  0.00  0.00    +0.000 A 
ATOM     18  C   UNL     1       0.186  15.469  19.175  0.00  0.00    +0.000 A 
ATOM     19  C   UNL     1       1.540  15.250  19.405  0.00  0.00    +0.000 A 
ATOM     20 CL   UNL     1       2.681  15.530  18.148  0.00  0.00    +0.000 Cl
ATOM     21  C   UNL     1       1.974  14.780  20.641  0.00  0.00    +0.000 A 
ATOM     22  C   UNL     1       1.038  14.480  21.636  0.00  0.00    +0.000 A 
ENDBRANCH   8  16
BRANCH   1  23
ATOM     23  C   UNL     1      -2.040  16.458  23.121  0.00  0.00    +0.000 C 
BRANCH  23  25
ATOM     24  C   UNL     1      -4.036  17.062  21.525  0.00  0.00    +0.000 C 
ATOM     25  C   UNL     1      -3.434  17.118  22.917  0.00  0.00    +0.000 C 
ENDBRANCH  23  25
BRANCH  23  26
ATOM     26  C   UNL     1      -1.257  16.913  24.372  0.00  0.00    +0.000 C 
ATOM     27  C   UNL     1       0.233  17.152  24.165  0.00  0.00    +0.000 C 
ENDBRANCH  23  26
ENDBRANCH   1  23
BRANCH   4  28
ATOM     28  C   UNL     1      -4.987  13.786  22.887  0.00  0.00    +0.000 C 
BRANCH  28  29
ATOM     29  C   UNL     1      -6.219  14.122  23.677  0.00  0.00    +0.000 C 
ATOM     30  O   UNL     1      -7.197  13.392  23.735  0.00  0.00    +0.000 OA
BRANCH  29  31
ATOM     31  O   UNL     1      -6.145  15.300  24.323  0.00  0.00    +0.000 OA
ATOM     32  H   UNL     1      -5.740  16.029  23.803  0.00  0.00    +0.000 HD
ENDBRANCH  29  31
ENDBRANCH  28  29
ENDBRANCH   4  28
TORSDOF 8
ENDMDL
MODEL 3
REMARK VINA RESULT:      -5.6      3.164      5.935
REMARK  Name = 
REMARK  11 active torsions:
REMARK  status: ('A' for Active; 'I' for Inactive)
REMARK    1  A    between atoms: C_1  and  C_2
REMARK    2  A    between atoms: C_2  and  C_3
REMARK    3  A    between atoms: C_3  and  C_4
REMARK    4  A    between atoms: C_3  and  N_6
REMARK    5  A    between atoms: C_4  and  C_5
REMARK    6  A    between atoms: C_9  and  C_10
REMARK    7  A    between atoms: C_9  and  C_11
REMARK    8  A    between atoms: C_11  and  C_12
REMARK    9  A    between atoms: C_12  and  O_14
REMARK   10  A    between atoms: C_16  and  C_17
REMARK   11  A    between atoms: C_24  and  C_25
REMARK                            x       y       z     vdW  Elec       q    Type
REMARK                         _______ _______ _______ _____ _____    ______ ____
ROOT
ATOM      1  N   UNL     1      -0.415  12.284  21.219  0.00  0.00    +0.000 N 
ATOM      2  C   UNL     1       0.973  12.468  21.079  0.00  0.00    +0.000 C 
ATOM      3  O   UNL     1       1.779  11.551  20.944  0.00  0.00    +0.000 OA
ATOM      4  C   UNL     1       1.389  13.914  20.780  0.00  0.00    +0.000 C 
ATOM      5  C   UNL     1       2.912  14.063  20.958  0.00  0.00    +0.000 C 
ATOM      6  C   UNL     1       0.704  14.895  21.741  0.00  0.00    +0.000 C 
ATOM      7  C   UNL     1      -0.808  14.672  21.861  0.00  0.00    +0.000 C 
ATOM      8  C   UNL     1      -1.077  13.166  22.209  0.00  0.00    +0.000 C 
ENDROOT
BRANCH   7   9
ATOM      9  C   UNL     1      -1.366  15.697  22.847  0.00  0.00    +0.000 A 
ATOM     10  C   UNL     1      -2.323  16.625  22.402  0.00  0.00    +0.000 A 
ATOM     11  C   UNL     1      -2.869  17.564  23.279  0.00  0.00    +0.000 A 
ATOM     12  C   UNL     1      -2.464  17.593  24.613  0.00  0.00    +0.000 A 
ATOM     13  C   UNL     1      -1.505  16.689  25.060  0.00  0.00    +0.000 A 
ATOM     14 CL   UNL     1      -1.001  16.713  26.705  0.00  0.00    +0.000 Cl
ATOM     15  C   UNL     1      -0.946  15.757  24.185  0.00  0.00    +0.000 A 
ENDBRANCH   7   9
BRANCH   8  16
ATOM     16  C   UNL     1      -2.549  12.893  22.533  0.00  0.00    +0.000 A 
ATOM     17  C   UNL     1      -3.586  13.150  21.618  0.00  0.00    +0.000 A 
ATOM     18  C   UNL     1      -4.922  13.152  22.034  0.00  0.00    +0.000 A 
ATOM     19  C   UNL     1      -5.240  12.847  23.355  0.00  0.00    +0.000 A 
ATOM     20 CL   UNL     1      -6.877  12.915  23.881  0.00  0.00    +0.000 Cl
ATOM     21  C   UNL     1      -4.236  12.513  24.258  0.00  0.00    +0.000 A 
ATOM     22  C   UNL     1      -2.899  12.532  23.848  0.00  0.00    +0.000 A 
ENDBRANCH   8  16
BRANCH   1  23
ATOM     23  C   UNL     1      -1.000  10.979  20.780  0.00  0.00    +0.000 C 
BRANCH  23  25
ATOM     24  C   UNL     1      -1.869  11.902  18.481  0.00  0.00    +0.000 C 
ATOM     25  C   UNL     1      -0.947  10.953  19.226  0.00  0.00    +0.000 C 
ENDBRANCH  23  25
BRANCH  23  26
ATOM     26  C   UNL     1      -0.331   9.785  21.495  0.00  0.00    +0.000 C 
ATOM     27  C   UNL     1      -0.566   9.701  22.998  0.00  0.00    +0.000 C 
ENDBRANCH  23  26
ENDBRANCH   1  23
BRANCH   4  28
ATOM     28  C   UNL     1       0.998  14.091  19.294  0.00  0.00    +0.000 C 
BRANCH  28  29
ATOM     29  C   UNL     1       2.067  13.715  18.309  0.00  0.00    +0.000 C 
ATOM     30  O   UNL     1       2.868  14.518  17.852  0.00  0.00    +0.000 OA
BRANCH  29  31
ATOM     31  O   UNL     1       2.068  12.411  17.979  0.00  0.00    +0.000 OA
ATOM     32  H   UNL     1       2.905  11.937  18.180  0.00  0.00    +0.000 HD
ENDBRANCH  29  31
ENDBRANCH  28  29
ENDBRANCH   4  28
TORSDOF 8
ENDMDL
MODEL 4
REMARK VINA RESULT:      -5.6      3.592      6.556
REMARK  Name = 
REMARK  11 active torsions:
REMARK  status: ('A' for Active; 'I' for Inactive)
REMARK    1  A    between atoms: C_1  and  C_2
REMARK    2  A    between atoms: C_2  and  C_3
REMARK    3  A    between atoms: C_3  and  C_4
REMARK    4  A    between atoms: C_3  and  N_6
REMARK    5  A    between atoms: C_4  and  C_5
REMARK    6  A    between atoms: C_9  and  C_10
REMARK    7  A    between atoms: C_9  and  C_11
REMARK    8  A    between atoms: C_11  and  C_12
REMARK    9  A    between atoms: C_12  and  O_14
REMARK   10  A    between atoms: C_16  and  C_17
REMARK   11  A    between atoms: C_24  and  C_25
REMARK                            x       y       z     vdW  Elec       q    Type
REMARK                         _______ _______ _______ _____ _____    ______ ____
ROOT
ATOM      1  N   UNL     1      -2.190  14.921  22.819  0.00  0.00    +0.000 N 
ATOM      2  C   UNL     1      -3.005  14.472  23.874  0.00  0.00    +0.000 C 
ATOM      3  O   UNL     1      -3.314  15.158  24.845  0.00  0.00    +0.000 OA
ATOM      4  C   UNL     1      -3.753  13.166  23.578  0.00  0.00    +0.000 C 
ATOM      5  C   UNL     1      -4.353  12.605  24.882  0.00  0.00    +0.000 C 
ATOM      6  C   UNL     1      -2.807  12.106  23.000  0.00  0.00    +0.000 C 
ATOM      7  C   UNL     1      -1.942  12.628  21.846  0.00  0.00    +0.000 C 
ATOM      8  C   UNL     1      -1.208  13.936  22.307  0.00  0.00    +0.000 C 
ENDROOT
BRANCH   7   9
ATOM      9  C   UNL     1      -1.043  11.488  21.369  0.00  0.00    +0.000 A 
ATOM     10  C   UNL     1      -0.347  10.721  22.316  0.00  0.00    +0.000 A 
ATOM     11  C   UNL     1       0.469   9.660  21.917  0.00  0.00    +0.000 A 
ATOM     12  C   UNL     1       0.603   9.352  20.564  0.00  0.00    +0.000 A 
ATOM     13  C   UNL     1      -0.070  10.116  19.616  0.00  0.00    +0.000 A 
ATOM     14 CL   UNL     1       0.085   9.743  17.943  0.00  0.00    +0.000 Cl
ATOM     15  C   UNL     1      -0.875  11.186  20.008  0.00  0.00    +0.000 A 
ENDBRANCH   7   9
BRANCH   8  16
ATOM     16  C   UNL     1      -0.178  14.422  21.283  0.00  0.00    +0.000 A 
ATOM     17  C   UNL     1      -0.531  14.799  19.976  0.00  0.00    +0.000 A 
ATOM     18  C   UNL     1       0.450  14.973  18.993  0.00  0.00    +0.000 A 
ATOM     19  C   UNL     1       1.795  14.820  19.317  0.00  0.00    +0.000 A 
ATOM     20 CL   UNL     1       2.995  14.966  18.093  0.00  0.00    +0.000 Cl
ATOM     21  C   UNL     1       2.171  14.523  20.623  0.00  0.00    +0.000 A 
ATOM     22  C   UNL     1       1.190  14.329  21.601  0.00  0.00    +0.000 A 
ENDBRANCH   8  16
BRANCH   1  23
ATOM     23  C   UNL     1      -2.022  16.397  22.638  0.00  0.00    +0.000 C 
BRANCH  23  25
ATOM     24  C   UNL     1      -3.801  16.652  20.725  0.00  0.00    +0.000 C 
ATOM     25  C   UNL     1      -3.389  16.957  22.154  0.00  0.00    +0.000 C 
ENDBRANCH  23  25
BRANCH  23  26
ATOM     26  C   UNL     1      -1.432  17.063  23.901  0.00  0.00    +0.000 C 
ATOM     27  C   UNL     1       0.088  17.073  23.991  0.00  0.00    +0.000 C 
ENDBRANCH  23  26
ENDBRANCH   1  23
BRANCH   4  28
ATOM     28  C   UNL     1      -4.878  13.617  22.616  0.00  0.00    +0.000 C 
BRANCH  28  29
ATOM     29  C   UNL     1      -5.743  12.509  22.089  0.00  0.00    +0.000 C 
ATOM     30  O   UNL     1      -5.525  11.934  21.033  0.00  0.00    +0.000 OA
BRANCH  29  31
ATOM     31  O   UNL     1      -6.777  12.200  22.891  0.00  0.00    +0.000 OA
ATOM     32  H   UNL     1      -7.575  12.760  22.768  0.00  0.00    +0.000 HD
ENDBRANCH  29  31
ENDBRANCH  28  29
ENDBRANCH   4  28
TORSDOF 8
ENDMDL
MODEL 5
REMARK VINA RESULT:      -5.6      3.753      6.381
REMARK  Name = 
REMARK  11 active torsions:
REMARK  status: ('A' for Active; 'I' for Inactive)
REMARK    1  A    between atoms: C_1  and  C_2
REMARK    2  A    between atoms: C_2  and  C_3
REMARK    3  A    between atoms: C_3  and  C_4
REMARK    4  A    between atoms: C_3  and  N_6
REMARK    5  A    between atoms: C_4  and  C_5
REMARK    6  A    between atoms: C_9  and  C_10
REMARK    7  A    between atoms: C_9  and  C_11
REMARK    8  A    between atoms: C_11  and  C_12
REMARK    9  A    between atoms: C_12  and  O_14
REMARK   10  A    between atoms: C_16  and  C_17
REMARK   11  A    between atoms: C_24  and  C_25
REMARK                            x       y       z     vdW  Elec       q    Type
REMARK                         _______ _______ _______ _____ _____    ______ ____
ROOT
ATOM      1  N   UNL     1      -0.038  12.045  19.899  0.00  0.00    +0.000 N 
ATOM      2  C   UNL     1      -1.411  11.771  19.762  0.00  0.00    +0.000 C 
ATOM      3  O   UNL     1      -1.863  10.706  19.351  0.00  0.00    +0.000 OA
ATOM      4  C   UNL     1      -2.326  12.780  20.467  0.00  0.00    +0.000 C 
ATOM      5  C   UNL     1      -3.780  12.577  20.000  0.00  0.00    +0.000 C 
ATOM      6  C   UNL     1      -1.921  14.221  20.132  0.00  0.00    +0.000 C 
ATOM      7  C   UNL     1      -0.420  14.486  20.301  0.00  0.00    +0.000 C 
ATOM      8  C   UNL     1       0.384  13.407  19.495  0.00  0.00    +0.000 C 
ENDROOT
BRANCH   7   9
ATOM      9  C   UNL     1      -0.146  15.942  19.930  0.00  0.00    +0.000 A 
ATOM     10  C   UNL     1       0.279  16.836  20.927  0.00  0.00    +0.000 A 
ATOM     11  C   UNL     1       0.557  18.169  20.620  0.00  0.00    +0.000 A 
ATOM     12  C   UNL     1       0.412  18.631  19.313  0.00  0.00    +0.000 A 
ATOM     13  C   UNL     1      -0.024  17.758  18.320  0.00  0.00    +0.000 A 
ATOM     14 CL   UNL     1      -0.203  18.316  16.703  0.00  0.00    +0.000 Cl
ATOM     15  C   UNL     1      -0.317  16.428  18.623  0.00  0.00    +0.000 A 
ENDBRANCH   7   9
BRANCH   8  16
ATOM     16  C   UNL     1       1.886  13.704  19.454  0.00  0.00    +0.000 A 
ATOM     17  C   UNL     1       2.626  14.023  20.606  0.00  0.00    +0.000 A 
ATOM     18  C   UNL     1       3.918  14.552  20.502  0.00  0.00    +0.000 A 
ATOM     19  C   UNL     1       4.501  14.722  19.251  0.00  0.00    +0.000 A 
ATOM     20 CL   UNL     1       6.061  15.436  19.121  0.00  0.00    +0.000 Cl
ATOM     21  C   UNL     1       3.817  14.341  18.101  0.00  0.00    +0.000 A 
ATOM     22  C   UNL     1       2.519  13.832  18.203  0.00  0.00    +0.000 A 
ENDBRANCH   8  16
BRANCH   1  23
ATOM     23  C   UNL     1       0.909  10.888  19.949  0.00  0.00    +0.000 C 
BRANCH  23  25
ATOM     24  C   UNL     1       0.800   8.744  21.460  0.00  0.00    +0.000 C 
ATOM     25  C   UNL     1       0.789  10.259  21.366  0.00  0.00    +0.000 C 
ENDBRANCH  23  25
BRANCH  23  26
ATOM     26  C   UNL     1       0.691   9.921  18.764  0.00  0.00    +0.000 C 
ATOM     27  C   UNL     1       1.891   9.722  17.847  0.00  0.00    +0.000 C 
ENDBRANCH  23  26
ENDBRANCH   1  23
BRANCH   4  28
ATOM     28  C   UNL     1      -2.180  12.402  21.960  0.00  0.00    +0.000 C 
BRANCH  28  29
ATOM     29  C   UNL     1      -3.187  13.037  22.876  0.00  0.00    +0.000 C 
ATOM     30  O   UNL     1      -3.158  14.219  23.185  0.00  0.00    +0.000 OA
BRANCH  29  31
ATOM     31  O   UNL     1      -4.129  12.186  23.319  0.00  0.00    +0.000 OA
ATOM     32  H   UNL     1      -5.051  12.439  23.091  0.00  0.00    +0.000 HD
ENDBRANCH  29  31
ENDBRANCH  28  29
ENDBRANCH   4  28
TORSDOF 8
ENDMDL
MODEL 6
REMARK VINA RESULT:      -5.6      3.586      6.637
REMARK  Name = 
REMARK  11 active torsions:
REMARK  status: ('A' for Active; 'I' for Inactive)
REMARK    1  A    between atoms: C_1  and  C_2
REMARK    2  A    between atoms: C_2  and  C_3
REMARK    3  A    between atoms: C_3  and  C_4
REMARK    4  A    between atoms: C_3  and  N_6
REMARK    5  A    between atoms: C_4  and  C_5
REMARK    6  A    between atoms: C_9  and  C_10
REMARK    7  A    between atoms: C_9  and  C_11
REMARK    8  A    between atoms: C_11  and  C_12
REMARK    9  A    between atoms: C_12  and  O_14
REMARK   10  A    between atoms: C_16  and  C_17
REMARK   11  A    between atoms: C_24  and  C_25
REMARK                            x       y       z     vdW  Elec       q    Type
REMARK                         _______ _______ _______ _____ _____    ______ ____
ROOT
ATOM      1  N   UNL     1      -1.866  14.845  22.690  0.00  0.00    +0.000 N 
ATOM      2  C   UNL     1      -2.762  14.443  23.697  0.00  0.00    +0.000 C 
ATOM      3  O   UNL     1      -3.097  15.151  24.643  0.00  0.00    +0.000 OA
ATOM      4  C   UNL     1      -3.550  13.169  23.366  0.00  0.00    +0.000 C 
ATOM      5  C   UNL     1      -4.252  12.648  24.635  0.00  0.00    +0.000 C 
ATOM      6  C   UNL     1      -2.620  12.062  22.854  0.00  0.00    +0.000 C 
ATOM      7  C   UNL     1      -1.665  12.533  21.750  0.00  0.00    +0.000 C 
ATOM      8  C   UNL     1      -0.901  13.811  22.245  0.00  0.00    +0.000 C 
ENDROOT
BRANCH   7   9
ATOM      9  C   UNL     1      -0.791  11.350  21.336  0.00  0.00    +0.000 A 
ATOM     10  C   UNL     1      -0.243  10.522  22.328  0.00  0.00    +0.000 A 
ATOM     11  C   UNL     1       0.545   9.420  21.986  0.00  0.00    +0.000 A 
ATOM     12  C   UNL     1       0.798   9.132  20.645  0.00  0.00    +0.000 A 
ATOM     13  C   UNL     1       0.272   9.956  19.654  0.00  0.00    +0.000 A 
ATOM     14 CL   UNL     1       0.575   9.607  17.997  0.00  0.00    +0.000 Cl
ATOM     15  C   UNL     1      -0.504  11.065  19.991  0.00  0.00    +0.000 A 
ENDBRANCH   7   9
BRANCH   8  16
ATOM     16  C   UNL     1       0.209  14.241  21.282  0.00  0.00    +0.000 A 
ATOM     17  C   UNL     1       1.550  14.376  21.684  0.00  0.00    +0.000 A 
ATOM     18  C   UNL     1       2.480  15.026  20.865  0.00  0.00    +0.000 A 
ATOM     19  C   UNL     1       2.093  15.503  19.617  0.00  0.00    +0.000 A 
ATOM     20 CL   UNL     1       3.220  16.362  18.640  0.00  0.00    +0.000 Cl
ATOM     21  C   UNL     1       0.792  15.311  19.166  0.00  0.00    +0.000 A 
ATOM     22  C   UNL     1      -0.144  14.681  19.992  0.00  0.00    +0.000 A 
ENDBRANCH   8  16
BRANCH   1  23
ATOM     23  C   UNL     1      -1.620  16.309  22.509  0.00  0.00    +0.000 C 
BRANCH  23  25
ATOM     24  C   UNL     1      -3.354  16.727  20.582  0.00  0.00    +0.000 C 
ATOM     25  C   UNL     1      -2.958  16.942  22.032  0.00  0.00    +0.000 C 
ENDBRANCH  23  25
BRANCH  23  26
ATOM     26  C   UNL     1      -0.991  16.942  23.770  0.00  0.00    +0.000 C 
ATOM     27  C   UNL     1       0.472  17.349  23.642  0.00  0.00    +0.000 C 
ENDBRANCH  23  26
ENDBRANCH   1  23
BRANCH   4  28
ATOM     28  C   UNL     1      -4.593  13.661  22.334  0.00  0.00    +0.000 C 
BRANCH  28  29
ATOM     29  C   UNL     1      -5.276  12.573  21.556  0.00  0.00    +0.000 C 
ATOM     30  O   UNL     1      -6.162  11.873  22.023  0.00  0.00    +0.000 OA
BRANCH  29  31
ATOM     31  O   UNL     1      -4.828  12.444  20.295  0.00  0.00    +0.000 OA
ATOM     32  H   UNL     1      -5.533  12.382  19.613  0.00  0.00    +0.000 HD
ENDBRANCH  29  31
ENDBRANCH  28  29
ENDBRANCH   4  28
TORSDOF 8
ENDMDL
MODEL 7
REMARK VINA RESULT:      -5.6      4.008      6.782
REMARK  Name = 
REMARK  11 active torsions:
REMARK  status: ('A' for Active; 'I' for Inactive)
REMARK    1  A    between atoms: C_1  and  C_2
REMARK    2  A    between atoms: C_2  and  C_3
REMARK    3  A    between atoms: C_3  and  C_4
REMARK    4  A    between atoms: C_3  and  N_6
REMARK    5  A    between atoms: C_4  and  C_5
REMARK    6  A    between atoms: C_9  and  C_10
REMARK    7  A    between atoms: C_9  and  C_11
REMARK    8  A    between atoms: C_11  and  C_12
REMARK    9  A    between atoms: C_12  and  O_14
REMARK   10  A    between atoms: C_16  and  C_17
REMARK   11  A    between atoms: C_24  and  C_25
REMARK                            x       y       z     vdW  Elec       q    Type
REMARK                         _______ _______ _______ _____ _____    ______ ____
ROOT
ATOM      1  N   UNL     1      -2.361  14.614  22.679  0.00  0.00    +0.000 N 
ATOM      2  C   UNL     1      -3.189  14.249  23.757  0.00  0.00    +0.000 C 
ATOM      3  O   UNL     1      -3.606  15.036  24.603  0.00  0.00    +0.000 OA
ATOM      4  C   UNL     1      -3.808  12.851  23.628  0.00  0.00    +0.000 C 
ATOM      5  C   UNL     1      -4.425  12.430  24.975  0.00  0.00    +0.000 C 
ATOM      6  C   UNL     1      -2.746  11.810  23.250  0.00  0.00    +0.000 C 
ATOM      7  C   UNL     1      -1.870  12.237  22.067  0.00  0.00    +0.000 C 
ATOM      8  C   UNL     1      -1.275  13.659  22.358  0.00  0.00    +0.000 C 
ENDROOT
BRANCH   7   9
ATOM      9  C   UNL     1      -0.854  11.128  21.799  0.00  0.00    +0.000 A 
ATOM     10  C   UNL     1      -0.375  10.362  22.874  0.00  0.00    +0.000 A 
ATOM     11  C   UNL     1       0.540   9.328  22.664  0.00  0.00    +0.000 A 
ATOM     12  C   UNL     1       0.992   9.046  21.376  0.00  0.00    +0.000 A 
ATOM     13  C   UNL     1       0.536   9.809  20.305  0.00  0.00    +0.000 A 
ATOM     14 CL   UNL     1       1.085   9.468  18.710  0.00  0.00    +0.000 Cl
ATOM     15  C   UNL     1      -0.367  10.853  20.511  0.00  0.00    +0.000 A 
ENDBRANCH   7   9
BRANCH   8  16
ATOM     16  C   UNL     1      -0.237  14.086  21.315  0.00  0.00    +0.000 A 
ATOM     17  C   UNL     1       1.079  14.440  21.658  0.00  0.00    +0.000 A 
ATOM     18  C   UNL     1       1.911  15.080  20.733  0.00  0.00    +0.000 A 
ATOM     19  C   UNL     1       1.455  15.329  19.442  0.00  0.00    +0.000 A 
ATOM     20 CL   UNL     1       2.454  16.177  18.327  0.00  0.00    +0.000 Cl
ATOM     21  C   UNL     1       0.183  14.917  19.057  0.00  0.00    +0.000 A 
ATOM     22  C   UNL     1      -0.656  14.296  19.988  0.00  0.00    +0.000 A 
ENDBRANCH   8  16
BRANCH   1  23
ATOM     23  C   UNL     1      -2.309  16.058  22.290  0.00  0.00    +0.000 C 
BRANCH  23  25
ATOM     24  C   UNL     1      -4.268  16.337  20.563  0.00  0.00    +0.000 C 
ATOM     25  C   UNL     1      -3.769  16.503  21.988  0.00  0.00    +0.000 C 
ENDBRANCH  23  25
BRANCH  23  26
ATOM     26  C   UNL     1      -1.552  16.904  23.336  0.00  0.00    +0.000 C 
ATOM     27  C   UNL     1      -2.203  18.231  23.705  0.00  0.00    +0.000 C 
ENDBRANCH  23  26
ENDBRANCH   1  23
BRANCH   4  28
ATOM     28  C   UNL     1      -4.915  13.055  22.566  0.00  0.00    +0.000 C 
BRANCH  28  29
ATOM     29  C   UNL     1      -6.305  13.188  23.117  0.00  0.00    +0.000 C 
ATOM     30  O   UNL     1      -6.745  14.231  23.578  0.00  0.00    +0.000 OA
BRANCH  29  31
ATOM     31  O   UNL     1      -7.026  12.054  23.051  0.00  0.00    +0.000 OA
ATOM     32  H   UNL     1      -6.621  11.340  22.511  0.00  0.00    +0.000 HD
ENDBRANCH  29  31
ENDBRANCH  28  29
ENDBRANCH   4  28
TORSDOF 8
ENDMDL
MODEL 8
REMARK VINA RESULT:      -5.5      3.214      5.910
REMARK  Name = 
REMARK  11 active torsions:
REMARK  status: ('A' for Active; 'I' for Inactive)
REMARK    1  A    between atoms: C_1  and  C_2
REMARK    2  A    between atoms: C_2  and  C_3
REMARK    3  A    between atoms: C_3  and  C_4
REMARK    4  A    between atoms: C_3  and  N_6
REMARK    5  A    between atoms: C_4  and  C_5
REMARK    6  A    between atoms: C_9  and  C_10
REMARK    7  A    between atoms: C_9  and  C_11
REMARK    8  A    between atoms: C_11  and  C_12
REMARK    9  A    between atoms: C_12  and  O_14
REMARK   10  A    between atoms: C_16  and  C_17
REMARK   11  A    between atoms: C_24  and  C_25
REMARK                            x       y       z     vdW  Elec       q    Type
REMARK                         _______ _______ _______ _____ _____    ______ ____
ROOT
ATOM      1  N   UNL     1      -0.642  12.615  21.304  0.00  0.00    +0.000 N 
ATOM      2  C   UNL     1       0.719  12.923  21.125  0.00  0.00    +0.000 C 
ATOM      3  O   UNL     1       1.605  12.081  20.997  0.00  0.00    +0.000 OA
ATOM      4  C   UNL     1       0.991  14.391  20.774  0.00  0.00    +0.000 C 
ATOM      5  C   UNL     1       2.496  14.688  20.910  0.00  0.00    +0.000 C 
ATOM      6  C   UNL     1       0.237  15.333  21.721  0.00  0.00    +0.000 C 
ATOM      7  C   UNL     1      -1.244  14.974  21.885  0.00  0.00    +0.000 C 
ATOM      8  C   UNL     1      -1.363  13.461  22.283  0.00  0.00    +0.000 C 
ENDROOT
BRANCH   7   9
ATOM      9  C   UNL     1      -1.875  15.974  22.854  0.00  0.00    +0.000 A 
ATOM     10  C   UNL     1      -3.041  16.657  22.470  0.00  0.00    +0.000 A 
ATOM     11  C   UNL     1      -3.655  17.564  23.337  0.00  0.00    +0.000 A 
ATOM     12  C   UNL     1      -3.112  17.803  24.598  0.00  0.00    +0.000 A 
ATOM     13  C   UNL     1      -1.949  17.143  24.982  0.00  0.00    +0.000 A 
ATOM     14 CL   UNL     1      -1.272  17.427  26.538  0.00  0.00    +0.000 Cl
ATOM     15  C   UNL     1      -1.322  16.246  24.115  0.00  0.00    +0.000 A 
ENDBRANCH   7   9
BRANCH   8  16
ATOM     16  C   UNL     1      -2.795  13.062  22.651  0.00  0.00    +0.000 A 
ATOM     17  C   UNL     1      -3.862  13.147  21.739  0.00  0.00    +0.000 A 
ATOM     18  C   UNL     1      -5.187  13.040  22.177  0.00  0.00    +0.000 A 
ATOM     19  C   UNL     1      -5.458  12.799  23.520  0.00  0.00    +0.000 A 
ATOM     20 CL   UNL     1      -7.088  12.735  24.069  0.00  0.00    +0.000 Cl
ATOM     21  C   UNL     1      -4.416  12.633  24.427  0.00  0.00    +0.000 A 
ATOM     22  C   UNL     1      -3.093  12.761  23.993  0.00  0.00    +0.000 A 
ENDBRANCH   8  16
BRANCH   1  23
ATOM     23  C   UNL     1      -1.111  11.248  20.918  0.00  0.00    +0.000 C 
BRANCH  23  25
ATOM     24  C   UNL     1      -2.197  11.866  18.609  0.00  0.00    +0.000 C 
ATOM     25  C   UNL     1      -1.077  11.174  19.365  0.00  0.00    +0.000 C 
ENDBRANCH  23  25
BRANCH  23  26
ATOM     26  C   UNL     1      -0.325  10.144  21.660  0.00  0.00    +0.000 C 
ATOM     27  C   UNL     1      -0.653   9.983  23.139  0.00  0.00    +0.000 C 
ENDBRANCH  23  26
ENDBRANCH   1  23
BRANCH   4  28
ATOM     28  C   UNL     1       0.552  14.484  19.293  0.00  0.00    +0.000 C 
BRANCH  28  29
ATOM     29  C   UNL     1       0.374  15.881  18.772  0.00  0.00    +0.000 C 
ATOM     30  O   UNL     1       1.310  16.629  18.531  0.00  0.00    +0.000 OA
BRANCH  29  31
ATOM     31  O   UNL     1      -0.911  16.232  18.586  0.00  0.00    +0.000 OA
ATOM     32  H   UNL     1      -1.044  17.154  18.274  0.00  0.00    +0.000 HD
ENDBRANCH  29  31
ENDBRANCH  28  29
ENDBRANCH   4  28
TORSDOF 8
ENDMDL
MODEL 9
REMARK VINA RESULT:      -5.5      3.120      6.051
REMARK  Name = 
REMARK  11 active torsions:
REMARK  status: ('A' for Active; 'I' for Inactive)
REMARK    1  A    between atoms: C_1  and  C_2
REMARK    2  A    between atoms: C_2  and  C_3
REMARK    3  A    between atoms: C_3  and  C_4
REMARK    4  A    between atoms: C_3  and  N_6
REMARK    5  A    between atoms: C_4  and  C_5
REMARK    6  A    between atoms: C_9  and  C_10
REMARK    7  A    between atoms: C_9  and  C_11
REMARK    8  A    between atoms: C_11  and  C_12
REMARK    9  A    between atoms: C_12  and  O_14
REMARK   10  A    between atoms: C_16  and  C_17
REMARK   11  A    between atoms: C_24  and  C_25
REMARK                            x       y       z     vdW  Elec       q    Type
REMARK                         _______ _______ _______ _____ _____    ______ ____
ROOT
ATOM      1  N   UNL     1      -0.063  13.760  20.638  0.00  0.00    +0.000 N 
ATOM      2  C   UNL     1      -0.044  12.772  19.637  0.00  0.00    +0.000 C 
ATOM      3  O   UNL     1       0.563  12.881  18.575  0.00  0.00    +0.000 OA
ATOM      4  C   UNL     1      -0.569  11.404  20.092  0.00  0.00    +0.000 C 
ATOM      5  C   UNL     1      -0.799  10.502  18.865  0.00  0.00    +0.000 C 
ATOM      6  C   UNL     1      -1.906  11.545  20.831  0.00  0.00    +0.000 C 
ATOM      7  C   UNL     1      -1.888  12.623  21.921  0.00  0.00    +0.000 C 
ATOM      8  C   UNL     1      -1.372  13.969  21.302  0.00  0.00    +0.000 C 
ENDROOT
BRANCH   7   9
ATOM      9  C   UNL     1      -3.270  12.670  22.571  0.00  0.00    +0.000 A 
ATOM     10  C   UNL     1      -3.390  12.420  23.947  0.00  0.00    +0.000 A 
ATOM     11  C   UNL     1      -4.634  12.473  24.578  0.00  0.00    +0.000 A 
ATOM     12  C   UNL     1      -5.779  12.774  23.841  0.00  0.00    +0.000 A 
ATOM     13  C   UNL     1      -5.674  13.008  22.474  0.00  0.00    +0.000 A 
ATOM     14 CL   UNL     1      -7.079  13.385  21.555  0.00  0.00    +0.000 Cl
ATOM     15  C   UNL     1      -4.435  12.943  21.835  0.00  0.00    +0.000 A 
ENDBRANCH   7   9
BRANCH   8  16
ATOM     16  C   UNL     1      -1.498  15.147  22.272  0.00  0.00    +0.000 A 
ATOM     17  C   UNL     1      -0.897  15.149  23.543  0.00  0.00    +0.000 A 
ATOM     18  C   UNL     1      -1.252  16.106  24.500  0.00  0.00    +0.000 A 
ATOM     19  C   UNL     1      -2.175  17.098  24.183  0.00  0.00    +0.000 A 
ATOM     20 CL   UNL     1      -2.662  18.232  25.382  0.00  0.00    +0.000 Cl
ATOM     21  C   UNL     1      -2.724  17.162  22.906  0.00  0.00    +0.000 A 
ATOM     22  C   UNL     1      -2.385  16.194  21.956  0.00  0.00    +0.000 A 
ENDBRANCH   8  16
BRANCH   1  23
ATOM     23  C   UNL     1       1.008  14.804  20.618  0.00  0.00    +0.000 C 
BRANCH  23  25
ATOM     24  C   UNL     1       3.564  14.375  20.200  0.00  0.00    +0.000 C 
ATOM     25  C   UNL     1       2.332  14.109  21.046  0.00  0.00    +0.000 C 
ENDBRANCH  23  25
BRANCH  23  26
ATOM     26  C   UNL     1       1.048  15.554  19.269  0.00  0.00    +0.000 C 
ATOM     27  C   UNL     1      -0.081  16.549  19.035  0.00  0.00    +0.000 C 
ENDBRANCH  23  26
ENDBRANCH   1  23
BRANCH   4  28
ATOM     28  C   UNL     1       0.590  10.855  20.958  0.00  0.00    +0.000 C 
BRANCH  28  29
ATOM     29  C   UNL     1       0.198   9.780  21.931  0.00  0.00    +0.000 C 
ATOM     30  O   UNL     1      -0.107   8.647  21.589  0.00  0.00    +0.000 OA
BRANCH  29  31
ATOM     31  O   UNL     1       0.222  10.176  23.216  0.00  0.00    +0.000 OA
ATOM     32  H   UNL     1      -0.547   9.880  23.752  0.00  0.00    +0.000 HD
ENDBRANCH  29  31
ENDBRANCH  28  29
ENDBRANCH   4  28
TORSDOF 8
ENDMDL
