MODEL 1
REMARK VINA RESULT:      -6.8      0.000      0.000
REMARK  Name = 
REMARK  4 active torsions:
REMARK  status: ('A' for Active; 'I' for Inactive)
REMARK    1  A    between atoms: C_2  and  O_3
REMARK    2  A    between atoms: C_2  and  C_4
REMARK    3  A    between atoms: C_4  and  S_5
REMARK    4  A    between atoms: C_6  and  C_7
REMARK                            x       y       z     vdW  Elec       q    Type
REMARK                         _______ _______ _______ _____ _____    ______ ____
ROOT
ATOM      1  C   UNL     1       4.228   4.079  17.714  0.00  0.00    +0.000 A 
ATOM      2  C   UNL     1       4.158   3.001  18.566  0.00  0.00    +0.000 A 
ATOM      3  N   UNL     1       3.421   3.380  19.659  0.00  0.00    +0.000 N 
ATOM      4  C   UNL     1       2.996   4.686  19.517  0.00  0.00    +0.000 A 
ATOM      5  C   UNL     1       2.224   5.480  20.373  0.00  0.00    +0.000 A 
ATOM      6  C   UNL     1       1.948   6.789  19.968  0.00  0.00    +0.000 A 
ATOM      7  C   UNL     1       2.427   7.274  18.753  0.00  0.00    +0.000 A 
ATOM      8 BR   UNL     1       2.034   9.053  18.241  0.00  0.00    +0.000 Br
ATOM      9  C   UNL     1       3.195   6.473  17.906  0.00  0.00    +0.000 A 
ATOM     10  C   UNL     1       3.489   5.149  18.296  0.00  0.00    +0.000 A 
ATOM     11  H   UNL     1       3.212   2.796  20.456  0.00  0.00    +0.000 HD
ENDROOT
BRANCH   1  13
ATOM     12  C   UNL     1       6.193   4.382  16.232  0.00  0.00    +0.000 C 
ATOM     13  C   UNL     1       4.897   4.088  16.453  0.00  0.00    +0.000 C 
BRANCH  12  15
ATOM     14  O   UNL     1       7.602   5.270  14.512  0.00  0.00    +0.000 OA
ATOM     15  C   UNL     1       6.781   4.430  14.856  0.00  0.00    +0.000 C 
BRANCH  15  16
ATOM     16  O   UNL     1       6.367   3.465  14.006  0.00  0.00    +0.000 OA
ATOM     17  H   UNL     1       6.821   2.607  14.074  0.00  0.00    +0.000 HD
ENDBRANCH  15  16
ENDBRANCH  12  15
BRANCH  12  18
ATOM     18  S   UNL     1       7.291   4.852  17.506  0.00  0.00    +0.000 S 
ATOM     19  H   UNL     1       8.326   5.193  16.716  0.00  0.00    +0.000 HD
ENDBRANCH  12  18
ENDBRANCH   1  13
TORSDOF 4
ENDMDL
MODEL 2
REMARK VINA RESULT:      -6.4      1.534      1.830
REMARK  Name = 
REMARK  4 active torsions:
REMARK  status: ('A' for Active; 'I' for Inactive)
REMARK    1  A    between atoms: C_2  and  O_3
REMARK    2  A    between atoms: C_2  and  C_4
REMARK    3  A    between atoms: C_4  and  S_5
REMARK    4  A    between atoms: C_6  and  C_7
REMARK                            x       y       z     vdW  Elec       q    Type
REMARK                         _______ _______ _______ _____ _____    ______ ____
ROOT
ATOM      1  C   UNL     1       3.646   3.322  17.585  0.00  0.00    +0.000 A 
ATOM      2  C   UNL     1       3.414   1.970  17.696  0.00  0.00    +0.000 A 
ATOM      3  N   UNL     1       2.562   1.779  18.754  0.00  0.00    +0.000 N 
ATOM      4  C   UNL     1       2.224   2.993  19.319  0.00  0.00    +0.000 A 
ATOM      5  C   UNL     1       1.389   3.280  20.405  0.00  0.00    +0.000 A 
ATOM      6  C   UNL     1       1.233   4.622  20.764  0.00  0.00    +0.000 A 
ATOM      7  C   UNL     1       1.887   5.629  20.057  0.00  0.00    +0.000 A 
ATOM      8 BR   UNL     1       1.652   7.434  20.576  0.00  0.00    +0.000 Br
ATOM      9  C   UNL     1       2.718   5.331  18.976  0.00  0.00    +0.000 A 
ATOM     10  C   UNL     1       2.893   3.983  18.596  0.00  0.00    +0.000 A 
ATOM     11  H   UNL     1       2.224   0.885  19.080  0.00  0.00    +0.000 HD
ENDROOT
BRANCH   1  13
ATOM     12  C   UNL     1       5.661   4.536  16.797  0.00  0.00    +0.000 C 
ATOM     13  C   UNL     1       4.472   3.935  16.595  0.00  0.00    +0.000 C 
BRANCH  12  15
ATOM     14  O   UNL     1       7.540   4.867  15.350  0.00  0.00    +0.000 OA
ATOM     15  C   UNL     1       6.416   5.211  15.696  0.00  0.00    +0.000 C 
BRANCH  15  16
ATOM     16  O   UNL     1       5.772   6.224  15.076  0.00  0.00    +0.000 OA
ATOM     17  H   UNL     1       6.035   7.125  15.336  0.00  0.00    +0.000 HD
ENDBRANCH  15  16
ENDBRANCH  12  15
BRANCH  12  18
ATOM     18  S   UNL     1       6.387   4.694  18.377  0.00  0.00    +0.000 S 
ATOM     19  H   UNL     1       5.292   4.384  19.097  0.00  0.00    +0.000 HD
ENDBRANCH  12  18
ENDBRANCH   1  13
TORSDOF 4
ENDMDL
MODEL 3
REMARK VINA RESULT:      -6.2      1.604      1.991
REMARK  Name = 
REMARK  4 active torsions:
REMARK  status: ('A' for Active; 'I' for Inactive)
REMARK    1  A    between atoms: C_2  and  O_3
REMARK    2  A    between atoms: C_2  and  C_4
REMARK    3  A    between atoms: C_4  and  S_5
REMARK    4  A    between atoms: C_6  and  C_7
REMARK                            x       y       z     vdW  Elec       q    Type
REMARK                         _______ _______ _______ _____ _____    ______ ____
ROOT
ATOM      1  C   UNL     1       4.115   4.037  17.790  0.00  0.00    +0.000 A 
ATOM      2  C   UNL     1       3.906   2.678  17.766  0.00  0.00    +0.000 A 
ATOM      3  N   UNL     1       2.909   2.392  18.663  0.00  0.00    +0.000 N 
ATOM      4  C   UNL     1       2.454   3.554  19.256  0.00  0.00    +0.000 A 
ATOM      5  C   UNL     1       1.456   3.744  20.218  0.00  0.00    +0.000 A 
ATOM      6  C   UNL     1       1.208   5.052  20.645  0.00  0.00    +0.000 A 
ATOM      7  C   UNL     1       1.935   6.120  20.123  0.00  0.00    +0.000 A 
ATOM      8 BR   UNL     1       1.572   7.876  20.728  0.00  0.00    +0.000 Br
ATOM      9  C   UNL     1       2.928   5.920  19.164  0.00  0.00    +0.000 A 
ATOM     10  C   UNL     1       3.197   4.607  18.719  0.00  0.00    +0.000 A 
ATOM     11  H   UNL     1       2.551   1.471  18.867  0.00  0.00    +0.000 HD
ENDROOT
BRANCH   1  13
ATOM     12  C   UNL     1       6.196   5.331  17.412  0.00  0.00    +0.000 C 
ATOM     13  C   UNL     1       5.064   4.737  16.987  0.00  0.00    +0.000 C 
BRANCH  12  15
ATOM     14  O   UNL     1       7.497   5.654  15.428  0.00  0.00    +0.000 OA
ATOM     15  C   UNL     1       7.092   6.102  16.492  0.00  0.00    +0.000 C 
BRANCH  15  16
ATOM     16  O   UNL     1       7.415   7.350  16.896  0.00  0.00    +0.000 OA
ATOM     17  H   UNL     1       8.043   7.414  17.638  0.00  0.00    +0.000 HD
ENDBRANCH  15  16
ENDBRANCH  12  15
BRANCH  12  18
ATOM     18  S   UNL     1       6.678   5.366  19.090  0.00  0.00    +0.000 S 
ATOM     19  H   UNL     1       6.347   6.649  19.332  0.00  0.00    +0.000 HD
ENDBRANCH  12  18
ENDBRANCH   1  13
TORSDOF 4
ENDMDL
MODEL 4
REMARK VINA RESULT:      -6.1      4.121      5.612
REMARK  Name = 
REMARK  4 active torsions:
REMARK  status: ('A' for Active; 'I' for Inactive)
REMARK    1  A    between atoms: C_2  and  O_3
REMARK    2  A    between atoms: C_2  and  C_4
REMARK    3  A    between atoms: C_4  and  S_5
REMARK    4  A    between atoms: C_6  and  C_7
REMARK                            x       y       z     vdW  Elec       q    Type
REMARK                         _______ _______ _______ _____ _____    ______ ____
ROOT
ATOM      1  C   UNL     1       4.336   4.688  18.510  0.00  0.00    +0.000 A 
ATOM      2  C   UNL     1       5.177   5.206  19.467  0.00  0.00    +0.000 A 
ATOM      3  N   UNL     1       6.394   5.430  18.876  0.00  0.00    +0.000 N 
ATOM      4  C   UNL     1       6.346   5.082  17.540  0.00  0.00    +0.000 A 
ATOM      5  C   UNL     1       7.340   5.143  16.557  0.00  0.00    +0.000 A 
ATOM      6  C   UNL     1       7.004   4.712  15.270  0.00  0.00    +0.000 A 
ATOM      7  C   UNL     1       5.723   4.243  14.988  0.00  0.00    +0.000 A 
ATOM      8 BR   UNL     1       5.308   3.665  13.234  0.00  0.00    +0.000 Br
ATOM      9  C   UNL     1       4.739   4.186  15.976  0.00  0.00    +0.000 A 
ATOM     10  C   UNL     1       5.056   4.614  17.284  0.00  0.00    +0.000 A 
ATOM     11  H   UNL     1       7.212   5.798  19.339  0.00  0.00    +0.000 HD
ENDROOT
BRANCH   1  13
ATOM     12  C   UNL     1       2.479   3.089  18.894  0.00  0.00    +0.000 C 
ATOM     13  C   UNL     1       2.970   4.332  18.723  0.00  0.00    +0.000 C 
BRANCH  12  15
ATOM     14  O   UNL     1       0.385   2.118  18.259  0.00  0.00    +0.000 OA
ATOM     15  C   UNL     1       1.014   2.818  19.042  0.00  0.00    +0.000 C 
BRANCH  15  16
ATOM     16  O   UNL     1       0.418   3.377  20.117  0.00  0.00    +0.000 OA
ATOM     17  H   UNL     1      -0.010   2.764  20.740  0.00  0.00    +0.000 HD
ENDBRANCH  15  16
ENDBRANCH  12  15
BRANCH  12  18
ATOM     18  S   UNL     1       3.480   1.659  18.845  0.00  0.00    +0.000 S 
ATOM     19  H   UNL     1       3.549   1.458  20.174  0.00  0.00    +0.000 HD
ENDBRANCH  12  18
ENDBRANCH   1  13
TORSDOF 4
ENDMDL
MODEL 5
REMARK VINA RESULT:      -6.1      1.909      2.166
REMARK  Name = 
REMARK  4 active torsions:
REMARK  status: ('A' for Active; 'I' for Inactive)
REMARK    1  A    between atoms: C_2  and  O_3
REMARK    2  A    between atoms: C_2  and  C_4
REMARK    3  A    between atoms: C_4  and  S_5
REMARK    4  A    between atoms: C_6  and  C_7
REMARK                            x       y       z     vdW  Elec       q    Type
REMARK                         _______ _______ _______ _____ _____    ______ ____
ROOT
ATOM      1  C   UNL     1       4.308   3.480  18.857  0.00  0.00    +0.000 A 
ATOM      2  C   UNL     1       3.907   2.171  18.723  0.00  0.00    +0.000 A 
ATOM      3  N   UNL     1       2.628   2.074  19.209  0.00  0.00    +0.000 N 
ATOM      4  C   UNL     1       2.188   3.310  19.640  0.00  0.00    +0.000 A 
ATOM      5  C   UNL     1       0.962   3.685  20.200  0.00  0.00    +0.000 A 
ATOM      6  C   UNL     1       0.793   5.028  20.552  0.00  0.00    +0.000 A 
ATOM      7  C   UNL     1       1.816   5.951  20.345  0.00  0.00    +0.000 A 
ATOM      8 BR   UNL     1       1.551   7.759  20.837  0.00  0.00    +0.000 Br
ATOM      9  C   UNL     1       3.036   5.567  19.785  0.00  0.00    +0.000 A 
ATOM     10  C   UNL     1       3.229   4.216  19.425  0.00  0.00    +0.000 A 
ATOM     11  H   UNL     1       2.079   1.228  19.250  0.00  0.00    +0.000 HD
ENDROOT
BRANCH   1  13
ATOM     12  C   UNL     1       5.906   4.456  17.230  0.00  0.00    +0.000 C 
ATOM     13  C   UNL     1       5.576   3.996  18.453  0.00  0.00    +0.000 C 
BRANCH  12  15
ATOM     14  O   UNL     1       7.518   5.944  16.270  0.00  0.00    +0.000 OA
ATOM     15  C   UNL     1       7.291   4.913  16.891  0.00  0.00    +0.000 C 
BRANCH  15  16
ATOM     16  O   UNL     1       8.295   4.127  17.335  0.00  0.00    +0.000 OA
ATOM     17  H   UNL     1       8.573   3.407  16.742  0.00  0.00    +0.000 HD
ENDBRANCH  15  16
ENDBRANCH  12  15
BRANCH  12  18
ATOM     18  S   UNL     1       4.792   4.459  15.885  0.00  0.00    +0.000 S 
ATOM     19  H   UNL     1       5.617   3.892  14.985  0.00  0.00    +0.000 HD
ENDBRANCH  12  18
ENDBRANCH   1  13
TORSDOF 4
ENDMDL
MODEL 6
REMARK VINA RESULT:      -6.0      2.453      3.090
REMARK  Name = 
REMARK  4 active torsions:
REMARK  status: ('A' for Active; 'I' for Inactive)
REMARK    1  A    between atoms: C_2  and  O_3
REMARK    2  A    between atoms: C_2  and  C_4
REMARK    3  A    between atoms: C_4  and  S_5
REMARK    4  A    between atoms: C_6  and  C_7
REMARK                            x       y       z     vdW  Elec       q    Type
REMARK                         _______ _______ _______ _____ _____    ______ ____
ROOT
ATOM      1  C   UNL     1       3.914   6.302  17.695  0.00  0.00    +0.000 A 
ATOM      2  C   UNL     1       3.577   7.622  17.499  0.00  0.00    +0.000 A 
ATOM      3  N   UNL     1       2.649   7.960  18.450  0.00  0.00    +0.000 N 
ATOM      4  C   UNL     1       2.394   6.881  19.273  0.00  0.00    +0.000 A 
ATOM      5  C   UNL     1       1.530   6.767  20.368  0.00  0.00    +0.000 A 
ATOM      6  C   UNL     1       1.471   5.532  21.021  0.00  0.00    +0.000 A 
ATOM      7  C   UNL     1       2.251   4.461  20.588  0.00  0.00    +0.000 A 
ATOM      8 BR   UNL     1       2.141   2.804  21.496  0.00  0.00    +0.000 Br
ATOM      9  C   UNL     1       3.109   4.586  19.495  0.00  0.00    +0.000 A 
ATOM     10  C   UNL     1       3.183   5.823  18.819  0.00  0.00    +0.000 A 
ATOM     11  H   UNL     1       2.210   8.865  18.545  0.00  0.00    +0.000 HD
ENDROOT
BRANCH   1  13
ATOM     12  C   UNL     1       6.094   5.186  17.306  0.00  0.00    +0.000 C 
ATOM     13  C   UNL     1       4.864   5.573  16.917  0.00  0.00    +0.000 C 
BRANCH  12  15
ATOM     14  O   UNL     1       6.807   4.304  15.197  0.00  0.00    +0.000 OA
ATOM     15  C   UNL     1       7.042   4.482  16.385  0.00  0.00    +0.000 C 
BRANCH  15  16
ATOM     16  O   UNL     1       8.201   4.065  16.940  0.00  0.00    +0.000 OA
ATOM     17  H   UNL     1       8.140   3.307  17.547  0.00  0.00    +0.000 HD
ENDBRANCH  15  16
ENDBRANCH  12  15
BRANCH  12  18
ATOM     18  S   UNL     1       6.756   5.563  18.877  0.00  0.00    +0.000 S 
ATOM     19  H   UNL     1       6.242   4.506  19.534  0.00  0.00    +0.000 HD
ENDBRANCH  12  18
ENDBRANCH   1  13
TORSDOF 4
ENDMDL
MODEL 7
REMARK VINA RESULT:      -5.9      4.229      5.757
REMARK  Name = 
REMARK  4 active torsions:
REMARK  status: ('A' for Active; 'I' for Inactive)
REMARK    1  A    between atoms: C_2  and  O_3
REMARK    2  A    between atoms: C_2  and  C_4
REMARK    3  A    between atoms: C_4  and  S_5
REMARK    4  A    between atoms: C_6  and  C_7
REMARK                            x       y       z     vdW  Elec       q    Type
REMARK                         _______ _______ _______ _____ _____    ______ ____
ROOT
ATOM      1  C   UNL     1       4.643   4.007  18.283  0.00  0.00    +0.000 A 
ATOM      2  C   UNL     1       5.383   4.643  19.254  0.00  0.00    +0.000 A 
ATOM      3  N   UNL     1       6.483   5.192  18.646  0.00  0.00    +0.000 N 
ATOM      4  C   UNL     1       6.455   4.938  17.289  0.00  0.00    +0.000 A 
ATOM      5  C   UNL     1       7.359   5.304  16.286  0.00  0.00    +0.000 A 
ATOM      6  C   UNL     1       7.074   4.897  14.978  0.00  0.00    +0.000 A 
ATOM      7  C   UNL     1       5.928   4.156  14.698  0.00  0.00    +0.000 A 
ATOM      8 BR   UNL     1       5.579   3.621  12.916  0.00  0.00    +0.000 Br
ATOM      9  C   UNL     1       5.034   3.796  15.706  0.00  0.00    +0.000 A 
ATOM     10  C   UNL     1       5.301   4.194  17.034  0.00  0.00    +0.000 A 
ATOM     11  H   UNL     1       7.212   5.712  19.114  0.00  0.00    +0.000 HD
ENDROOT
BRANCH   1  13
ATOM     12  C   UNL     1       2.290   3.835  19.048  0.00  0.00    +0.000 C 
ATOM     13  C   UNL     1       3.411   3.321  18.507  0.00  0.00    +0.000 C 
BRANCH  12  15
ATOM     14  O   UNL     1       0.532   2.328  18.437  0.00  0.00    +0.000 OA
ATOM     15  C   UNL     1       1.069   3.006  19.303  0.00  0.00    +0.000 C 
BRANCH  15  16
ATOM     16  O   UNL     1       0.597   3.028  20.569  0.00  0.00    +0.000 OA
ATOM     17  H   UNL     1       1.144   3.495  21.224  0.00  0.00    +0.000 HD
ENDBRANCH  15  16
ENDBRANCH  12  15
BRANCH  12  18
ATOM     18  S   UNL     1       2.179   5.483  19.616  0.00  0.00    +0.000 S 
ATOM     19  H   UNL     1       1.917   6.052  18.425  0.00  0.00    +0.000 HD
ENDBRANCH  12  18
ENDBRANCH   1  13
TORSDOF 4
ENDMDL
MODEL 8
REMARK VINA RESULT:      -5.9      4.157      5.283
REMARK  Name = 
REMARK  4 active torsions:
REMARK  status: ('A' for Active; 'I' for Inactive)
REMARK    1  A    between atoms: C_2  and  O_3
REMARK    2  A    between atoms: C_2  and  C_4
REMARK    3  A    between atoms: C_4  and  S_5
REMARK    4  A    between atoms: C_6  and  C_7
REMARK                            x       y       z     vdW  Elec       q    Type
REMARK                         _______ _______ _______ _____ _____    ______ ____
ROOT
ATOM      1  C   UNL     1       3.017   5.962  19.327  0.00  0.00    +0.000 A 
ATOM      2  C   UNL     1       3.674   5.915  18.119  0.00  0.00    +0.000 A 
ATOM      3  N   UNL     1       3.409   7.085  17.454  0.00  0.00    +0.000 N 
ATOM      4  C   UNL     1       2.602   7.899  18.225  0.00  0.00    +0.000 A 
ATOM      5  C   UNL     1       2.088   9.172  17.956  0.00  0.00    +0.000 A 
ATOM      6  C   UNL     1       1.283   9.765  18.934  0.00  0.00    +0.000 A 
ATOM      7  C   UNL     1       1.012   9.103  20.130  0.00  0.00    +0.000 A 
ATOM      8 BR   UNL     1      -0.085   9.937  21.428  0.00  0.00    +0.000 Br
ATOM      9  C   UNL     1       1.530   7.833  20.388  0.00  0.00    +0.000 A 
ATOM     10  C   UNL     1       2.344   7.214  19.414  0.00  0.00    +0.000 A 
ATOM     11  H   UNL     1       3.750   7.327  16.535  0.00  0.00    +0.000 HD
ENDROOT
BRANCH   1  13
ATOM     12  C   UNL     1       2.343   3.791  20.319  0.00  0.00    +0.000 C 
ATOM     13  C   UNL     1       3.051   4.938  20.320  0.00  0.00    +0.000 C 
BRANCH  12  15
ATOM     14  O   UNL     1       1.445   2.579  22.179  0.00  0.00    +0.000 OA
ATOM     15  C   UNL     1       2.401   2.812  21.450  0.00  0.00    +0.000 C 
BRANCH  15  16
ATOM     16  O   UNL     1       3.578   2.169  21.612  0.00  0.00    +0.000 OA
ATOM     17  H   UNL     1       4.143   2.099  20.823  0.00  0.00    +0.000 HD
ENDBRANCH  15  16
ENDBRANCH  12  15
BRANCH  12  18
ATOM     18  S   UNL     1       1.201   3.381  19.063  0.00  0.00    +0.000 S 
ATOM     19  H   UNL     1       1.009   4.631  18.599  0.00  0.00    +0.000 HD
ENDBRANCH  12  18
ENDBRANCH   1  13
TORSDOF 4
ENDMDL
MODEL 9
REMARK VINA RESULT:      -5.9      2.323      2.863
REMARK  Name = 
REMARK  4 active torsions:
REMARK  status: ('A' for Active; 'I' for Inactive)
REMARK    1  A    between atoms: C_2  and  O_3
REMARK    2  A    between atoms: C_2  and  C_4
REMARK    3  A    between atoms: C_4  and  S_5
REMARK    4  A    between atoms: C_6  and  C_7
REMARK                            x       y       z     vdW  Elec       q    Type
REMARK                         _______ _______ _______ _____ _____    ______ ____
ROOT
ATOM      1  C   UNL     1       4.146   6.206  17.060  0.00  0.00    +0.000 A 
ATOM      2  C   UNL     1       4.064   7.530  17.425  0.00  0.00    +0.000 A 
ATOM      3  N   UNL     1       3.242   7.610  18.520  0.00  0.00    +0.000 N 
ATOM      4  C   UNL     1       2.804   6.351  18.881  0.00  0.00    +0.000 A 
ATOM      5  C   UNL     1       1.961   5.956  19.926  0.00  0.00    +0.000 A 
ATOM      6  C   UNL     1       1.682   4.591  20.051  0.00  0.00    +0.000 A 
ATOM      7  C   UNL     1       2.230   3.669  19.163  0.00  0.00    +0.000 A 
ATOM      8 BR   UNL     1       1.825   1.830  19.363  0.00  0.00    +0.000 Br
ATOM      9  C   UNL     1       3.069   4.074  18.124  0.00  0.00    +0.000 A 
ATOM     10  C   UNL     1       3.364   5.447  17.977  0.00  0.00    +0.000 A 
ATOM     11  H   UNL     1       2.988   8.461  19.001  0.00  0.00    +0.000 HD
ENDROOT
BRANCH   1  13
ATOM     12  C   UNL     1       6.151   5.162  16.041  0.00  0.00    +0.000 C 
ATOM     13  C   UNL     1       4.918   5.700  15.971  0.00  0.00    +0.000 C 
BRANCH  12  15
ATOM     14  O   UNL     1       7.849   5.353  14.362  0.00  0.00    +0.000 OA
ATOM     15  C   UNL     1       6.905   4.723  14.824  0.00  0.00    +0.000 C 
BRANCH  15  16
ATOM     16  O   UNL     1       6.497   3.563  14.266  0.00  0.00    +0.000 OA
ATOM     17  H   UNL     1       7.192   2.909  14.075  0.00  0.00    +0.000 HD
ENDBRANCH  15  16
ENDBRANCH  12  15
BRANCH  12  18
ATOM     18  S   UNL     1       7.045   5.027  17.535  0.00  0.00    +0.000 S 
ATOM     19  H   UNL     1       7.548   3.796  17.318  0.00  0.00    +0.000 HD
ENDBRANCH  12  18
ENDBRANCH   1  13
TORSDOF 4
ENDMDL
