MODEL 1
REMARK VINA RESULT:      -6.8      0.000      0.000
REMARK  Name = 
REMARK  20 active torsions:
REMARK  status: ('A' for Active; 'I' for Inactive)
REMARK    1  A    between atoms: C_2  and  C_3
REMARK    2  A    between atoms: C_3  and  C_4
REMARK    3  A    between atoms: C_4  and  C_5
REMARK    4  A    between atoms: C_5  and  C_6
REMARK    5  A    between atoms: C_7  and  C_8
REMARK    6  A    between atoms: C_9  and  C_10
REMARK    7  A    between atoms: C_9  and  C_11
REMARK    8  A    between atoms: C_11  and  C_12
REMARK    9  A    between atoms: C_12  and  C_13
REMARK   10  A    between atoms: C_13  and  C_14
REMARK   11  A    between atoms: C_14  and  C_15
REMARK   12  A    between atoms: C_16  and  C_17
REMARK   13  A    between atoms: C_17  and  C_18
REMARK   14  A    between atoms: C_18  and  C_19
REMARK   15  A    between atoms: C_20  and  C_21
REMARK   16  A    between atoms: N_23  and  CA_24
REMARK   17  A    between atoms: CA_24  and  CB_25
REMARK   18  A    between atoms: CA_24  and  C_27
REMARK   19  A    between atoms: CB_25  and  OG_26
REMARK   20  A    between atoms: C_27  and  O_28
REMARK                            x       y       z     vdW  Elec       q    Type
REMARK                         _______ _______ _______ _____ _____    ______ ____
ROOT
ATOM      1  C   UNK A   0       3.849   5.274  17.295  0.00  0.00    +0.000 C 
ATOM      2  C   UNK A   0       3.748   6.610  17.347  0.00  0.00    +0.000 C 
ENDROOT
BRANCH   1   3
ATOM      3  C   UNK A   0       4.681   4.519  16.293  0.00  0.00    +0.000 C 
BRANCH   3   4
ATOM      4  C   UNK A   0       5.757   5.361  15.596  0.00  0.00    +0.000 C 
BRANCH   4   5
ATOM      5  C   UNK A   0       7.137   4.732  15.747  0.00  0.00    +0.000 C 
BRANCH   5   6
ATOM      6  C   UNK A   0       7.526   4.619  17.224  0.00  0.00    +0.000 C 
BRANCH   6   8
ATOM      7  C   UNK A   0       7.678   7.095  17.215  0.00  0.00    +0.000 C 
ATOM      8  C   UNK A   0       7.508   5.962  17.928  0.00  0.00    +0.000 C 
ATOM      9  C   UNK A   0       7.323   5.889  19.424  0.00  0.00    +0.000 C 
BRANCH   7  11
ATOM     10  C   UNK A   0       8.777   9.004  18.311  0.00  0.00    +0.000 C 
ATOM     11  C   UNK A   0       7.695   8.433  17.758  0.00  0.00    +0.000 C 
BRANCH  10  12
ATOM     12  C   UNK A   0       8.729  10.393  18.881  0.00  0.00    +0.000 C 
BRANCH  12  13
ATOM     13  C   UNK A   0       9.617  10.530  20.116  0.00  0.00    +0.000 C 
BRANCH  13  14
ATOM     14  C   UNK A   0      10.508  11.767  19.997  0.00  0.00    +0.000 C 
BRANCH  14  16
ATOM     15  C   UNK A   0      11.706  12.325  17.867  0.00  0.00    +0.000 C 
ATOM     16  C   UNK A   0      11.584  11.575  18.969  0.00  0.00    +0.000 C 
ENDBRANCH  14  16
ENDBRANCH  13  14
ENDBRANCH  12  13
ENDBRANCH  10  12
ENDBRANCH   7  11
ENDBRANCH   6   8
ENDBRANCH   5   6
ENDBRANCH   4   5
ENDBRANCH   3   4
ENDBRANCH   1   3
BRANCH   2  17
ATOM     17  C   UNK A   0       2.992   7.389  18.385  0.00  0.00    +0.000 C 
BRANCH  17  18
ATOM     18  C   UNK A   0       2.929   6.564  19.675  0.00  0.00    +0.000 C 
BRANCH  18  19
ATOM     19  C   UNK A   0       1.538   6.328  20.194  0.00  0.00    +0.000 C 
ATOM     20  C   UNK A   0       1.127   5.181  20.765  0.00  0.00    +0.000 C 
BRANCH  20  21
ATOM     21  C   UNK A   0       1.998   3.982  20.882  0.00  0.00    +0.000 C 
ATOM     22  O   UNK A   0       2.384   3.519  21.947  0.00  0.00    +0.000 OA
ATOM     23  N   SER A   1       2.308   3.406  19.674  0.00  0.00    +0.000 N 
ATOM     24  H   SER A   1       1.738   3.644  18.872  0.00  0.00    +0.000 HD
BRANCH  23  25
ATOM     25  CA  SER A   1       3.084   2.155  19.645  0.00  0.00    +0.000 C 
BRANCH  25  26
ATOM     26  CB  SER A   1       3.290   1.633  18.209  0.00  0.00    +0.000 C 
BRANCH  26  27
ATOM     27  OG  SER A   1       4.202   0.540  18.133  0.00  0.00    +0.000 OA
ATOM     28  H   SER A   1       4.022  -0.071  18.878  0.00  0.00    +0.000 HD
ENDBRANCH  26  27
ENDBRANCH  25  26
BRANCH  25  29
ATOM     29  C   SER A   1       4.432   2.352  20.346  0.00  0.00    +0.000 C 
BRANCH  29  30
ATOM     30  O   SER A   1       5.396   2.890  19.444  0.00  0.00    +0.000 OA
ATOM     31  H   SER A   1       5.836   2.133  19.013  0.00  0.00    +0.000 HD
ENDBRANCH  29  30
ENDBRANCH  25  29
ENDBRANCH  23  25
ENDBRANCH  20  21
ENDBRANCH  18  19
ENDBRANCH  17  18
ENDBRANCH   2  17
TORSDOF 19
ENDMDL
MODEL 2
REMARK VINA RESULT:      -6.5      4.043      7.248
REMARK  Name = 
REMARK  20 active torsions:
REMARK  status: ('A' for Active; 'I' for Inactive)
REMARK    1  A    between atoms: C_2  and  C_3
REMARK    2  A    between atoms: C_3  and  C_4
REMARK    3  A    between atoms: C_4  and  C_5
REMARK    4  A    between atoms: C_5  and  C_6
REMARK    5  A    between atoms: C_7  and  C_8
REMARK    6  A    between atoms: C_9  and  C_10
REMARK    7  A    between atoms: C_9  and  C_11
REMARK    8  A    between atoms: C_11  and  C_12
REMARK    9  A    between atoms: C_12  and  C_13
REMARK   10  A    between atoms: C_13  and  C_14
REMARK   11  A    between atoms: C_14  and  C_15
REMARK   12  A    between atoms: C_16  and  C_17
REMARK   13  A    between atoms: C_17  and  C_18
REMARK   14  A    between atoms: C_18  and  C_19
REMARK   15  A    between atoms: C_20  and  C_21
REMARK   16  A    between atoms: N_23  and  CA_24
REMARK   17  A    between atoms: CA_24  and  CB_25
REMARK   18  A    between atoms: CA_24  and  C_27
REMARK   19  A    between atoms: CB_25  and  OG_26
REMARK   20  A    between atoms: C_27  and  O_28
REMARK                            x       y       z     vdW  Elec       q    Type
REMARK                         _______ _______ _______ _____ _____    ______ ____
ROOT
ATOM      1  C   UNK A   0       2.456   4.629  20.828  0.00  0.00    +0.000 C 
ATOM      2  C   UNK A   0       2.014   5.713  20.174  0.00  0.00    +0.000 C 
ENDROOT
BRANCH   1   3
ATOM      3  C   UNK A   0       1.572   3.645  21.546  0.00  0.00    +0.000 C 
BRANCH   3   4
ATOM      4  C   UNK A   0       1.264   2.368  20.753  0.00  0.00    +0.000 C 
BRANCH   4   5
ATOM      5  C   UNK A   0       0.899   2.689  19.308  0.00  0.00    +0.000 C 
BRANCH   5   6
ATOM      6  C   UNK A   0       1.834   1.965  18.335  0.00  0.00    +0.000 C 
BRANCH   6   8
ATOM      7  C   UNK A   0       3.007   3.762  17.091  0.00  0.00    +0.000 C 
ATOM      8  C   UNK A   0       3.073   2.780  18.013  0.00  0.00    +0.000 C 
ATOM      9  C   UNK A   0       4.313   2.370  18.768  0.00  0.00    +0.000 C 
BRANCH   7  11
ATOM     10  C   UNK A   0       5.188   4.155  16.023  0.00  0.00    +0.000 C 
ATOM     11  C   UNK A   0       4.108   4.603  16.681  0.00  0.00    +0.000 C 
BRANCH  10  12
ATOM     12  C   UNK A   0       6.314   5.073  15.641  0.00  0.00    +0.000 C 
BRANCH  12  13
ATOM     13  C   UNK A   0       7.577   4.788  16.451  0.00  0.00    +0.000 C 
BRANCH  13  14
ATOM     14  C   UNK A   0       7.252   4.738  17.945  0.00  0.00    +0.000 C 
BRANCH  14  16
ATOM     15  C   UNK A   0       7.825   7.177  17.996  0.00  0.00    +0.000 C 
ATOM     16  C   UNK A   0       7.624   6.017  18.634  0.00  0.00    +0.000 C 
ENDBRANCH  14  16
ENDBRANCH  13  14
ENDBRANCH  12  13
ENDBRANCH  10  12
ENDBRANCH   7  11
ENDBRANCH   6   8
ENDBRANCH   5   6
ENDBRANCH   4   5
ENDBRANCH   3   4
ENDBRANCH   1   3
BRANCH   2  17
ATOM     17  C   UNK A   0       2.866   6.663  19.382  0.00  0.00    +0.000 C 
BRANCH  17  18
ATOM     18  C   UNK A   0       2.036   7.221  18.220  0.00  0.00    +0.000 C 
BRANCH  18  19
ATOM     19  C   UNK A   0       2.568   8.500  17.636  0.00  0.00    +0.000 C 
ATOM     20  C   UNK A   0       1.976   9.700  17.778  0.00  0.00    +0.000 C 
BRANCH  20  21
ATOM     21  C   UNK A   0       0.679   9.881  18.480  0.00  0.00    +0.000 C 
ATOM     22  O   UNK A   0       0.554   9.873  19.698  0.00  0.00    +0.000 OA
ATOM     23  N   SER A   1      -0.380  10.101  17.634  0.00  0.00    +0.000 N 
ATOM     24  H   SER A   1      -0.179  10.386  16.684  0.00  0.00    +0.000 HD
BRANCH  23  25
ATOM     25  CA  SER A   1      -1.709  10.393  18.195  0.00  0.00    +0.000 C 
BRANCH  25  26
ATOM     26  CB  SER A   1      -1.880  11.886  18.539  0.00  0.00    +0.000 C 
BRANCH  26  27
ATOM     27  OG  SER A   1      -1.600  12.184  19.905  0.00  0.00    +0.000 OA
ATOM     28  H   SER A   1      -1.219  13.086  19.958  0.00  0.00    +0.000 HD
ENDBRANCH  26  27
ENDBRANCH  25  26
BRANCH  25  29
ATOM     29  C   SER A   1      -2.805   9.934  17.226  0.00  0.00    +0.000 C 
BRANCH  29  30
ATOM     30  O   SER A   1      -4.061   9.835  17.896  0.00  0.00    +0.000 OA
ATOM     31  H   SER A   1      -4.050  10.490  18.618  0.00  0.00    +0.000 HD
ENDBRANCH  29  30
ENDBRANCH  25  29
ENDBRANCH  23  25
ENDBRANCH  20  21
ENDBRANCH  18  19
ENDBRANCH  17  18
ENDBRANCH   2  17
TORSDOF 19
ENDMDL
MODEL 3
REMARK VINA RESULT:      -6.4      4.271      7.101
REMARK  Name = 
REMARK  20 active torsions:
REMARK  status: ('A' for Active; 'I' for Inactive)
REMARK    1  A    between atoms: C_2  and  C_3
REMARK    2  A    between atoms: C_3  and  C_4
REMARK    3  A    between atoms: C_4  and  C_5
REMARK    4  A    between atoms: C_5  and  C_6
REMARK    5  A    between atoms: C_7  and  C_8
REMARK    6  A    between atoms: C_9  and  C_10
REMARK    7  A    between atoms: C_9  and  C_11
REMARK    8  A    between atoms: C_11  and  C_12
REMARK    9  A    between atoms: C_12  and  C_13
REMARK   10  A    between atoms: C_13  and  C_14
REMARK   11  A    between atoms: C_14  and  C_15
REMARK   12  A    between atoms: C_16  and  C_17
REMARK   13  A    between atoms: C_17  and  C_18
REMARK   14  A    between atoms: C_18  and  C_19
REMARK   15  A    between atoms: C_20  and  C_21
REMARK   16  A    between atoms: N_23  and  CA_24
REMARK   17  A    between atoms: CA_24  and  CB_25
REMARK   18  A    between atoms: CA_24  and  C_27
REMARK   19  A    between atoms: CB_25  and  OG_26
REMARK   20  A    between atoms: C_27  and  O_28
REMARK                            x       y       z     vdW  Elec       q    Type
REMARK                         _______ _______ _______ _____ _____    ______ ____
ROOT
ATOM      1  C   UNK A   0       2.523   5.072  21.265  0.00  0.00    +0.000 C 
ATOM      2  C   UNK A   0       1.843   5.822  20.386  0.00  0.00    +0.000 C 
ENDROOT
BRANCH   1   3
ATOM      3  C   UNK A   0       2.159   3.662  21.647  0.00  0.00    +0.000 C 
BRANCH   3   4
ATOM      4  C   UNK A   0       1.058   3.033  20.783  0.00  0.00    +0.000 C 
BRANCH   4   5
ATOM      5  C   UNK A   0       1.593   1.857  19.974  0.00  0.00    +0.000 C 
BRANCH   5   6
ATOM      6  C   UNK A   0       1.302   2.044  18.482  0.00  0.00    +0.000 C 
BRANCH   6   8
ATOM      7  C   UNK A   0       3.453   3.165  17.962  0.00  0.00    +0.000 C 
ATOM      8  C   UNK A   0       2.107   3.179  17.877  0.00  0.00    +0.000 C 
ATOM      9  C   UNK A   0       1.281   4.270  17.240  0.00  0.00    +0.000 C 
BRANCH   7  11
ATOM     10  C   UNK A   0       4.793   4.206  16.180  0.00  0.00    +0.000 C 
ATOM     11  C   UNK A   0       4.337   4.183  17.442  0.00  0.00    +0.000 C 
BRANCH  10  12
ATOM     12  C   UNK A   0       5.729   5.278  15.701  0.00  0.00    +0.000 C 
BRANCH  12  13
ATOM     13  C   UNK A   0       5.628   6.542  16.554  0.00  0.00    +0.000 C 
BRANCH  13  14
ATOM     14  C   UNK A   0       6.971   6.846  17.217  0.00  0.00    +0.000 C 
BRANCH  14  16
ATOM     15  C   UNK A   0       8.069   5.563  19.069  0.00  0.00    +0.000 C 
ATOM     16  C   UNK A   0       7.040   6.283  18.606  0.00  0.00    +0.000 C 
ENDBRANCH  14  16
ENDBRANCH  13  14
ENDBRANCH  12  13
ENDBRANCH  10  12
ENDBRANCH   7  11
ENDBRANCH   6   8
ENDBRANCH   5   6
ENDBRANCH   4   5
ENDBRANCH   3   4
ENDBRANCH   1   3
BRANCH   2  17
ATOM     17  C   UNK A   0       2.231   7.198  19.927  0.00  0.00    +0.000 C 
BRANCH  17  18
ATOM     18  C   UNK A   0       2.131   7.258  18.399  0.00  0.00    +0.000 C 
BRANCH  18  19
ATOM     19  C   UNK A   0       2.690   8.513  17.788  0.00  0.00    +0.000 C 
ATOM     20  C   UNK A   0       2.079   9.711  17.828  0.00  0.00    +0.000 C 
BRANCH  20  21
ATOM     21  C   UNK A   0       0.734   9.910  18.429  0.00  0.00    +0.000 C 
ATOM     22  O   UNK A   0      -0.316   9.751  17.822  0.00  0.00    +0.000 OA
ATOM     23  N   SER A   1       0.770  10.257  19.758  0.00  0.00    +0.000 N 
ATOM     24  H   SER A   1       1.626  10.089  20.271  0.00  0.00    +0.000 HD
BRANCH  23  25
ATOM     25  CA  SER A   1      -0.490  10.392  20.507  0.00  0.00    +0.000 C 
BRANCH  25  26
ATOM     26  CB  SER A   1      -0.346   9.935  21.973  0.00  0.00    +0.000 C 
BRANCH  26  27
ATOM     27  OG  SER A   1       0.991  10.020  22.460  0.00  0.00    +0.000 OA
ATOM     28  H   SER A   1       1.452  10.743  21.985  0.00  0.00    +0.000 HD
ENDBRANCH  26  27
ENDBRANCH  25  26
BRANCH  25  29
ATOM     29  C   SER A   1      -0.993  11.837  20.439  0.00  0.00    +0.000 C 
BRANCH  29  30
ATOM     30  O   SER A   1      -1.955  11.988  19.396  0.00  0.00    +0.000 OA
ATOM     31  H   SER A   1      -1.645  12.716  18.826  0.00  0.00    +0.000 HD
ENDBRANCH  29  30
ENDBRANCH  25  29
ENDBRANCH  23  25
ENDBRANCH  20  21
ENDBRANCH  18  19
ENDBRANCH  17  18
ENDBRANCH   2  17
TORSDOF 19
ENDMDL
MODEL 4
REMARK VINA RESULT:      -6.3      1.470      2.013
REMARK  Name = 
REMARK  20 active torsions:
REMARK  status: ('A' for Active; 'I' for Inactive)
REMARK    1  A    between atoms: C_2  and  C_3
REMARK    2  A    between atoms: C_3  and  C_4
REMARK    3  A    between atoms: C_4  and  C_5
REMARK    4  A    between atoms: C_5  and  C_6
REMARK    5  A    between atoms: C_7  and  C_8
REMARK    6  A    between atoms: C_9  and  C_10
REMARK    7  A    between atoms: C_9  and  C_11
REMARK    8  A    between atoms: C_11  and  C_12
REMARK    9  A    between atoms: C_12  and  C_13
REMARK   10  A    between atoms: C_13  and  C_14
REMARK   11  A    between atoms: C_14  and  C_15
REMARK   12  A    between atoms: C_16  and  C_17
REMARK   13  A    between atoms: C_17  and  C_18
REMARK   14  A    between atoms: C_18  and  C_19
REMARK   15  A    between atoms: C_20  and  C_21
REMARK   16  A    between atoms: N_23  and  CA_24
REMARK   17  A    between atoms: CA_24  and  CB_25
REMARK   18  A    between atoms: CA_24  and  C_27
REMARK   19  A    between atoms: CB_25  and  OG_26
REMARK   20  A    between atoms: C_27  and  O_28
REMARK                            x       y       z     vdW  Elec       q    Type
REMARK                         _______ _______ _______ _____ _____    ______ ____
ROOT
ATOM      1  C   UNK A   0       5.051   6.654  15.914  0.00  0.00    +0.000 C 
ATOM      2  C   UNK A   0       4.103   6.482  16.846  0.00  0.00    +0.000 C 
ENDROOT
BRANCH   1   3
ATOM      3  C   UNK A   0       5.656   5.544  15.096  0.00  0.00    +0.000 C 
BRANCH   3   4
ATOM      4  C   UNK A   0       5.952   4.262  15.884  0.00  0.00    +0.000 C 
BRANCH   4   5
ATOM      5  C   UNK A   0       7.219   4.406  16.720  0.00  0.00    +0.000 C 
BRANCH   5   6
ATOM      6  C   UNK A   0       6.877   4.681  18.187  0.00  0.00    +0.000 C 
BRANCH   6   8
ATOM      7  C   UNK A   0       7.654   7.033  18.053  0.00  0.00    +0.000 C 
ATOM      8  C   UNK A   0       7.635   5.872  18.741  0.00  0.00    +0.000 C 
ATOM      9  C   UNK A   0       8.345   5.617  20.048  0.00  0.00    +0.000 C 
BRANCH   7  11
ATOM     10  C   UNK A   0       8.297   9.392  17.777  0.00  0.00    +0.000 C 
ATOM     11  C   UNK A   0       8.344   8.236  18.458  0.00  0.00    +0.000 C 
BRANCH  10  12
ATOM     12  C   UNK A   0       9.053  10.606  18.234  0.00  0.00    +0.000 C 
BRANCH  12  13
ATOM     13  C   UNK A   0       9.327  10.571  19.736  0.00  0.00    +0.000 C 
BRANCH  13  14
ATOM     14  C   UNK A   0       9.425  11.992  20.292  0.00  0.00    +0.000 C 
BRANCH  14  16
ATOM     15  C   UNK A   0       8.362  12.028  22.561  0.00  0.00    +0.000 C 
ATOM     16  C   UNK A   0       9.457  11.997  21.792  0.00  0.00    +0.000 C 
ENDBRANCH  14  16
ENDBRANCH  13  14
ENDBRANCH  12  13
ENDBRANCH  10  12
ENDBRANCH   7  11
ENDBRANCH   6   8
ENDBRANCH   5   6
ENDBRANCH   4   5
ENDBRANCH   3   4
ENDBRANCH   1   3
BRANCH   2  17
ATOM     17  C   UNK A   0       3.426   7.580  17.616  0.00  0.00    +0.000 C 
BRANCH  17  18
ATOM     18  C   UNK A   0       2.233   6.989  18.376  0.00  0.00    +0.000 C 
BRANCH  18  19
ATOM     19  C   UNK A   0       2.340   7.086  19.872  0.00  0.00    +0.000 C 
ATOM     20  C   UNK A   0       2.180   6.047  20.712  0.00  0.00    +0.000 C 
BRANCH  20  21
ATOM     21  C   UNK A   0       1.807   4.686  20.246  0.00  0.00    +0.000 C 
ATOM     22  O   UNK A   0       0.683   4.212  20.350  0.00  0.00    +0.000 OA
ATOM     23  N   SER A   1       2.838   4.007  19.645  0.00  0.00    +0.000 N 
ATOM     24  H   SER A   1       3.638   4.539  19.328  0.00  0.00    +0.000 HD
BRANCH  23  25
ATOM     25  CA  SER A   1       2.587   2.684  19.050  0.00  0.00    +0.000 C 
BRANCH  25  26
ATOM     26  CB  SER A   1       1.442   2.719  18.018  0.00  0.00    +0.000 C 
BRANCH  26  27
ATOM     27  OG  SER A   1       0.322   1.920  18.392  0.00  0.00    +0.000 OA
ATOM     28  H   SER A   1      -0.052   1.507  17.585  0.00  0.00    +0.000 HD
ENDBRANCH  26  27
ENDBRANCH  25  26
BRANCH  25  29
ATOM     29  C   SER A   1       3.870   2.137  18.415  0.00  0.00    +0.000 C 
BRANCH  29  30
ATOM     30  O   SER A   1       3.949   0.722  18.575  0.00  0.00    +0.000 OA
ATOM     31  H   SER A   1       3.900   0.541  19.532  0.00  0.00    +0.000 HD
ENDBRANCH  29  30
ENDBRANCH  25  29
ENDBRANCH  23  25
ENDBRANCH  20  21
ENDBRANCH  18  19
ENDBRANCH  17  18
ENDBRANCH   2  17
TORSDOF 19
ENDMDL
MODEL 5
REMARK VINA RESULT:      -6.3      5.204      8.024
REMARK  Name = 
REMARK  20 active torsions:
REMARK  status: ('A' for Active; 'I' for Inactive)
REMARK    1  A    between atoms: C_2  and  C_3
REMARK    2  A    between atoms: C_3  and  C_4
REMARK    3  A    between atoms: C_4  and  C_5
REMARK    4  A    between atoms: C_5  and  C_6
REMARK    5  A    between atoms: C_7  and  C_8
REMARK    6  A    between atoms: C_9  and  C_10
REMARK    7  A    between atoms: C_9  and  C_11
REMARK    8  A    between atoms: C_11  and  C_12
REMARK    9  A    between atoms: C_12  and  C_13
REMARK   10  A    between atoms: C_13  and  C_14
REMARK   11  A    between atoms: C_14  and  C_15
REMARK   12  A    between atoms: C_16  and  C_17
REMARK   13  A    between atoms: C_17  and  C_18
REMARK   14  A    between atoms: C_18  and  C_19
REMARK   15  A    between atoms: C_20  and  C_21
REMARK   16  A    between atoms: N_23  and  CA_24
REMARK   17  A    between atoms: CA_24  and  CB_25
REMARK   18  A    between atoms: CA_24  and  C_27
REMARK   19  A    between atoms: CB_25  and  OG_26
REMARK   20  A    between atoms: C_27  and  O_28
REMARK                            x       y       z     vdW  Elec       q    Type
REMARK                         _______ _______ _______ _____ _____    ______ ____
ROOT
ATOM      1  C   UNK A   0       2.725   5.071  20.582  0.00  0.00    +0.000 C 
ATOM      2  C   UNK A   0       2.004   6.055  20.025  0.00  0.00    +0.000 C 
ENDROOT
BRANCH   1   3
ATOM      3  C   UNK A   0       2.171   4.032  21.520  0.00  0.00    +0.000 C 
BRANCH   3   4
ATOM      4  C   UNK A   0       1.740   2.726  20.839  0.00  0.00    +0.000 C 
BRANCH   4   5
ATOM      5  C   UNK A   0       0.722   2.986  19.735  0.00  0.00    +0.000 C 
BRANCH   5   6
ATOM      6  C   UNK A   0       1.087   2.215  18.463  0.00  0.00    +0.000 C 
BRANCH   6   8
ATOM      7  C   UNK A   0       2.846   3.555  17.339  0.00  0.00    +0.000 C 
ATOM      8  C   UNK A   0       2.526   2.449  18.041  0.00  0.00    +0.000 C 
ATOM      9  C   UNK A   0       3.487   1.358  18.442  0.00  0.00    +0.000 C 
BRANCH   7  11
ATOM     10  C   UNK A   0       4.942   4.841  17.418  0.00  0.00    +0.000 C 
ATOM     11  C   UNK A   0       4.168   3.894  16.865  0.00  0.00    +0.000 C 
BRANCH  10  12
ATOM     12  C   UNK A   0       6.301   5.167  16.868  0.00  0.00    +0.000 C 
BRANCH  12  13
ATOM     13  C   UNK A   0       6.696   4.221  15.735  0.00  0.00    +0.000 C 
BRANCH  13  14
ATOM     14  C   UNK A   0       6.413   4.868  14.379  0.00  0.00    +0.000 C 
BRANCH  14  16
ATOM     15  C   UNK A   0       6.367   3.393  12.354  0.00  0.00    +0.000 C 
ATOM     16  C   UNK A   0       5.761   3.904  13.433  0.00  0.00    +0.000 C 
ENDBRANCH  14  16
ENDBRANCH  13  14
ENDBRANCH  12  13
ENDBRANCH  10  12
ENDBRANCH   7  11
ENDBRANCH   6   8
ENDBRANCH   5   6
ENDBRANCH   4   5
ENDBRANCH   3   4
ENDBRANCH   1   3
BRANCH   2  17
ATOM     17  C   UNK A   0       2.514   7.052  19.025  0.00  0.00    +0.000 C 
BRANCH  17  18
ATOM     18  C   UNK A   0       1.826   8.399  19.273  0.00  0.00    +0.000 C 
BRANCH  18  19
ATOM     19  C   UNK A   0       1.657   9.247  18.043  0.00  0.00    +0.000 C 
ATOM     20  C   UNK A   0       1.292  10.542  18.061  0.00  0.00    +0.000 C 
BRANCH  20  21
ATOM     21  C   UNK A   0       0.944  11.264  19.313  0.00  0.00    +0.000 C 
ATOM     22  O   UNK A   0       1.764  11.825  20.028  0.00  0.00    +0.000 OA
ATOM     23  N   SER A   1      -0.402  11.282  19.583  0.00  0.00    +0.000 N 
ATOM     24  H   SER A   1      -1.042  11.068  18.829  0.00  0.00    +0.000 HD
BRANCH  23  25
ATOM     25  CA  SER A   1      -0.900  12.045  20.739  0.00  0.00    +0.000 C 
BRANCH  25  26
ATOM     26  CB  SER A   1      -2.129  12.906  20.383  0.00  0.00    +0.000 C 
BRANCH  26  27
ATOM     27  OG  SER A   1      -2.781  12.486  19.186  0.00  0.00    +0.000 OA
ATOM     28  H   SER A   1      -2.604  11.532  19.051  0.00  0.00    +0.000 HD
ENDBRANCH  26  27
ENDBRANCH  25  26
BRANCH  25  29
ATOM     29  C   SER A   1      -1.224  11.096  21.898  0.00  0.00    +0.000 C 
BRANCH  29  30
ATOM     30  O   SER A   1      -0.291  11.265  22.965  0.00  0.00    +0.000 OA
ATOM     31  H   SER A   1      -0.657  10.799  23.739  0.00  0.00    +0.000 HD
ENDBRANCH  29  30
ENDBRANCH  25  29
ENDBRANCH  23  25
ENDBRANCH  20  21
ENDBRANCH  18  19
ENDBRANCH  17  18
ENDBRANCH   2  17
TORSDOF 19
ENDMDL
MODEL 6
REMARK VINA RESULT:      -6.2      4.976      8.401
REMARK  Name = 
REMARK  20 active torsions:
REMARK  status: ('A' for Active; 'I' for Inactive)
REMARK    1  A    between atoms: C_2  and  C_3
REMARK    2  A    between atoms: C_3  and  C_4
REMARK    3  A    between atoms: C_4  and  C_5
REMARK    4  A    between atoms: C_5  and  C_6
REMARK    5  A    between atoms: C_7  and  C_8
REMARK    6  A    between atoms: C_9  and  C_10
REMARK    7  A    between atoms: C_9  and  C_11
REMARK    8  A    between atoms: C_11  and  C_12
REMARK    9  A    between atoms: C_12  and  C_13
REMARK   10  A    between atoms: C_13  and  C_14
REMARK   11  A    between atoms: C_14  and  C_15
REMARK   12  A    between atoms: C_16  and  C_17
REMARK   13  A    between atoms: C_17  and  C_18
REMARK   14  A    between atoms: C_18  and  C_19
REMARK   15  A    between atoms: C_20  and  C_21
REMARK   16  A    between atoms: N_23  and  CA_24
REMARK   17  A    between atoms: CA_24  and  CB_25
REMARK   18  A    between atoms: CA_24  and  C_27
REMARK   19  A    between atoms: CB_25  and  OG_26
REMARK   20  A    between atoms: C_27  and  O_28
REMARK                            x       y       z     vdW  Elec       q    Type
REMARK                         _______ _______ _______ _____ _____    ______ ____
ROOT
ATOM      1  C   UNK A   0       4.418   7.568  17.246  0.00  0.00    +0.000 C 
ATOM      2  C   UNK A   0       3.172   7.274  17.645  0.00  0.00    +0.000 C 
ENDROOT
BRANCH   1   3
ATOM      3  C   UNK A   0       5.203   6.771  16.239  0.00  0.00    +0.000 C 
BRANCH   3   4
ATOM      4  C   UNK A   0       6.716   6.741  16.490  0.00  0.00    +0.000 C 
BRANCH   4   5
ATOM      5  C   UNK A   0       7.098   5.614  17.443  0.00  0.00    +0.000 C 
BRANCH   5   6
ATOM      6  C   UNK A   0       6.468   4.290  17.001  0.00  0.00    +0.000 C 
BRANCH   6   8
ATOM      7  C   UNK A   0       4.048   3.760  16.871  0.00  0.00    +0.000 C 
ATOM      8  C   UNK A   0       5.114   4.054  17.644  0.00  0.00    +0.000 C 
ATOM      9  C   UNK A   0       5.091   4.210  19.145  0.00  0.00    +0.000 C 
BRANCH   7  11
ATOM     10  C   UNK A   0       2.365   2.511  18.160  0.00  0.00    +0.000 C 
ATOM     11  C   UNK A   0       2.705   3.526  17.350  0.00  0.00    +0.000 C 
BRANCH  10  12
ATOM     12  C   UNK A   0       0.946   2.304  18.608  0.00  0.00    +0.000 C 
BRANCH  12  13
ATOM     13  C   UNK A   0       0.805   2.429  20.124  0.00  0.00    +0.000 C 
BRANCH  13  14
ATOM     14  C   UNK A   0       2.159   2.746  20.760  0.00  0.00    +0.000 C 
BRANCH  14  16
ATOM     15  C   UNK A   0       1.827   5.229  20.779  0.00  0.00    +0.000 C 
ATOM     16  C   UNK A   0       2.161   4.097  21.410  0.00  0.00    +0.000 C 
ENDBRANCH  14  16
ENDBRANCH  13  14
ENDBRANCH  12  13
ENDBRANCH  10  12
ENDBRANCH   7  11
ENDBRANCH   6   8
ENDBRANCH   5   6
ENDBRANCH   4   5
ENDBRANCH   3   4
ENDBRANCH   1   3
BRANCH   2  17
ATOM     17  C   UNK A   0       2.339   8.097  18.584  0.00  0.00    +0.000 C 
BRANCH  17  18
ATOM     18  C   UNK A   0       1.498   9.084  17.765  0.00  0.00    +0.000 C 
BRANCH  18  19
ATOM     19  C   UNK A   0       1.390  10.457  18.368  0.00  0.00    +0.000 C 
ATOM     20  C   UNK A   0       0.227  11.088  18.608  0.00  0.00    +0.000 C 
BRANCH  20  21
ATOM     21  C   UNK A   0      -1.093  10.516  18.234  0.00  0.00    +0.000 C 
ATOM     22  O   UNK A   0      -1.749   9.781  18.961  0.00  0.00    +0.000 OA
ATOM     23  N   SER A   1      -1.539  10.919  17.000  0.00  0.00    +0.000 N 
ATOM     24  H   SER A   1      -1.111  11.736  16.582  0.00  0.00    +0.000 HD
BRANCH  23  25
ATOM     25  CA  SER A   1      -2.876  10.507  16.541  0.00  0.00    +0.000 C 
BRANCH  25  26
ATOM     26  CB  SER A   1      -3.946  11.578  16.832  0.00  0.00    +0.000 C 
BRANCH  26  27
ATOM     27  OG  SER A   1      -5.264  11.044  16.932  0.00  0.00    +0.000 OA
ATOM     28  H   SER A   1      -5.786  11.609  17.540  0.00  0.00    +0.000 HD
ENDBRANCH  26  27
ENDBRANCH  25  26
BRANCH  25  29
ATOM     29  C   SER A   1      -2.841  10.170  15.046  0.00  0.00    +0.000 C 
BRANCH  29  30
ATOM     30  O   SER A   1      -4.161   9.965  14.545  0.00  0.00    +0.000 OA
ATOM     31  H   SER A   1      -4.159   9.105  14.084  0.00  0.00    +0.000 HD
ENDBRANCH  29  30
ENDBRANCH  25  29
ENDBRANCH  23  25
ENDBRANCH  20  21
ENDBRANCH  18  19
ENDBRANCH  17  18
ENDBRANCH   2  17
TORSDOF 19
ENDMDL
MODEL 7
REMARK VINA RESULT:      -6.1      5.413      8.289
REMARK  Name = 
REMARK  20 active torsions:
REMARK  status: ('A' for Active; 'I' for Inactive)
REMARK    1  A    between atoms: C_2  and  C_3
REMARK    2  A    between atoms: C_3  and  C_4
REMARK    3  A    between atoms: C_4  and  C_5
REMARK    4  A    between atoms: C_5  and  C_6
REMARK    5  A    between atoms: C_7  and  C_8
REMARK    6  A    between atoms: C_9  and  C_10
REMARK    7  A    between atoms: C_9  and  C_11
REMARK    8  A    between atoms: C_11  and  C_12
REMARK    9  A    between atoms: C_12  and  C_13
REMARK   10  A    between atoms: C_13  and  C_14
REMARK   11  A    between atoms: C_14  and  C_15
REMARK   12  A    between atoms: C_16  and  C_17
REMARK   13  A    between atoms: C_17  and  C_18
REMARK   14  A    between atoms: C_18  and  C_19
REMARK   15  A    between atoms: C_20  and  C_21
REMARK   16  A    between atoms: N_23  and  CA_24
REMARK   17  A    between atoms: CA_24  and  CB_25
REMARK   18  A    between atoms: CA_24  and  C_27
REMARK   19  A    between atoms: CB_25  and  OG_26
REMARK   20  A    between atoms: C_27  and  O_28
REMARK                            x       y       z     vdW  Elec       q    Type
REMARK                         _______ _______ _______ _____ _____    ______ ____
ROOT
ATOM      1  C   UNK A   0       1.917   5.217  20.278  0.00  0.00    +0.000 C 
ATOM      2  C   UNK A   0       1.306   6.280  20.822  0.00  0.00    +0.000 C 
ENDROOT
BRANCH   1   3
ATOM      3  C   UNK A   0       1.626   3.786  20.643  0.00  0.00    +0.000 C 
BRANCH   3   4
ATOM      4  C   UNK A   0       2.860   2.971  21.053  0.00  0.00    +0.000 C 
BRANCH   4   5
ATOM      5  C   UNK A   0       3.666   2.536  19.835  0.00  0.00    +0.000 C 
BRANCH   5   6
ATOM      6  C   UNK A   0       4.653   3.630  19.416  0.00  0.00    +0.000 C 
BRANCH   6   8
ATOM      7  C   UNK A   0       5.781   4.279  17.304  0.00  0.00    +0.000 C 
ATOM      8  C   UNK A   0       4.654   3.859  17.916  0.00  0.00    +0.000 C 
ATOM      9  C   UNK A   0       3.329   3.614  17.239  0.00  0.00    +0.000 C 
BRANCH   7  11
ATOM     10  C   UNK A   0       6.049   3.593  14.956  0.00  0.00    +0.000 C 
ATOM     11  C   UNK A   0       5.917   4.548  15.891  0.00  0.00    +0.000 C 
BRANCH  10  12
ATOM     12  C   UNK A   0       6.209   3.933  13.502  0.00  0.00    +0.000 C 
BRANCH  12  13
ATOM     13  C   UNK A   0       4.862   4.013  12.786  0.00  0.00    +0.000 C 
BRANCH  13  14
ATOM     14  C   UNK A   0       4.884   3.164  11.514  0.00  0.00    +0.000 C 
BRANCH  14  16
ATOM     15  C   UNK A   0       3.182   4.027   9.891  0.00  0.00    +0.000 C 
ATOM     16  C   UNK A   0       3.546   3.153  10.836  0.00  0.00    +0.000 C 
ENDBRANCH  14  16
ENDBRANCH  13  14
ENDBRANCH  12  13
ENDBRANCH  10  12
ENDBRANCH   7  11
ENDBRANCH   6   8
ENDBRANCH   5   6
ENDBRANCH   4   5
ENDBRANCH   3   4
ENDBRANCH   1   3
BRANCH   2  17
ATOM     17  C   UNK A   0       1.518   7.711  20.418  0.00  0.00    +0.000 C 
BRANCH  17  18
ATOM     18  C   UNK A   0       1.506   8.588  21.675  0.00  0.00    +0.000 C 
BRANCH  18  19
ATOM     19  C   UNK A   0       0.163   8.699  22.342  0.00  0.00    +0.000 C 
ATOM     20  C   UNK A   0      -0.633   9.780  22.265  0.00  0.00    +0.000 C 
BRANCH  20  21
ATOM     21  C   UNK A   0      -0.234  11.026  21.558  0.00  0.00    +0.000 C 
ATOM     22  O   UNK A   0       0.431  11.917  22.068  0.00  0.00    +0.000 OA
ATOM     23  N   SER A   1      -0.650  11.075  20.251  0.00  0.00    +0.000 N 
ATOM     24  H   SER A   1      -0.931  10.210  19.806  0.00  0.00    +0.000 HD
BRANCH  23  25
ATOM     25  CA  SER A   1      -0.244  12.207  19.402  0.00  0.00    +0.000 C 
BRANCH  25  26
ATOM     26  CB  SER A   1       0.950  11.852  18.492  0.00  0.00    +0.000 C 
BRANCH  26  27
ATOM     27  OG  SER A   1       0.975  10.480  18.107  0.00  0.00    +0.000 OA
ATOM     28  H   SER A   1       1.426  10.406  17.239  0.00  0.00    +0.000 HD
ENDBRANCH  26  27
ENDBRANCH  25  26
BRANCH  25  29
ATOM     29  C   SER A   1      -1.432  12.696  18.567  0.00  0.00    +0.000 C 
BRANCH  29  30
ATOM     30  O   SER A   1      -1.087  12.757  17.184  0.00  0.00    +0.000 OA
ATOM     31  H   SER A   1      -1.923  12.807  16.684  0.00  0.00    +0.000 HD
ENDBRANCH  29  30
ENDBRANCH  25  29
ENDBRANCH  23  25
ENDBRANCH  20  21
ENDBRANCH  18  19
ENDBRANCH  17  18
ENDBRANCH   2  17
TORSDOF 19
ENDMDL
MODEL 8
REMARK VINA RESULT:      -6.1      5.307      8.207
REMARK  Name = 
REMARK  20 active torsions:
REMARK  status: ('A' for Active; 'I' for Inactive)
REMARK    1  A    between atoms: C_2  and  C_3
REMARK    2  A    between atoms: C_3  and  C_4
REMARK    3  A    between atoms: C_4  and  C_5
REMARK    4  A    between atoms: C_5  and  C_6
REMARK    5  A    between atoms: C_7  and  C_8
REMARK    6  A    between atoms: C_9  and  C_10
REMARK    7  A    between atoms: C_9  and  C_11
REMARK    8  A    between atoms: C_11  and  C_12
REMARK    9  A    between atoms: C_12  and  C_13
REMARK   10  A    between atoms: C_13  and  C_14
REMARK   11  A    between atoms: C_14  and  C_15
REMARK   12  A    between atoms: C_16  and  C_17
REMARK   13  A    between atoms: C_17  and  C_18
REMARK   14  A    between atoms: C_18  and  C_19
REMARK   15  A    between atoms: C_20  and  C_21
REMARK   16  A    between atoms: N_23  and  CA_24
REMARK   17  A    between atoms: CA_24  and  CB_25
REMARK   18  A    between atoms: CA_24  and  C_27
REMARK   19  A    between atoms: CB_25  and  OG_26
REMARK   20  A    between atoms: C_27  and  O_28
REMARK                            x       y       z     vdW  Elec       q    Type
REMARK                         _______ _______ _______ _____ _____    ______ ____
ROOT
ATOM      1  C   UNK A   0       2.438   6.842  18.699  0.00  0.00    +0.000 C 
ATOM      2  C   UNK A   0       2.167   8.152  18.796  0.00  0.00    +0.000 C 
ENDROOT
BRANCH   1   3
ATOM      3  C   UNK A   0       2.854   5.968  19.852  0.00  0.00    +0.000 C 
BRANCH   3   4
ATOM      4  C   UNK A   0       1.693   5.461  20.718  0.00  0.00    +0.000 C 
BRANCH   4   5
ATOM      5  C   UNK A   0       1.038   4.230  20.101  0.00  0.00    +0.000 C 
BRANCH   5   6
ATOM      6  C   UNK A   0       1.880   2.978  20.359  0.00  0.00    +0.000 C 
BRANCH   6   8
ATOM      7  C   UNK A   0       2.879   3.182  18.098  0.00  0.00    +0.000 C 
ATOM      8  C   UNK A   0       3.047   2.860  19.397  0.00  0.00    +0.000 C 
ATOM      9  C   UNK A   0       4.324   2.342  20.013  0.00  0.00    +0.000 C 
BRANCH   7  11
ATOM     10  C   UNK A   0       4.821   4.057  16.865  0.00  0.00    +0.000 C 
ATOM     11  C   UNK A   0       3.898   3.105  17.076  0.00  0.00    +0.000 C 
BRANCH  10  12
ATOM     12  C   UNK A   0       5.843   3.932  15.772  0.00  0.00    +0.000 C 
BRANCH  12  13
ATOM     13  C   UNK A   0       7.145   4.648  16.128  0.00  0.00    +0.000 C 
BRANCH  13  14
ATOM     14  C   UNK A   0       7.356   4.647  17.643  0.00  0.00    +0.000 C 
BRANCH  14  16
ATOM     15  C   UNK A   0       7.291   7.148  17.506  0.00  0.00    +0.000 C 
ATOM     16  C   UNK A   0       7.615   6.029  18.165  0.00  0.00    +0.000 C 
ENDBRANCH  14  16
ENDBRANCH  13  14
ENDBRANCH  12  13
ENDBRANCH  10  12
ENDBRANCH   7  11
ENDBRANCH   6   8
ENDBRANCH   5   6
ENDBRANCH   4   5
ENDBRANCH   3   4
ENDBRANCH   1   3
BRANCH   2  17
ATOM     17  C   UNK A   0       1.672   9.026  17.681  0.00  0.00    +0.000 C 
BRANCH  17  18
ATOM     18  C   UNK A   0       0.350   9.674  18.108  0.00  0.00    +0.000 C 
BRANCH  18  19
ATOM     19  C   UNK A   0       0.283  10.048  19.563  0.00  0.00    +0.000 C 
ATOM     20  C   UNK A   0       0.365  11.309  20.024  0.00  0.00    +0.000 C 
BRANCH  20  21
ATOM     21  C   UNK A   0       0.602  12.478  19.138  0.00  0.00    +0.000 C 
ATOM     22  O   UNK A   0      -0.247  12.959  18.399  0.00  0.00    +0.000 OA
ATOM     23  N   SER A   1       1.865  13.006  19.249  0.00  0.00    +0.000 N 
ATOM     24  H   SER A   1       2.413  12.765  20.064  0.00  0.00    +0.000 HD
BRANCH  23  25
ATOM     25  CA  SER A   1       2.210  14.227  18.501  0.00  0.00    +0.000 C 
BRANCH  25  26
ATOM     26  CB  SER A   1       1.722  15.503  19.214  0.00  0.00    +0.000 C 
BRANCH  26  27
ATOM     27  OG  SER A   1       0.457  15.962  18.745  0.00  0.00    +0.000 OA
ATOM     28  H   SER A   1       0.585  16.404  17.879  0.00  0.00    +0.000 HD
ENDBRANCH  26  27
ENDBRANCH  25  26
BRANCH  25  29
ATOM     29  C   SER A   1       3.722  14.288  18.256  0.00  0.00    +0.000 C 
BRANCH  29  30
ATOM     30  O   SER A   1       4.019  15.127  17.142  0.00  0.00    +0.000 OA
ATOM     31  H   SER A   1       4.963  14.999  16.933  0.00  0.00    +0.000 HD
ENDBRANCH  29  30
ENDBRANCH  25  29
ENDBRANCH  23  25
ENDBRANCH  20  21
ENDBRANCH  18  19
ENDBRANCH  17  18
ENDBRANCH   2  17
TORSDOF 19
ENDMDL
MODEL 9
REMARK VINA RESULT:      -5.9      4.432      7.163
REMARK  Name = 
REMARK  20 active torsions:
REMARK  status: ('A' for Active; 'I' for Inactive)
REMARK    1  A    between atoms: C_2  and  C_3
REMARK    2  A    between atoms: C_3  and  C_4
REMARK    3  A    between atoms: C_4  and  C_5
REMARK    4  A    between atoms: C_5  and  C_6
REMARK    5  A    between atoms: C_7  and  C_8
REMARK    6  A    between atoms: C_9  and  C_10
REMARK    7  A    between atoms: C_9  and  C_11
REMARK    8  A    between atoms: C_11  and  C_12
REMARK    9  A    between atoms: C_12  and  C_13
REMARK   10  A    between atoms: C_13  and  C_14
REMARK   11  A    between atoms: C_14  and  C_15
REMARK   12  A    between atoms: C_16  and  C_17
REMARK   13  A    between atoms: C_17  and  C_18
REMARK   14  A    between atoms: C_18  and  C_19
REMARK   15  A    between atoms: C_20  and  C_21
REMARK   16  A    between atoms: N_23  and  CA_24
REMARK   17  A    between atoms: CA_24  and  CB_25
REMARK   18  A    between atoms: CA_24  and  C_27
REMARK   19  A    between atoms: CB_25  and  OG_26
REMARK   20  A    between atoms: C_27  and  O_28
REMARK                            x       y       z     vdW  Elec       q    Type
REMARK                         _______ _______ _______ _____ _____    ______ ____
ROOT
ATOM      1  C   UNK A   0       1.531   4.500  19.966  0.00  0.00    +0.000 C 
ATOM      2  C   UNK A   0       1.421   5.606  20.715  0.00  0.00    +0.000 C 
ENDROOT
BRANCH   1   3
ATOM      3  C   UNK A   0       0.508   3.396  19.917  0.00  0.00    +0.000 C 
BRANCH   3   4
ATOM      4  C   UNK A   0       0.910   2.193  19.054  0.00  0.00    +0.000 C 
BRANCH   4   5
ATOM      5  C   UNK A   0       2.222   1.582  19.533  0.00  0.00    +0.000 C 
BRANCH   5   6
ATOM      6  C   UNK A   0       3.253   1.549  18.402  0.00  0.00    +0.000 C 
BRANCH   6   8
ATOM      7  C   UNK A   0       4.768   3.329  19.231  0.00  0.00    +0.000 C 
ATOM      8  C   UNK A   0       3.974   2.875  18.241  0.00  0.00    +0.000 C 
ATOM      9  C   UNK A   0       3.690   3.594  16.946  0.00  0.00    +0.000 C 
BRANCH   7  11
ATOM     10  C   UNK A   0       6.657   4.755  18.560  0.00  0.00    +0.000 C 
ATOM     11  C   UNK A   0       5.500   4.575  19.215  0.00  0.00    +0.000 C 
BRANCH  10  12
ATOM     12  C   UNK A   0       7.386   6.068  18.596  0.00  0.00    +0.000 C 
BRANCH  12  13
ATOM     13  C   UNK A   0       7.341   6.780  17.245  0.00  0.00    +0.000 C 
BRANCH  13  14
ATOM     14  C   UNK A   0       5.942   7.338  16.983  0.00  0.00    +0.000 C 
BRANCH  14  16
ATOM     15  C   UNK A   0       5.717   5.769  15.043  0.00  0.00    +0.000 C 
ATOM     16  C   UNK A   0       5.165   6.463  16.046  0.00  0.00    +0.000 C 
ENDBRANCH  14  16
ENDBRANCH  13  14
ENDBRANCH  12  13
ENDBRANCH  10  12
ENDBRANCH   7  11
ENDBRANCH   6   8
ENDBRANCH   5   6
ENDBRANCH   4   5
ENDBRANCH   3   4
ENDBRANCH   1   3
BRANCH   2  17
ATOM     17  C   UNK A   0       2.385   6.757  20.720  0.00  0.00    +0.000 C 
BRANCH  17  18
ATOM     18  C   UNK A   0       1.770   7.922  19.935  0.00  0.00    +0.000 C 
BRANCH  18  19
ATOM     19  C   UNK A   0       2.263   8.047  18.521  0.00  0.00    +0.000 C 
ATOM     20  C   UNK A   0       2.055   9.122  17.739  0.00  0.00    +0.000 C 
BRANCH  20  21
ATOM     21  C   UNK A   0       1.244  10.289  18.173  0.00  0.00    +0.000 C 
ATOM     22  O   UNK A   0       1.709  11.274  18.732  0.00  0.00    +0.000 OA
ATOM     23  N   SER A   1      -0.088  10.185  17.854  0.00  0.00    +0.000 N 
ATOM     24  H   SER A   1      -0.358   9.508  17.152  0.00  0.00    +0.000 HD
BRANCH  23  25
ATOM     25  CA  SER A   1      -0.993  11.311  18.138  0.00  0.00    +0.000 C 
BRANCH  25  26
ATOM     26  CB  SER A   1      -2.168  11.377  17.142  0.00  0.00    +0.000 C 
BRANCH  26  27
ATOM     27  OG  SER A   1      -3.298  12.082  17.651  0.00  0.00    +0.000 OA
ATOM     28  H   SER A   1      -3.820  12.424  16.895  0.00  0.00    +0.000 HD
ENDBRANCH  26  27
ENDBRANCH  25  26
BRANCH  25  29
ATOM     29  C   SER A   1      -1.510  11.224  19.578  0.00  0.00    +0.000 C 
BRANCH  29  30
ATOM     30  O   SER A   1      -0.804  12.130  20.423  0.00  0.00    +0.000 OA
ATOM     31  H   SER A   1      -1.461  12.755  20.782  0.00  0.00    +0.000 HD
ENDBRANCH  29  30
ENDBRANCH  25  29
ENDBRANCH  23  25
ENDBRANCH  20  21
ENDBRANCH  18  19
ENDBRANCH  17  18
ENDBRANCH   2  17
TORSDOF 19
ENDMDL
