MODEL 1
REMARK VINA RESULT:      -8.5      0.000      0.000
REMARK  Name = 
REMARK  5 active torsions:
REMARK  status: ('A' for Active; 'I' for Inactive)
REMARK    1  A    between atoms: C_2  and  C_3
REMARK    2  A    between atoms: C_3  and  N_4
REMARK    3  A    between atoms: C_7  and  C_8
REMARK    4  A    between atoms: N_18  and  C_19
REMARK    5  A    between atoms: C_19  and  C_20
REMARK                            x       y       z     vdW  Elec       q    Type
REMARK                         _______ _______ _______ _____ _____    ______ ____
ROOT
ATOM      1  N   UNL     1       7.732   7.065  18.142  0.00  0.00    +0.000 N 
ATOM      2  N   UNL     1       7.168   7.746  17.135  0.00  0.00    +0.000 NA
ATOM      3  N   UNL     1       7.617   8.984  17.273  0.00  0.00    +0.000 NA
ATOM      4  C   UNL     1       8.461   8.990  18.363  0.00  0.00    +0.000 A 
ATOM      5  N   UNL     1       8.555   7.778  18.943  0.00  0.00    +0.000 NA
ENDROOT
BRANCH   4   6
ATOM      6  C   UNL     1       9.189  10.180  18.787  0.00  0.00    +0.000 A 
ATOM      7  C   UNL     1       9.359  10.452  20.167  0.00  0.00    +0.000 A 
ATOM      8  C   UNL     1      10.017  11.608  20.604  0.00  0.00    +0.000 A 
ATOM      9  C   UNL     1      10.487  12.476  19.646  0.00  0.00    +0.000 A 
ATOM     10  C   UNL     1      10.337  12.221  18.303  0.00  0.00    +0.000 A 
ATOM     11  C   UNL     1       9.703  11.084  17.842  0.00  0.00    +0.000 A 
ATOM     12  O   UNL     1      10.864  13.208  17.528  0.00  0.00    +0.000 OA
ATOM     13  C   UNL     1      11.304  14.141  18.539  0.00  0.00    +0.000 C 
ATOM     14  O   UNL     1      11.123  13.654  19.884  0.00  0.00    +0.000 OA
ENDBRANCH   4   6
BRANCH   1  15
ATOM     15  C   UNL     1       7.588   5.638  18.277  0.00  0.00    +0.000 C 
BRANCH  15  17
ATOM     16  O   UNL     1       6.467   4.290  16.648  0.00  0.00    +0.000 OA
ATOM     17  C   UNL     1       6.376   5.130  17.539  0.00  0.00    +0.000 C 
ATOM     18  N   UNL     1       5.163   5.601  17.999  0.00  0.00    +0.000 N 
ATOM     19  H   UNL     1       5.143   6.351  18.683  0.00  0.00    +0.000 HD
BRANCH  18  20
ATOM     20  C   UNL     1       3.900   5.222  17.400  0.00  0.00    +0.000 C 
BRANCH  20  21
ATOM     21  C   UNL     1       2.912   4.811  18.460  0.00  0.00    +0.000 A 
ATOM     22  C   UNL     1       2.986   5.357  19.749  0.00  0.00    +0.000 A 
ATOM     23  C   UNL     1       2.097   4.944  20.745  0.00  0.00    +0.000 A 
ATOM     24  C   UNL     1       1.133   3.979  20.468  0.00  0.00    +0.000 A 
ATOM     25  C   UNL     1       1.050   3.429  19.190  0.00  0.00    +0.000 A 
ATOM     26  C   UNL     1       1.935   3.841  18.191  0.00  0.00    +0.000 A 
ENDBRANCH  20  21
ENDBRANCH  18  20
ENDBRANCH  15  17
ENDBRANCH   1  15
TORSDOF 5
ENDMDL
MODEL 2
REMARK VINA RESULT:      -8.5      1.210      1.880
REMARK  Name = 
REMARK  5 active torsions:
REMARK  status: ('A' for Active; 'I' for Inactive)
REMARK    1  A    between atoms: C_2  and  C_3
REMARK    2  A    between atoms: C_3  and  N_4
REMARK    3  A    between atoms: C_7  and  C_8
REMARK    4  A    between atoms: N_18  and  C_19
REMARK    5  A    between atoms: C_19  and  C_20
REMARK                            x       y       z     vdW  Elec       q    Type
REMARK                         _______ _______ _______ _____ _____    ______ ____
ROOT
ATOM      1  N   UNL     1       7.977   7.223  18.472  0.00  0.00    +0.000 N 
ATOM      2  N   UNL     1       7.309   7.587  17.369  0.00  0.00    +0.000 NA
ATOM      3  N   UNL     1       7.562   8.879  17.234  0.00  0.00    +0.000 NA
ATOM      4  C   UNL     1       8.402   9.238  18.266  0.00  0.00    +0.000 A 
ATOM      5  N   UNL     1       8.685   8.201  19.078  0.00  0.00    +0.000 NA
ENDROOT
BRANCH   4   6
ATOM      6  C   UNL     1       8.940  10.585  18.409  0.00  0.00    +0.000 A 
ATOM      7  C   UNL     1       8.436  11.638  17.605  0.00  0.00    +0.000 A 
ATOM      8  C   UNL     1       8.961  12.934  17.692  0.00  0.00    +0.000 A 
ATOM      9  C   UNL     1       9.989  13.148  18.580  0.00  0.00    +0.000 A 
ATOM     10  C   UNL     1      10.482  12.138  19.374  0.00  0.00    +0.000 A 
ATOM     11  C   UNL     1       9.977  10.854  19.319  0.00  0.00    +0.000 A 
ATOM     12  O   UNL     1      11.499  12.560  20.172  0.00  0.00    +0.000 OA
ATOM     13  C   UNL     1      11.631  13.932  19.743  0.00  0.00    +0.000 C 
ATOM     14  O   UNL     1      10.635  14.328  18.778  0.00  0.00    +0.000 OA
ENDBRANCH   4   6
BRANCH   1  15
ATOM     15  C   UNL     1       8.056   5.849  18.902  0.00  0.00    +0.000 C 
BRANCH  15  17
ATOM     16  O   UNL     1       8.129   4.178  17.191  0.00  0.00    +0.000 OA
ATOM     17  C   UNL     1       7.441   4.915  17.890  0.00  0.00    +0.000 C 
ATOM     18  N   UNL     1       6.061   4.881  17.880  0.00  0.00    +0.000 N 
ATOM     19  H   UNL     1       5.538   5.563  18.420  0.00  0.00    +0.000 HD
BRANCH  18  20
ATOM     20  C   UNL     1       5.308   4.046  16.967  0.00  0.00    +0.000 C 
BRANCH  20  21
ATOM     21  C   UNL     1       3.913   3.815  17.486  0.00  0.00    +0.000 A 
ATOM     22  C   UNL     1       3.396   2.514  17.576  0.00  0.00    +0.000 A 
ATOM     23  C   UNL     1       2.087   2.303  18.016  0.00  0.00    +0.000 A 
ATOM     24  C   UNL     1       1.280   3.383  18.363  0.00  0.00    +0.000 A 
ATOM     25  C   UNL     1       1.784   4.680  18.277  0.00  0.00    +0.000 A 
ATOM     26  C   UNL     1       3.092   4.896  17.840  0.00  0.00    +0.000 A 
ENDBRANCH  20  21
ENDBRANCH  18  20
ENDBRANCH  15  17
ENDBRANCH   1  15
TORSDOF 5
ENDMDL
MODEL 3
REMARK VINA RESULT:      -8.3      1.249      1.837
REMARK  Name = 
REMARK  5 active torsions:
REMARK  status: ('A' for Active; 'I' for Inactive)
REMARK    1  A    between atoms: C_2  and  C_3
REMARK    2  A    between atoms: C_3  and  N_4
REMARK    3  A    between atoms: C_7  and  C_8
REMARK    4  A    between atoms: N_18  and  C_19
REMARK    5  A    between atoms: C_19  and  C_20
REMARK                            x       y       z     vdW  Elec       q    Type
REMARK                         _______ _______ _______ _____ _____    ______ ____
ROOT
ATOM      1  N   UNL     1       7.522   6.533  17.896  0.00  0.00    +0.000 N 
ATOM      2  N   UNL     1       6.735   7.088  16.963  0.00  0.00    +0.000 NA
ATOM      3  N   UNL     1       6.991   8.385  17.034  0.00  0.00    +0.000 NA
ATOM      4  C   UNL     1       7.952   8.555  18.007  0.00  0.00    +0.000 A 
ATOM      5  N   UNL     1       8.312   7.390  18.580  0.00  0.00    +0.000 NA
ENDROOT
BRANCH   4   6
ATOM      6  C   UNL     1       8.525   9.857  18.326  0.00  0.00    +0.000 A 
ATOM      7  C   UNL     1       8.259  10.971  17.492  0.00  0.00    +0.000 A 
ATOM      8  C   UNL     1       8.827  12.225  17.750  0.00  0.00    +0.000 A 
ATOM      9  C   UNL     1       9.661  12.335  18.839  0.00  0.00    +0.000 A 
ATOM     10  C   UNL     1       9.921  11.265  19.663  0.00  0.00    +0.000 A 
ATOM     11  C   UNL     1       9.366  10.020  19.440  0.00  0.00    +0.000 A 
ATOM     12  O   UNL     1      10.774  11.587  20.672  0.00  0.00    +0.000 OA
ATOM     13  C   UNL     1      11.070  12.963  20.350  0.00  0.00    +0.000 C 
ATOM     14  O   UNL     1      10.318  13.461  19.224  0.00  0.00    +0.000 OA
ENDBRANCH   4   6
BRANCH   1  15
ATOM     15  C   UNL     1       7.628   5.105  18.058  0.00  0.00    +0.000 C 
BRANCH  15  17
ATOM     16  O   UNL     1       6.561   3.978  16.237  0.00  0.00    +0.000 OA
ATOM     17  C   UNL     1       6.483   4.384  17.393  0.00  0.00    +0.000 C 
ATOM     18  N   UNL     1       5.394   4.132  18.201  0.00  0.00    +0.000 N 
ATOM     19  H   UNL     1       5.345   4.553  19.123  0.00  0.00    +0.000 HD
BRANCH  18  20
ATOM     20  C   UNL     1       4.206   3.456  17.722  0.00  0.00    +0.000 C 
BRANCH  20  21
ATOM     21  C   UNL     1       3.211   3.273  18.838  0.00  0.00    +0.000 A 
ATOM     22  C   UNL     1       1.853   3.552  18.630  0.00  0.00    +0.000 A 
ATOM     23  C   UNL     1       0.936   3.424  19.678  0.00  0.00    +0.000 A 
ATOM     24  C   UNL     1       1.365   3.026  20.941  0.00  0.00    +0.000 A 
ATOM     25  C   UNL     1       2.714   2.746  21.158  0.00  0.00    +0.000 A 
ATOM     26  C   UNL     1       3.632   2.871  20.114  0.00  0.00    +0.000 A 
ENDBRANCH  20  21
ENDBRANCH  18  20
ENDBRANCH  15  17
ENDBRANCH   1  15
TORSDOF 5
ENDMDL
MODEL 4
REMARK VINA RESULT:      -8.2      5.715      7.329
REMARK  Name = 
REMARK  5 active torsions:
REMARK  status: ('A' for Active; 'I' for Inactive)
REMARK    1  A    between atoms: C_2  and  C_3
REMARK    2  A    between atoms: C_3  and  N_4
REMARK    3  A    between atoms: C_7  and  C_8
REMARK    4  A    between atoms: N_18  and  C_19
REMARK    5  A    between atoms: C_19  and  C_20
REMARK                            x       y       z     vdW  Elec       q    Type
REMARK                         _______ _______ _______ _____ _____    ______ ____
ROOT
ATOM      1  N   UNL     1       2.789   2.950  18.711  0.00  0.00    +0.000 N 
ATOM      2  N   UNL     1       2.056   2.691  17.620  0.00  0.00    +0.000 NA
ATOM      3  N   UNL     1       2.801   3.107  16.607  0.00  0.00    +0.000 NA
ATOM      4  C   UNL     1       3.978   3.586  17.141  0.00  0.00    +0.000 A 
ATOM      5  N   UNL     1       4.002   3.502  18.485  0.00  0.00    +0.000 NA
ENDROOT
BRANCH   4   6
ATOM      6  C   UNL     1       5.071   4.081  16.314  0.00  0.00    +0.000 A 
ATOM      7  C   UNL     1       5.987   5.026  16.840  0.00  0.00    +0.000 A 
ATOM      8  C   UNL     1       7.022   5.550  16.057  0.00  0.00    +0.000 A 
ATOM      9  C   UNL     1       7.115   5.122  14.752  0.00  0.00    +0.000 A 
ATOM     10  C   UNL     1       6.240   4.198  14.230  0.00  0.00    +0.000 A 
ATOM     11  C   UNL     1       5.216   3.656  14.982  0.00  0.00    +0.000 A 
ATOM     12  O   UNL     1       6.503   3.920  12.925  0.00  0.00    +0.000 OA
ATOM     13  C   UNL     1       7.602   4.821  12.670  0.00  0.00    +0.000 C 
ATOM     14  O   UNL     1       8.035   5.540  13.843  0.00  0.00    +0.000 OA
ENDBRANCH   4   6
BRANCH   1  15
ATOM     15  C   UNL     1       2.377   2.533  20.028  0.00  0.00    +0.000 C 
BRANCH  15  17
ATOM     16  O   UNL     1       2.130   3.598  22.156  0.00  0.00    +0.000 OA
ATOM     17  C   UNL     1       2.136   3.713  20.934  0.00  0.00    +0.000 C 
ATOM     18  N   UNL     1       2.021   4.933  20.298  0.00  0.00    +0.000 N 
ATOM     19  H   UNL     1       1.955   4.967  19.286  0.00  0.00    +0.000 HD
BRANCH  18  20
ATOM     20  C   UNL     1       1.780   6.168  21.015  0.00  0.00    +0.000 C 
BRANCH  20  21
ATOM     21  C   UNL     1       1.801   7.342  20.073  0.00  0.00    +0.000 A 
ATOM     22  C   UNL     1       1.158   8.540  20.418  0.00  0.00    +0.000 A 
ATOM     23  C   UNL     1       1.139   9.616  19.526  0.00  0.00    +0.000 A 
ATOM     24  C   UNL     1       1.753   9.506  18.282  0.00  0.00    +0.000 A 
ATOM     25  C   UNL     1       2.396   8.320  17.928  0.00  0.00    +0.000 A 
ATOM     26  C   UNL     1       2.418   7.243  18.817  0.00  0.00    +0.000 A 
ENDBRANCH  20  21
ENDBRANCH  18  20
ENDBRANCH  15  17
ENDBRANCH   1  15
TORSDOF 5
ENDMDL
MODEL 5
REMARK VINA RESULT:      -8.2      1.221      1.402
REMARK  Name = 
REMARK  5 active torsions:
REMARK  status: ('A' for Active; 'I' for Inactive)
REMARK    1  A    between atoms: C_2  and  C_3
REMARK    2  A    between atoms: C_3  and  N_4
REMARK    3  A    between atoms: C_7  and  C_8
REMARK    4  A    between atoms: N_18  and  C_19
REMARK    5  A    between atoms: C_19  and  C_20
REMARK                            x       y       z     vdW  Elec       q    Type
REMARK                         _______ _______ _______ _____ _____    ______ ____
ROOT
ATOM      1  N   UNL     1       8.050   7.177  18.486  0.00  0.00    +0.000 N 
ATOM      2  N   UNL     1       7.510   7.662  17.359  0.00  0.00    +0.000 NA
ATOM      3  N   UNL     1       7.835   8.945  17.355  0.00  0.00    +0.000 NA
ATOM      4  C   UNL     1       8.586   9.176  18.487  0.00  0.00    +0.000 A 
ATOM      5  N   UNL     1       8.740   8.066  19.234  0.00  0.00    +0.000 NA
ENDROOT
BRANCH   4   6
ATOM      6  C   UNL     1       9.169  10.478  18.791  0.00  0.00    +0.000 A 
ATOM      7  C   UNL     1       9.925  10.656  19.976  0.00  0.00    +0.000 A 
ATOM      8  C   UNL     1      10.463  11.905  20.314  0.00  0.00    +0.000 A 
ATOM      9  C   UNL     1      10.224  12.955  19.459  0.00  0.00    +0.000 A 
ATOM     10  C   UNL     1       9.500  12.795  18.301  0.00  0.00    +0.000 A 
ATOM     11  C   UNL     1       8.967  11.574  17.935  0.00  0.00    +0.000 A 
ATOM     12  O   UNL     1       9.374  13.958  17.606  0.00  0.00    +0.000 OA
ATOM     13  C   UNL     1      10.047  14.878  18.492  0.00  0.00    +0.000 C 
ATOM     14  O   UNL     1      10.642  14.236  19.639  0.00  0.00    +0.000 OA
ENDBRANCH   4   6
BRANCH   1  15
ATOM     15  C   UNL     1       8.023   5.772  18.806  0.00  0.00    +0.000 C 
BRANCH  15  17
ATOM     16  O   UNL     1       7.850   4.344  16.894  0.00  0.00    +0.000 OA
ATOM     17  C   UNL     1       7.269   4.981  17.768  0.00  0.00    +0.000 C 
ATOM     18  N   UNL     1       5.899   4.947  17.932  0.00  0.00    +0.000 N 
ATOM     19  H   UNL     1       5.461   5.550  18.621  0.00  0.00    +0.000 HD
BRANCH  18  20
ATOM     20  C   UNL     1       5.021   4.240  17.022  0.00  0.00    +0.000 C 
BRANCH  20  21
ATOM     21  C   UNL     1       3.823   3.697  17.754  0.00  0.00    +0.000 A 
ATOM     22  C   UNL     1       2.526   4.058  17.359  0.00  0.00    +0.000 A 
ATOM     23  C   UNL     1       1.415   3.589  18.065  0.00  0.00    +0.000 A 
ATOM     24  C   UNL     1       1.585   2.764  19.173  0.00  0.00    +0.000 A 
ATOM     25  C   UNL     1       2.869   2.399  19.575  0.00  0.00    +0.000 A 
ATOM     26  C   UNL     1       3.982   2.864  18.872  0.00  0.00    +0.000 A 
ENDBRANCH  20  21
ENDBRANCH  18  20
ENDBRANCH  15  17
ENDBRANCH   1  15
TORSDOF 5
ENDMDL
MODEL 6
REMARK VINA RESULT:      -8.2      2.396      9.759
REMARK  Name = 
REMARK  5 active torsions:
REMARK  status: ('A' for Active; 'I' for Inactive)
REMARK    1  A    between atoms: C_2  and  C_3
REMARK    2  A    between atoms: C_3  and  N_4
REMARK    3  A    between atoms: C_7  and  C_8
REMARK    4  A    between atoms: N_18  and  C_19
REMARK    5  A    between atoms: C_19  and  C_20
REMARK                            x       y       z     vdW  Elec       q    Type
REMARK                         _______ _______ _______ _____ _____    ______ ____
ROOT
ATOM      1  N   UNL     1       6.879   6.671  17.074  0.00  0.00    +0.000 N 
ATOM      2  N   UNL     1       7.256   5.650  16.292  0.00  0.00    +0.000 NA
ATOM      3  N   UNL     1       6.400   4.679  16.571  0.00  0.00    +0.000 NA
ATOM      4  C   UNL     1       5.519   5.173  17.509  0.00  0.00    +0.000 A 
ATOM      5  N   UNL     1       5.799   6.444  17.854  0.00  0.00    +0.000 NA
ENDROOT
BRANCH   4   6
ATOM      6  C   UNL     1       4.396   4.395  18.017  0.00  0.00    +0.000 A 
ATOM      7  C   UNL     1       3.605   3.628  17.126  0.00  0.00    +0.000 A 
ATOM      8  C   UNL     1       2.495   2.903  17.579  0.00  0.00    +0.000 A 
ATOM      9  C   UNL     1       2.194   2.969  18.920  0.00  0.00    +0.000 A 
ATOM     10  C   UNL     1       2.958   3.702  19.798  0.00  0.00    +0.000 A 
ATOM     11  C   UNL     1       4.064   4.417  19.382  0.00  0.00    +0.000 A 
ATOM     12  O   UNL     1       2.483   3.639  21.071  0.00  0.00    +0.000 OA
ATOM     13  C   UNL     1       1.299   2.835  20.881  0.00  0.00    +0.000 C 
ATOM     14  O   UNL     1       1.145   2.356  19.529  0.00  0.00    +0.000 OA
ENDBRANCH   4   6
BRANCH   1  15
ATOM     15  C   UNL     1       7.492   7.972  16.983  0.00  0.00    +0.000 C 
BRANCH  15  17
ATOM     16  O   UNL     1       8.619   7.451  19.029  0.00  0.00    +0.000 OA
ATOM     17  C   UNL     1       8.253   8.316  18.239  0.00  0.00    +0.000 C 
ATOM     18  N   UNL     1       8.586   9.647  18.381  0.00  0.00    +0.000 N 
ATOM     19  H   UNL     1       8.196  10.334  17.744  0.00  0.00    +0.000 HD
BRANCH  18  20
ATOM     20  C   UNL     1       9.309  10.153  19.531  0.00  0.00    +0.000 C 
BRANCH  20  21
ATOM     21  C   UNL     1      10.316  11.191  19.111  0.00  0.00    +0.000 A 
ATOM     22  C   UNL     1      11.120  11.826  20.068  0.00  0.00    +0.000 A 
ATOM     23  C   UNL     1      12.024  12.821  19.685  0.00  0.00    +0.000 A 
ATOM     24  C   UNL     1      12.130  13.195  18.348  0.00  0.00    +0.000 A 
ATOM     25  C   UNL     1      11.336  12.569  17.388  0.00  0.00    +0.000 A 
ATOM     26  C   UNL     1      10.432  11.574  17.767  0.00  0.00    +0.000 A 
ENDBRANCH  20  21
ENDBRANCH  18  20
ENDBRANCH  15  17
ENDBRANCH   1  15
TORSDOF 5
ENDMDL
MODEL 7
REMARK VINA RESULT:      -8.1      1.208      1.855
REMARK  Name = 
REMARK  5 active torsions:
REMARK  status: ('A' for Active; 'I' for Inactive)
REMARK    1  A    between atoms: C_2  and  C_3
REMARK    2  A    between atoms: C_3  and  N_4
REMARK    3  A    between atoms: C_7  and  C_8
REMARK    4  A    between atoms: N_18  and  C_19
REMARK    5  A    between atoms: C_19  and  C_20
REMARK                            x       y       z     vdW  Elec       q    Type
REMARK                         _______ _______ _______ _____ _____    ______ ____
ROOT
ATOM      1  N   UNL     1       6.932   7.010  17.275  0.00  0.00    +0.000 N 
ATOM      2  N   UNL     1       7.697   6.458  18.227  0.00  0.00    +0.000 NA
ATOM      3  N   UNL     1       8.409   7.464  18.712  0.00  0.00    +0.000 NA
ATOM      4  C   UNL     1       8.020   8.599  18.034  0.00  0.00    +0.000 A 
ATOM      5  N   UNL     1       7.078   8.343  17.106  0.00  0.00    +0.000 NA
ENDROOT
BRANCH   4   6
ATOM      6  C   UNL     1       8.556   9.920  18.342  0.00  0.00    +0.000 A 
ATOM      7  C   UNL     1       8.241  11.023  17.511  0.00  0.00    +0.000 A 
ATOM      8  C   UNL     1       8.773  12.295  17.757  0.00  0.00    +0.000 A 
ATOM      9  C   UNL     1       9.622  12.434  18.831  0.00  0.00    +0.000 A 
ATOM     10  C   UNL     1       9.930  11.374  19.652  0.00  0.00    +0.000 A 
ATOM     11  C   UNL     1       9.411  10.112  19.440  0.00  0.00    +0.000 A 
ATOM     12  O   UNL     1      10.790  11.725  20.646  0.00  0.00    +0.000 OA
ATOM     13  C   UNL     1      11.036  13.109  20.317  0.00  0.00    +0.000 C 
ATOM     14  O   UNL     1      10.250  13.581  19.204  0.00  0.00    +0.000 OA
ENDBRANCH   4   6
BRANCH   1  15
ATOM     15  C   UNL     1       5.917   6.262  16.578  0.00  0.00    +0.000 C 
BRANCH  15  17
ATOM     16  O   UNL     1       6.003   3.872  16.658  0.00  0.00    +0.000 OA
ATOM     17  C   UNL     1       5.682   4.917  17.217  0.00  0.00    +0.000 C 
ATOM     18  N   UNL     1       5.176   4.952  18.501  0.00  0.00    +0.000 N 
ATOM     19  H   UNL     1       4.855   5.833  18.890  0.00  0.00    +0.000 HD
BRANCH  18  20
ATOM     20  C   UNL     1       4.883   3.753  19.258  0.00  0.00    +0.000 C 
BRANCH  20  21
ATOM     21  C   UNL     1       3.396   3.564  19.400  0.00  0.00    +0.000 A 
ATOM     22  C   UNL     1       2.742   3.946  20.581  0.00  0.00    +0.000 A 
ATOM     23  C   UNL     1       1.369   3.731  20.730  0.00  0.00    +0.000 A 
ATOM     24  C   UNL     1       0.638   3.128  19.711  0.00  0.00    +0.000 A 
ATOM     25  C   UNL     1       1.278   2.744  18.533  0.00  0.00    +0.000 A 
ATOM     26  C   UNL     1       2.649   2.958  18.378  0.00  0.00    +0.000 A 
ENDBRANCH  20  21
ENDBRANCH  18  20
ENDBRANCH  15  17
ENDBRANCH   1  15
TORSDOF 5
ENDMDL
MODEL 8
REMARK VINA RESULT:      -8.1      1.313      1.970
REMARK  Name = 
REMARK  5 active torsions:
REMARK  status: ('A' for Active; 'I' for Inactive)
REMARK    1  A    between atoms: C_2  and  C_3
REMARK    2  A    between atoms: C_3  and  N_4
REMARK    3  A    between atoms: C_7  and  C_8
REMARK    4  A    between atoms: N_18  and  C_19
REMARK    5  A    between atoms: C_19  and  C_20
REMARK                            x       y       z     vdW  Elec       q    Type
REMARK                         _______ _______ _______ _____ _____    ______ ____
ROOT
ATOM      1  N   UNL     1       7.140   6.987  17.446  0.00  0.00    +0.000 N 
ATOM      2  N   UNL     1       7.860   6.494  18.463  0.00  0.00    +0.000 NA
ATOM      3  N   UNL     1       8.547   7.529  18.922  0.00  0.00    +0.000 NA
ATOM      4  C   UNL     1       8.188   8.621  18.162  0.00  0.00    +0.000 A 
ATOM      5  N   UNL     1       7.292   8.308  17.207  0.00  0.00    +0.000 NA
ENDROOT
BRANCH   4   6
ATOM      6  C   UNL     1       8.707   9.960  18.418  0.00  0.00    +0.000 A 
ATOM      7  C   UNL     1       8.352  11.032  17.563  0.00  0.00    +0.000 A 
ATOM      8  C   UNL     1       8.867  12.320  17.759  0.00  0.00    +0.000 A 
ATOM      9  C   UNL     1       9.738  12.506  18.807  0.00  0.00    +0.000 A 
ATOM     10  C   UNL     1      10.084  11.477  19.651  0.00  0.00    +0.000 A 
ATOM     11  C   UNL     1       9.584  10.200  19.489  0.00  0.00    +0.000 A 
ATOM     12  O   UNL     1      10.961  11.872  20.614  0.00  0.00    +0.000 OA
ATOM     13  C   UNL     1      11.174  13.250  20.238  0.00  0.00    +0.000 C 
ATOM     14  O   UNL     1      10.353  13.674  19.131  0.00  0.00    +0.000 OA
ENDBRANCH   4   6
BRANCH   1  15
ATOM     15  C   UNL     1       6.160   6.195  16.747  0.00  0.00    +0.000 C 
BRANCH  15  17
ATOM     16  O   UNL     1       4.006   7.167  16.370  0.00  0.00    +0.000 OA
ATOM     17  C   UNL     1       4.755   6.575  17.141  0.00  0.00    +0.000 C 
ATOM     18  N   UNL     1       4.349   6.128  18.382  0.00  0.00    +0.000 N 
ATOM     19  H   UNL     1       5.027   5.711  19.013  0.00  0.00    +0.000 HD
BRANCH  18  20
ATOM     20  C   UNL     1       3.034   6.410  18.921  0.00  0.00    +0.000 C 
BRANCH  20  21
ATOM     21  C   UNL     1       2.255   5.135  19.116  0.00  0.00    +0.000 A 
ATOM     22  C   UNL     1       1.703   4.826  20.368  0.00  0.00    +0.000 A 
ATOM     23  C   UNL     1       1.018   3.623  20.561  0.00  0.00    +0.000 A 
ATOM     24  C   UNL     1       0.883   2.717  19.513  0.00  0.00    +0.000 A 
ATOM     25  C   UNL     1       1.427   3.015  18.265  0.00  0.00    +0.000 A 
ATOM     26  C   UNL     1       2.111   4.215  18.067  0.00  0.00    +0.000 A 
ENDBRANCH  20  21
ENDBRANCH  18  20
ENDBRANCH  15  17
ENDBRANCH   1  15
TORSDOF 5
ENDMDL
MODEL 9
REMARK VINA RESULT:      -8.0      1.748      2.152
REMARK  Name = 
REMARK  5 active torsions:
REMARK  status: ('A' for Active; 'I' for Inactive)
REMARK    1  A    between atoms: C_2  and  C_3
REMARK    2  A    between atoms: C_3  and  N_4
REMARK    3  A    between atoms: C_7  and  C_8
REMARK    4  A    between atoms: N_18  and  C_19
REMARK    5  A    between atoms: C_19  and  C_20
REMARK                            x       y       z     vdW  Elec       q    Type
REMARK                         _______ _______ _______ _____ _____    ______ ____
ROOT
ATOM      1  N   UNL     1       7.698   7.239  18.036  0.00  0.00    +0.000 N 
ATOM      2  N   UNL     1       7.073   8.022  17.146  0.00  0.00    +0.000 NA
ATOM      3  N   UNL     1       7.563   9.233  17.360  0.00  0.00    +0.000 NA
ATOM      4  C   UNL     1       8.492   9.120  18.373  0.00  0.00    +0.000 A 
ATOM      5  N   UNL     1       8.601   7.858  18.829  0.00  0.00    +0.000 NA
ENDROOT
BRANCH   4   6
ATOM      6  C   UNL     1       9.281  10.252  18.844  0.00  0.00    +0.000 A 
ATOM      7  C   UNL     1       9.304  10.575  20.223  0.00  0.00    +0.000 A 
ATOM      8  C   UNL     1      10.020  11.680  20.700  0.00  0.00    +0.000 A 
ATOM      9  C   UNL     1      10.695  12.448  19.779  0.00  0.00    +0.000 A 
ATOM     10  C   UNL     1      10.690  12.142  18.438  0.00  0.00    +0.000 A 
ATOM     11  C   UNL     1      10.003  11.052  17.941  0.00  0.00    +0.000 A 
ATOM     12  O   UNL     1      11.412  13.031  17.704  0.00  0.00    +0.000 OA
ATOM     13  C   UNL     1      11.816  13.965  18.728  0.00  0.00    +0.000 C 
ATOM     14  O   UNL     1      11.417  13.566  20.055  0.00  0.00    +0.000 OA
ENDBRANCH   4   6
BRANCH   1  15
ATOM     15  C   UNL     1       7.529   5.808  18.050  0.00  0.00    +0.000 C 
BRANCH  15  17
ATOM     16  O   UNL     1       6.244   4.729  19.755  0.00  0.00    +0.000 OA
ATOM     17  C   UNL     1       6.246   5.407  18.733  0.00  0.00    +0.000 C 
ATOM     18  N   UNL     1       5.095   5.934  18.184  0.00  0.00    +0.000 N 
ATOM     19  H   UNL     1       5.141   6.424  17.296  0.00  0.00    +0.000 HD
BRANCH  18  20
ATOM     20  C   UNL     1       3.776   5.646  18.709  0.00  0.00    +0.000 C 
BRANCH  20  21
ATOM     21  C   UNL     1       2.963   6.909  18.826  0.00  0.00    +0.000 A 
ATOM     22  C   UNL     1       2.214   7.165  19.984  0.00  0.00    +0.000 A 
ATOM     23  C   UNL     1       1.425   8.315  20.075  0.00  0.00    +0.000 A 
ATOM     24  C   UNL     1       1.369   9.214  19.013  0.00  0.00    +0.000 A 
ATOM     25  C   UNL     1       2.109   8.968  17.857  0.00  0.00    +0.000 A 
ATOM     26  C   UNL     1       2.900   7.822  17.763  0.00  0.00    +0.000 A 
ENDBRANCH  20  21
ENDBRANCH  18  20
ENDBRANCH  15  17
ENDBRANCH   1  15
TORSDOF 5
ENDMDL
