MODEL 1
REMARK VINA RESULT:      -6.9      0.000      0.000
REMARK  Name = 
REMARK  12 active torsions:
REMARK  status: ('A' for Active; 'I' for Inactive)
REMARK    1  A    between atoms: C_1  and  C_2
REMARK    2  A    between atoms: C_2  and  C_3
REMARK    3  A    between atoms: C_3  and  C_4
REMARK    4  A    between atoms: C_4  and  C_5
REMARK    5  A    between atoms: C_5  and  C_6
REMARK    6  A    between atoms: C_6  and  C_7
REMARK    7  A    between atoms: C_7  and  C_8
REMARK    8  A    between atoms: C_8  and  N_9
REMARK    9  A    between atoms: C_19  and  O_20
REMARK   10  A    between atoms: O_20  and  C_21
REMARK   11  A    between atoms: C_21  and  C_22
REMARK   12  A    between atoms: C_22  and  O_23
REMARK                            x       y       z     vdW  Elec       q    Type
REMARK                         _______ _______ _______ _____ _____    ______ ____
ROOT
ATOM      1  N   UNL     1       4.617   4.645  18.540  0.00  0.00    +0.000 N 
ATOM      2  C   UNL     1       5.244   4.780  17.312  0.00  0.00    +0.000 A 
ATOM      3  C   UNL     1       6.173   3.963  16.644  0.00  0.00    +0.000 A 
ATOM      4  C   UNL     1       6.620   4.359  15.379  0.00  0.00    +0.000 A 
ATOM      5  C   UNL     1       6.154   5.529  14.791  0.00  0.00    +0.000 A 
ATOM      6  C   UNL     1       5.225   6.335  15.458  0.00  0.00    +0.000 A 
ATOM      7  C   UNL     1       4.762   5.961  16.739  0.00  0.00    +0.000 A 
ATOM      8  C   UNL     1       3.833   6.544  17.658  0.00  0.00    +0.000 A 
ATOM      9  C   UNL     1       3.013   7.691  17.625  0.00  0.00    +0.000 A 
ATOM     10  C   UNL     1       2.181   7.989  18.714  0.00  0.00    +0.000 A 
ATOM     11  C   UNL     1       2.186   7.183  19.848  0.00  0.00    +0.000 A 
ATOM     12  C   UNL     1       3.037   6.078  19.921  0.00  0.00    +0.000 A 
ATOM     13  C   UNL     1       3.813   5.742  18.799  0.00  0.00    +0.000 A 
ENDROOT
BRANCH   1  14
ATOM     14  C   UNL     1       4.712   3.479  19.404  0.00  0.00    +0.000 C 
BRANCH  14  15
ATOM     15  C   UNL     1       4.136   2.192  18.800  0.00  0.00    +0.000 C 
BRANCH  15  16
ATOM     16  C   UNL     1       3.015   2.440  17.789  0.00  0.00    +0.000 C 
BRANCH  16  17
ATOM     17  C   UNL     1       1.651   2.155  18.419  0.00  0.00    +0.000 C 
BRANCH  17  18
ATOM     18  C   UNL     1       0.852   3.441  18.617  0.00  0.00    +0.000 C 
BRANCH  18  19
ATOM     19  C   UNL     1       0.705   3.767  20.103  0.00  0.00    +0.000 C 
BRANCH  19  21
ATOM     20  C   UNL     1       2.184   3.112  22.028  0.00  0.00    +0.000 C 
ATOM     21  C   UNL     1       1.207   2.618  20.974  0.00  0.00    +0.000 C 
ENDBRANCH  19  21
ENDBRANCH  18  19
ENDBRANCH  17  18
ENDBRANCH  16  17
ENDBRANCH  15  16
ENDBRANCH  14  15
ENDBRANCH   1  14
BRANCH  11  22
ATOM     22  O   UNL     1       1.427   7.394  20.969  0.00  0.00    +0.000 OA
BRANCH  22  23
ATOM     23  C   UNL     1       1.216   8.768  21.322  0.00  0.00    +0.000 C 
BRANCH  23  24
ATOM     24  C   UNL     1      -0.237   8.913  21.766  0.00  0.00    +0.000 C 
BRANCH  24  25
ATOM     25  O   UNL     1      -0.303   9.541  23.046  0.00  0.00    +0.000 OA
ATOM     26  H   UNL     1       0.056   8.891  23.680  0.00  0.00    +0.000 HD
ENDBRANCH  24  25
ENDBRANCH  23  24
ENDBRANCH  22  23
ENDBRANCH  11  22
TORSDOF 11
ENDMDL
MODEL 2
REMARK VINA RESULT:      -6.7      1.472      2.763
REMARK  Name = 
REMARK  12 active torsions:
REMARK  status: ('A' for Active; 'I' for Inactive)
REMARK    1  A    between atoms: C_1  and  C_2
REMARK    2  A    between atoms: C_2  and  C_3
REMARK    3  A    between atoms: C_3  and  C_4
REMARK    4  A    between atoms: C_4  and  C_5
REMARK    5  A    between atoms: C_5  and  C_6
REMARK    6  A    between atoms: C_6  and  C_7
REMARK    7  A    between atoms: C_7  and  C_8
REMARK    8  A    between atoms: C_8  and  N_9
REMARK    9  A    between atoms: C_19  and  O_20
REMARK   10  A    between atoms: O_20  and  C_21
REMARK   11  A    between atoms: C_21  and  C_22
REMARK   12  A    between atoms: C_22  and  O_23
REMARK                            x       y       z     vdW  Elec       q    Type
REMARK                         _______ _______ _______ _____ _____    ______ ____
ROOT
ATOM      1  N   UNL     1       2.909   6.176  19.902  0.00  0.00    +0.000 N 
ATOM      2  C   UNL     1       3.916   5.810  19.023  0.00  0.00    +0.000 A 
ATOM      3  C   UNL     1       4.818   4.731  19.034  0.00  0.00    +0.000 A 
ATOM      4  C   UNL     1       5.725   4.612  17.976  0.00  0.00    +0.000 A 
ATOM      5  C   UNL     1       5.735   5.533  16.936  0.00  0.00    +0.000 A 
ATOM      6  C   UNL     1       4.831   6.601  16.928  0.00  0.00    +0.000 A 
ATOM      7  C   UNL     1       3.908   6.749  17.986  0.00  0.00    +0.000 A 
ATOM      8  C   UNL     1       2.875   7.698  18.266  0.00  0.00    +0.000 A 
ATOM      9  C   UNL     1       2.372   8.826  17.584  0.00  0.00    +0.000 A 
ATOM     10  C   UNL     1       1.312   9.563  18.134  0.00  0.00    +0.000 A 
ATOM     11  C   UNL     1       0.778   9.215  19.370  0.00  0.00    +0.000 A 
ATOM     12  C   UNL     1       1.305   8.138  20.087  0.00  0.00    +0.000 A 
ATOM     13  C   UNL     1       2.315   7.359  19.497  0.00  0.00    +0.000 A 
ENDROOT
BRANCH   1  14
ATOM     14  C   UNL     1       2.469   5.389  21.044  0.00  0.00    +0.000 C 
BRANCH  14  15
ATOM     15  C   UNL     1       1.218   4.539  20.785  0.00  0.00    +0.000 C 
BRANCH  15  16
ATOM     16  C   UNL     1       1.372   3.080  21.218  0.00  0.00    +0.000 C 
BRANCH  16  17
ATOM     17  C   UNL     1       2.307   2.333  20.266  0.00  0.00    +0.000 C 
BRANCH  17  18
ATOM     18  C   UNL     1       1.610   2.009  18.947  0.00  0.00    +0.000 C 
BRANCH  18  19
ATOM     19  C   UNL     1       2.607   2.016  17.788  0.00  0.00    +0.000 C 
BRANCH  19  21
ATOM     20  C   UNL     1       1.284   4.116  17.388  0.00  0.00    +0.000 C 
ATOM     21  C   UNL     1       2.500   3.303  16.974  0.00  0.00    +0.000 C 
ENDBRANCH  19  21
ENDBRANCH  18  19
ENDBRANCH  17  18
ENDBRANCH  16  17
ENDBRANCH  15  16
ENDBRANCH  14  15
ENDBRANCH   1  14
BRANCH  11  22
ATOM     22  O   UNL     1      -0.243   9.875  20.002  0.00  0.00    +0.000 OA
BRANCH  22  23
ATOM     23  C   UNL     1       0.157  10.768  21.052  0.00  0.00    +0.000 C 
BRANCH  23  24
ATOM     24  C   UNL     1      -0.544  10.319  22.332  0.00  0.00    +0.000 C 
BRANCH  24  25
ATOM     25  O   UNL     1      -0.550  11.377  23.289  0.00  0.00    +0.000 OA
ATOM     26  H   UNL     1      -1.288  11.963  23.034  0.00  0.00    +0.000 HD
ENDBRANCH  24  25
ENDBRANCH  23  24
ENDBRANCH  22  23
ENDBRANCH  11  22
TORSDOF 11
ENDMDL
MODEL 3
REMARK VINA RESULT:      -6.7      2.318      5.344
REMARK  Name = 
REMARK  12 active torsions:
REMARK  status: ('A' for Active; 'I' for Inactive)
REMARK    1  A    between atoms: C_1  and  C_2
REMARK    2  A    between atoms: C_2  and  C_3
REMARK    3  A    between atoms: C_3  and  C_4
REMARK    4  A    between atoms: C_4  and  C_5
REMARK    5  A    between atoms: C_5  and  C_6
REMARK    6  A    between atoms: C_6  and  C_7
REMARK    7  A    between atoms: C_7  and  C_8
REMARK    8  A    between atoms: C_8  and  N_9
REMARK    9  A    between atoms: C_19  and  O_20
REMARK   10  A    between atoms: O_20  and  C_21
REMARK   11  A    between atoms: C_21  and  C_22
REMARK   12  A    between atoms: C_22  and  O_23
REMARK                            x       y       z     vdW  Elec       q    Type
REMARK                         _______ _______ _______ _____ _____    ______ ____
ROOT
ATOM      1  N   UNL     1       3.330   5.928  18.332  0.00  0.00    +0.000 N 
ATOM      2  C   UNL     1       3.255   4.823  19.164  0.00  0.00    +0.000 A 
ATOM      3  C   UNL     1       3.821   3.540  19.064  0.00  0.00    +0.000 A 
ATOM      4  C   UNL     1       3.579   2.623  20.093  0.00  0.00    +0.000 A 
ATOM      5  C   UNL     1       2.803   2.971  21.191  0.00  0.00    +0.000 A 
ATOM      6  C   UNL     1       2.248   4.252  21.288  0.00  0.00    +0.000 A 
ATOM      7  C   UNL     1       2.471   5.195  20.261  0.00  0.00    +0.000 A 
ATOM      8  C   UNL     1       2.065   6.553  20.066  0.00  0.00    +0.000 A 
ATOM      9  C   UNL     1       1.312   7.468  20.831  0.00  0.00    +0.000 A 
ATOM     10  C   UNL     1       1.095   8.769  20.353  0.00  0.00    +0.000 A 
ATOM     11  C   UNL     1       1.581   9.154  19.108  0.00  0.00    +0.000 A 
ATOM     12  C   UNL     1       2.275   8.240  18.311  0.00  0.00    +0.000 A 
ATOM     13  C   UNL     1       2.554   6.963  18.827  0.00  0.00    +0.000 A 
ENDROOT
BRANCH   1  14
ATOM     14  C   UNL     1       4.171   6.031  17.150  0.00  0.00    +0.000 C 
BRANCH  14  15
ATOM     15  C   UNL     1       5.521   6.720  17.389  0.00  0.00    +0.000 C 
BRANCH  15  16
ATOM     16  C   UNL     1       6.705   5.971  16.775  0.00  0.00    +0.000 C 
BRANCH  16  17
ATOM     17  C   UNL     1       6.280   4.574  16.319  0.00  0.00    +0.000 C 
BRANCH  17  18
ATOM     18  C   UNL     1       6.702   4.310  14.875  0.00  0.00    +0.000 C 
BRANCH  18  19
ATOM     19  C   UNL     1       5.485   4.018  13.998  0.00  0.00    +0.000 C 
BRANCH  19  21
ATOM     20  C   UNL     1       4.698   3.283  11.726  0.00  0.00    +0.000 C 
ATOM     21  C   UNL     1       5.906   3.510  12.621  0.00  0.00    +0.000 C 
ENDBRANCH  19  21
ENDBRANCH  18  19
ENDBRANCH  17  18
ENDBRANCH  16  17
ENDBRANCH  15  16
ENDBRANCH  14  15
ENDBRANCH   1  14
BRANCH  11  22
ATOM     22  O   UNL     1       1.410  10.390  18.542  0.00  0.00    +0.000 OA
BRANCH  22  23
ATOM     23  C   UNL     1       0.237  11.102  18.959  0.00  0.00    +0.000 C 
BRANCH  23  24
ATOM     24  C   UNL     1      -0.956  10.497  18.223  0.00  0.00    +0.000 C 
BRANCH  24  25
ATOM     25  O   UNL     1      -1.410  11.387  17.203  0.00  0.00    +0.000 OA
ATOM     26  H   UNL     1      -0.751  11.328  16.486  0.00  0.00    +0.000 HD
ENDBRANCH  24  25
ENDBRANCH  23  24
ENDBRANCH  22  23
ENDBRANCH  11  22
TORSDOF 11
ENDMDL
MODEL 4
REMARK VINA RESULT:      -6.6      1.236      2.417
REMARK  Name = 
REMARK  12 active torsions:
REMARK  status: ('A' for Active; 'I' for Inactive)
REMARK    1  A    between atoms: C_1  and  C_2
REMARK    2  A    between atoms: C_2  and  C_3
REMARK    3  A    between atoms: C_3  and  C_4
REMARK    4  A    between atoms: C_4  and  C_5
REMARK    5  A    between atoms: C_5  and  C_6
REMARK    6  A    between atoms: C_6  and  C_7
REMARK    7  A    between atoms: C_7  and  C_8
REMARK    8  A    between atoms: C_8  and  N_9
REMARK    9  A    between atoms: C_19  and  O_20
REMARK   10  A    between atoms: O_20  and  C_21
REMARK   11  A    between atoms: C_21  and  C_22
REMARK   12  A    between atoms: C_22  and  O_23
REMARK                            x       y       z     vdW  Elec       q    Type
REMARK                         _______ _______ _______ _____ _____    ______ ____
ROOT
ATOM      1  N   UNL     1       3.209   5.929  19.940  0.00  0.00    +0.000 N 
ATOM      2  C   UNL     1       4.107   5.605  18.936  0.00  0.00    +0.000 A 
ATOM      3  C   UNL     1       5.036   4.556  18.819  0.00  0.00    +0.000 A 
ATOM      4  C   UNL     1       5.805   4.475  17.653  0.00  0.00    +0.000 A 
ATOM      5  C   UNL     1       5.653   5.405  16.632  0.00  0.00    +0.000 A 
ATOM      6  C   UNL     1       4.723   6.443  16.752  0.00  0.00    +0.000 A 
ATOM      7  C   UNL     1       3.937   6.551  17.920  0.00  0.00    +0.000 A 
ATOM      8  C   UNL     1       2.919   7.463  18.340  0.00  0.00    +0.000 A 
ATOM      9  C   UNL     1       2.298   8.580  17.742  0.00  0.00    +0.000 A 
ATOM     10  C   UNL     1       1.294   9.277  18.431  0.00  0.00    +0.000 A 
ATOM     11  C   UNL     1       0.932   8.901  19.720  0.00  0.00    +0.000 A 
ATOM     12  C   UNL     1       1.580   7.836  20.351  0.00  0.00    +0.000 A 
ATOM     13  C   UNL     1       2.531   7.096  19.629  0.00  0.00    +0.000 A 
ENDROOT
BRANCH   1  14
ATOM     14  C   UNL     1       2.942   5.120  21.118  0.00  0.00    +0.000 C 
BRANCH  14  15
ATOM     15  C   UNL     1       2.830   3.614  20.843  0.00  0.00    +0.000 C 
BRANCH  15  16
ATOM     16  C   UNL     1       1.459   3.031  21.189  0.00  0.00    +0.000 C 
BRANCH  16  17
ATOM     17  C   UNL     1       0.441   3.367  20.098  0.00  0.00    +0.000 C 
BRANCH  17  18
ATOM     18  C   UNL     1       0.796   2.683  18.780  0.00  0.00    +0.000 C 
BRANCH  18  19
ATOM     19  C   UNL     1       1.311   3.698  17.761  0.00  0.00    +0.000 C 
BRANCH  19  21
ATOM     20  C   UNL     1       3.078   1.914  17.642  0.00  0.00    +0.000 C 
ATOM     21  C   UNL     1       2.482   3.133  16.959  0.00  0.00    +0.000 C 
ENDBRANCH  19  21
ENDBRANCH  18  19
ENDBRANCH  17  18
ENDBRANCH  16  17
ENDBRANCH  15  16
ENDBRANCH  14  15
ENDBRANCH   1  14
BRANCH  11  22
ATOM     22  O   UNL     1      -0.020   9.522  20.485  0.00  0.00    +0.000 OA
BRANCH  22  23
ATOM     23  C   UNL     1      -0.424   8.811  21.664  0.00  0.00    +0.000 C 
BRANCH  23  24
ATOM     24  C   UNL     1      -0.563   9.829  22.793  0.00  0.00    +0.000 C 
BRANCH  24  25
ATOM     25  O   UNL     1       0.512   9.689  23.721  0.00  0.00    +0.000 OA
ATOM     26  H   UNL     1       0.160   9.154  24.458  0.00  0.00    +0.000 HD
ENDBRANCH  24  25
ENDBRANCH  23  24
ENDBRANCH  22  23
ENDBRANCH  11  22
TORSDOF 11
ENDMDL
MODEL 5
REMARK VINA RESULT:      -6.6      1.958      3.048
REMARK  Name = 
REMARK  12 active torsions:
REMARK  status: ('A' for Active; 'I' for Inactive)
REMARK    1  A    between atoms: C_1  and  C_2
REMARK    2  A    between atoms: C_2  and  C_3
REMARK    3  A    between atoms: C_3  and  C_4
REMARK    4  A    between atoms: C_4  and  C_5
REMARK    5  A    between atoms: C_5  and  C_6
REMARK    6  A    between atoms: C_6  and  C_7
REMARK    7  A    between atoms: C_7  and  C_8
REMARK    8  A    between atoms: C_8  and  N_9
REMARK    9  A    between atoms: C_19  and  O_20
REMARK   10  A    between atoms: O_20  and  C_21
REMARK   11  A    between atoms: C_21  and  C_22
REMARK   12  A    between atoms: C_22  and  O_23
REMARK                            x       y       z     vdW  Elec       q    Type
REMARK                         _______ _______ _______ _____ _____    ______ ____
ROOT
ATOM      1  N   UNL     1       2.941   6.195  19.803  0.00  0.00    +0.000 N 
ATOM      2  C   UNL     1       3.895   5.844  18.861  0.00  0.00    +0.000 A 
ATOM      3  C   UNL     1       4.773   4.748  18.787  0.00  0.00    +0.000 A 
ATOM      4  C   UNL     1       5.624   4.651  17.681  0.00  0.00    +0.000 A 
ATOM      5  C   UNL     1       5.601   5.609  16.675  0.00  0.00    +0.000 A 
ATOM      6  C   UNL     1       4.719   6.694  16.752  0.00  0.00    +0.000 A 
ATOM      7  C   UNL     1       3.854   6.819  17.860  0.00  0.00    +0.000 A 
ATOM      8  C   UNL     1       2.856   7.777  18.225  0.00  0.00    +0.000 A 
ATOM      9  C   UNL     1       2.343   8.938  17.611  0.00  0.00    +0.000 A 
ATOM     10  C   UNL     1       1.327   9.674  18.240  0.00  0.00    +0.000 A 
ATOM     11  C   UNL     1       0.848   9.291  19.488  0.00  0.00    +0.000 A 
ATOM     12  C   UNL     1       1.389   8.179  20.138  0.00  0.00    +0.000 A 
ATOM     13  C   UNL     1       2.352   7.404  19.471  0.00  0.00    +0.000 A 
ENDROOT
BRANCH   1  14
ATOM     14  C   UNL     1       2.542   5.376  20.936  0.00  0.00    +0.000 C 
BRANCH  14  15
ATOM     15  C   UNL     1       1.259   4.565  20.714  0.00  0.00    +0.000 C 
BRANCH  15  16
ATOM     16  C   UNL     1       1.319   3.155  21.302  0.00  0.00    +0.000 C 
BRANCH  16  17
ATOM     17  C   UNL     1       2.182   2.244  20.428  0.00  0.00    +0.000 C 
BRANCH  17  18
ATOM     18  C   UNL     1       1.584   2.089  19.031  0.00  0.00    +0.000 C 
BRANCH  18  19
ATOM     19  C   UNL     1       2.675   2.150  17.962  0.00  0.00    +0.000 C 
BRANCH  19  21
ATOM     20  C   UNL     1       1.269   4.150  17.377  0.00  0.00    +0.000 C 
ATOM     21  C   UNL     1       2.348   3.193  16.897  0.00  0.00    +0.000 C 
ENDBRANCH  19  21
ENDBRANCH  18  19
ENDBRANCH  17  18
ENDBRANCH  16  17
ENDBRANCH  15  16
ENDBRANCH  14  15
ENDBRANCH   1  14
BRANCH  11  22
ATOM     22  O   UNL     1      -0.126   9.947  20.195  0.00  0.00    +0.000 OA
BRANCH  22  23
ATOM     23  C   UNL     1      -0.306  11.330  19.859  0.00  0.00    +0.000 C 
BRANCH  23  24
ATOM     24  C   UNL     1      -1.752  11.509  19.403  0.00  0.00    +0.000 C 
BRANCH  24  25
ATOM     25  O   UNL     1      -1.910  12.765  18.743  0.00  0.00    +0.000 OA
ATOM     26  H   UNL     1      -2.667  12.655  18.138  0.00  0.00    +0.000 HD
ENDBRANCH  24  25
ENDBRANCH  23  24
ENDBRANCH  22  23
ENDBRANCH  11  22
TORSDOF 11
ENDMDL
MODEL 6
REMARK VINA RESULT:      -6.6      2.920      6.060
REMARK  Name = 
REMARK  12 active torsions:
REMARK  status: ('A' for Active; 'I' for Inactive)
REMARK    1  A    between atoms: C_1  and  C_2
REMARK    2  A    between atoms: C_2  and  C_3
REMARK    3  A    between atoms: C_3  and  C_4
REMARK    4  A    between atoms: C_4  and  C_5
REMARK    5  A    between atoms: C_5  and  C_6
REMARK    6  A    between atoms: C_6  and  C_7
REMARK    7  A    between atoms: C_7  and  C_8
REMARK    8  A    between atoms: C_8  and  N_9
REMARK    9  A    between atoms: C_19  and  O_20
REMARK   10  A    between atoms: O_20  and  C_21
REMARK   11  A    between atoms: C_21  and  C_22
REMARK   12  A    between atoms: C_22  and  O_23
REMARK                            x       y       z     vdW  Elec       q    Type
REMARK                         _______ _______ _______ _____ _____    ______ ____
ROOT
ATOM      1  N   UNL     1       3.282   5.974  18.426  0.00  0.00    +0.000 N 
ATOM      2  C   UNL     1       2.683   4.725  18.407  0.00  0.00    +0.000 A 
ATOM      3  C   UNL     1       1.431   4.283  18.871  0.00  0.00    +0.000 A 
ATOM      4  C   UNL     1       1.091   2.938  18.689  0.00  0.00    +0.000 A 
ATOM      5  C   UNL     1       1.964   2.059  18.061  0.00  0.00    +0.000 A 
ATOM      6  C   UNL     1       3.206   2.506  17.596  0.00  0.00    +0.000 A 
ATOM      7  C   UNL     1       3.577   3.857  17.772  0.00  0.00    +0.000 A 
ATOM      8  C   UNL     1       4.738   4.613  17.414  0.00  0.00    +0.000 A 
ATOM      9  C   UNL     1       5.934   4.305  16.734  0.00  0.00    +0.000 A 
ATOM     10  C   UNL     1       6.900   5.302  16.527  0.00  0.00    +0.000 A 
ATOM     11  C   UNL     1       6.706   6.586  17.024  0.00  0.00    +0.000 A 
ATOM     12  C   UNL     1       5.555   6.891  17.755  0.00  0.00    +0.000 A 
ATOM     13  C   UNL     1       4.558   5.910  17.893  0.00  0.00    +0.000 A 
ENDROOT
BRANCH   1  14
ATOM     14  C   UNL     1       2.637   7.204  18.858  0.00  0.00    +0.000 C 
BRANCH  14  15
ATOM     15  C   UNL     1       2.456   8.250  17.750  0.00  0.00    +0.000 C 
BRANCH  15  16
ATOM     16  C   UNL     1       1.191   9.095  17.910  0.00  0.00    +0.000 C 
BRANCH  16  17
ATOM     17  C   UNL     1       1.490  10.364  18.709  0.00  0.00    +0.000 C 
BRANCH  17  18
ATOM     18  C   UNL     1       0.324  10.730  19.625  0.00  0.00    +0.000 C 
BRANCH  18  19
ATOM     19  C   UNL     1      -0.071   9.544  20.505  0.00  0.00    +0.000 C 
BRANCH  19  21
ATOM     20  C   UNL     1       0.077   9.490  23.014  0.00  0.00    +0.000 C 
ATOM     21  C   UNL     1       0.857   9.417  21.711  0.00  0.00    +0.000 C 
ENDBRANCH  19  21
ENDBRANCH  18  19
ENDBRANCH  17  18
ENDBRANCH  16  17
ENDBRANCH  15  16
ENDBRANCH  14  15
ENDBRANCH   1  14
BRANCH  11  22
ATOM     22  O   UNL     1       7.589   7.625  16.894  0.00  0.00    +0.000 OA
BRANCH  22  23
ATOM     23  C   UNL     1       8.219   8.056  18.109  0.00  0.00    +0.000 C 
BRANCH  23  24
ATOM     24  C   UNL     1       8.378   9.572  18.034  0.00  0.00    +0.000 C 
BRANCH  24  25
ATOM     25  O   UNL     1       9.146  10.043  19.141  0.00  0.00    +0.000 OA
ATOM     26  H   UNL     1       9.988   9.551  19.110  0.00  0.00    +0.000 HD
ENDBRANCH  24  25
ENDBRANCH  23  24
ENDBRANCH  22  23
ENDBRANCH  11  22
TORSDOF 11
ENDMDL
MODEL 7
REMARK VINA RESULT:      -6.5      1.390      2.483
REMARK  Name = 
REMARK  12 active torsions:
REMARK  status: ('A' for Active; 'I' for Inactive)
REMARK    1  A    between atoms: C_1  and  C_2
REMARK    2  A    between atoms: C_2  and  C_3
REMARK    3  A    between atoms: C_3  and  C_4
REMARK    4  A    between atoms: C_4  and  C_5
REMARK    5  A    between atoms: C_5  and  C_6
REMARK    6  A    between atoms: C_6  and  C_7
REMARK    7  A    between atoms: C_7  and  C_8
REMARK    8  A    between atoms: C_8  and  N_9
REMARK    9  A    between atoms: C_19  and  O_20
REMARK   10  A    between atoms: O_20  and  C_21
REMARK   11  A    between atoms: C_21  and  C_22
REMARK   12  A    between atoms: C_22  and  O_23
REMARK                            x       y       z     vdW  Elec       q    Type
REMARK                         _______ _______ _______ _____ _____    ______ ____
ROOT
ATOM      1  N   UNL     1       3.012   6.130  19.456  0.00  0.00    +0.000 N 
ATOM      2  C   UNL     1       3.841   5.968  18.357  0.00  0.00    +0.000 A 
ATOM      3  C   UNL     1       4.701   4.921  17.984  0.00  0.00    +0.000 A 
ATOM      4  C   UNL     1       5.408   5.036  16.782  0.00  0.00    +0.000 A 
ATOM      5  C   UNL     1       5.260   6.154  15.971  0.00  0.00    +0.000 A 
ATOM      6  C   UNL     1       4.397   7.190  16.344  0.00  0.00    +0.000 A 
ATOM      7  C   UNL     1       3.677   7.103  17.555  0.00  0.00    +0.000 A 
ATOM      8  C   UNL     1       2.734   7.961  18.203  0.00  0.00    +0.000 A 
ATOM      9  C   UNL     1       2.150   9.201  17.871  0.00  0.00    +0.000 A 
ATOM     10  C   UNL     1       1.222   9.795  18.739  0.00  0.00    +0.000 A 
ATOM     11  C   UNL     1       0.902   9.191  19.950  0.00  0.00    +0.000 A 
ATOM     12  C   UNL     1       1.518   7.993  20.323  0.00  0.00    +0.000 A 
ATOM     13  C   UNL     1       2.388   7.366  19.416  0.00  0.00    +0.000 A 
ENDROOT
BRANCH   1  14
ATOM     14  C   UNL     1       2.757   5.118  20.468  0.00  0.00    +0.000 C 
BRANCH  14  15
ATOM     15  C   UNL     1       1.286   4.700  20.591  0.00  0.00    +0.000 C 
BRANCH  15  16
ATOM     16  C   UNL     1       0.944   3.432  19.807  0.00  0.00    +0.000 C 
BRANCH  16  17
ATOM     17  C   UNL     1       1.114   3.667  18.305  0.00  0.00    +0.000 C 
BRANCH  17  18
ATOM     18  C   UNL     1       2.130   2.698  17.704  0.00  0.00    +0.000 C 
BRANCH  18  19
ATOM     19  C   UNL     1       2.505   1.610  18.710  0.00  0.00    +0.000 C 
BRANCH  19  21
ATOM     20  C   UNL     1       4.530   1.991  20.150  0.00  0.00    +0.000 C 
ATOM     21  C   UNL     1       4.021   1.458  18.821  0.00  0.00    +0.000 C 
ENDBRANCH  19  21
ENDBRANCH  18  19
ENDBRANCH  17  18
ENDBRANCH  16  17
ENDBRANCH  15  16
ENDBRANCH  14  15
ENDBRANCH   1  14
BRANCH  11  22
ATOM     22  O   UNL     1       0.025   9.693  20.875  0.00  0.00    +0.000 OA
BRANCH  22  23
ATOM     23  C   UNL     1      -0.421  11.036  20.637  0.00  0.00    +0.000 C 
BRANCH  23  24
ATOM     24  C   UNL     1      -0.453  11.757  21.983  0.00  0.00    +0.000 C 
BRANCH  24  25
ATOM     25  O   UNL     1      -0.257  10.826  23.047  0.00  0.00    +0.000 OA
ATOM     26  H   UNL     1      -0.658   9.988  22.746  0.00  0.00    +0.000 HD
ENDBRANCH  24  25
ENDBRANCH  23  24
ENDBRANCH  22  23
ENDBRANCH  11  22
TORSDOF 11
ENDMDL
MODEL 8
REMARK VINA RESULT:      -6.5      2.394      5.567
REMARK  Name = 
REMARK  12 active torsions:
REMARK  status: ('A' for Active; 'I' for Inactive)
REMARK    1  A    between atoms: C_1  and  C_2
REMARK    2  A    between atoms: C_2  and  C_3
REMARK    3  A    between atoms: C_3  and  C_4
REMARK    4  A    between atoms: C_4  and  C_5
REMARK    5  A    between atoms: C_5  and  C_6
REMARK    6  A    between atoms: C_6  and  C_7
REMARK    7  A    between atoms: C_7  and  C_8
REMARK    8  A    between atoms: C_8  and  N_9
REMARK    9  A    between atoms: C_19  and  O_20
REMARK   10  A    between atoms: O_20  and  C_21
REMARK   11  A    between atoms: C_21  and  C_22
REMARK   12  A    between atoms: C_22  and  O_23
REMARK                            x       y       z     vdW  Elec       q    Type
REMARK                         _______ _______ _______ _____ _____    ______ ____
ROOT
ATOM      1  N   UNL     1       3.411   5.957  18.303  0.00  0.00    +0.000 N 
ATOM      2  C   UNL     1       3.288   4.875  19.160  0.00  0.00    +0.000 A 
ATOM      3  C   UNL     1       3.849   3.586  19.122  0.00  0.00    +0.000 A 
ATOM      4  C   UNL     1       3.551   2.699  20.162  0.00  0.00    +0.000 A 
ATOM      5  C   UNL     1       2.726   3.082  21.212  0.00  0.00    +0.000 A 
ATOM      6  C   UNL     1       2.176   4.368  21.248  0.00  0.00    +0.000 A 
ATOM      7  C   UNL     1       2.456   5.281  20.208  0.00  0.00    +0.000 A 
ATOM      8  C   UNL     1       2.069   6.635  19.957  0.00  0.00    +0.000 A 
ATOM      9  C   UNL     1       1.288   7.576  20.660  0.00  0.00    +0.000 A 
ATOM     10  C   UNL     1       1.102   8.865  20.137  0.00  0.00    +0.000 A 
ATOM     11  C   UNL     1       1.650   9.212  18.907  0.00  0.00    +0.000 A 
ATOM     12  C   UNL     1       2.375   8.273  18.169  0.00  0.00    +0.000 A 
ATOM     13  C   UNL     1       2.620   7.009  18.732  0.00  0.00    +0.000 A 
ENDROOT
BRANCH   1  14
ATOM     14  C   UNL     1       4.308   6.022  17.160  0.00  0.00    +0.000 C 
BRANCH  14  15
ATOM     15  C   UNL     1       5.783   6.241  17.522  0.00  0.00    +0.000 C 
BRANCH  15  16
ATOM     16  C   UNL     1       6.753   5.478  16.619  0.00  0.00    +0.000 C 
BRANCH  16  17
ATOM     17  C   UNL     1       6.197   5.376  15.197  0.00  0.00    +0.000 C 
BRANCH  17  18
ATOM     18  C   UNL     1       6.223   3.935  14.694  0.00  0.00    +0.000 C 
BRANCH  18  19
ATOM     19  C   UNL     1       5.432   3.798  13.394  0.00  0.00    +0.000 C 
BRANCH  19  21
ATOM     20  C   UNL     1       7.282   4.400  11.801  0.00  0.00    +0.000 C 
ATOM     21  C   UNL     1       6.323   3.311  12.253  0.00  0.00    +0.000 C 
ENDBRANCH  19  21
ENDBRANCH  18  19
ENDBRANCH  17  18
ENDBRANCH  16  17
ENDBRANCH  15  16
ENDBRANCH  14  15
ENDBRANCH   1  14
BRANCH  11  22
ATOM     22  O   UNL     1       1.516  10.433  18.300  0.00  0.00    +0.000 OA
BRANCH  22  23
ATOM     23  C   UNL     1       1.316  11.544  19.186  0.00  0.00    +0.000 C 
BRANCH  23  24
ATOM     24  C   UNL     1       2.202  12.688  18.700  0.00  0.00    +0.000 C 
BRANCH  24  25
ATOM     25  O   UNL     1       2.595  12.467  17.346  0.00  0.00    +0.000 OA
ATOM     26  H   UNL     1       1.824  12.715  16.801  0.00  0.00    +0.000 HD
ENDBRANCH  24  25
ENDBRANCH  23  24
ENDBRANCH  22  23
ENDBRANCH  11  22
TORSDOF 11
ENDMDL
MODEL 9
REMARK VINA RESULT:      -6.5      3.324      6.462
REMARK  Name = 
REMARK  12 active torsions:
REMARK  status: ('A' for Active; 'I' for Inactive)
REMARK    1  A    between atoms: C_1  and  C_2
REMARK    2  A    between atoms: C_2  and  C_3
REMARK    3  A    between atoms: C_3  and  C_4
REMARK    4  A    between atoms: C_4  and  C_5
REMARK    5  A    between atoms: C_5  and  C_6
REMARK    6  A    between atoms: C_6  and  C_7
REMARK    7  A    between atoms: C_7  and  C_8
REMARK    8  A    between atoms: C_8  and  N_9
REMARK    9  A    between atoms: C_19  and  O_20
REMARK   10  A    between atoms: O_20  and  C_21
REMARK   11  A    between atoms: C_21  and  C_22
REMARK   12  A    between atoms: C_22  and  O_23
REMARK                            x       y       z     vdW  Elec       q    Type
REMARK                         _______ _______ _______ _____ _____    ______ ____
ROOT
ATOM      1  N   UNL     1       3.350   5.621  18.656  0.00  0.00    +0.000 N 
ATOM      2  C   UNL     1       2.624   4.442  18.655  0.00  0.00    +0.000 A 
ATOM      3  C   UNL     1       1.406   4.095  19.267  0.00  0.00    +0.000 A 
ATOM      4  C   UNL     1       0.902   2.806  19.063  0.00  0.00    +0.000 A 
ATOM      5  C   UNL     1       1.583   1.890  18.273  0.00  0.00    +0.000 A 
ATOM      6  C   UNL     1       2.791   2.242  17.662  0.00  0.00    +0.000 A 
ATOM      7  C   UNL     1       3.326   3.535  17.855  0.00  0.00    +0.000 A 
ATOM      8  C   UNL     1       4.502   4.194  17.378  0.00  0.00    +0.000 A 
ATOM      9  C   UNL     1       5.556   3.816  16.521  0.00  0.00    +0.000 A 
ATOM     10  C   UNL     1       6.587   4.724  16.234  0.00  0.00    +0.000 A 
ATOM     11  C   UNL     1       6.600   5.985  16.821  0.00  0.00    +0.000 A 
ATOM     12  C   UNL     1       5.597   6.352  17.722  0.00  0.00    +0.000 A 
ATOM     13  C   UNL     1       4.529   5.467  17.947  0.00  0.00    +0.000 A 
ENDROOT
BRANCH   1  14
ATOM     14  C   UNL     1       2.906   6.877  19.240  0.00  0.00    +0.000 C 
BRANCH  14  15
ATOM     15  C   UNL     1       2.181   7.811  18.262  0.00  0.00    +0.000 C 
BRANCH  15  16
ATOM     16  C   UNL     1       1.530   9.018  18.940  0.00  0.00    +0.000 C 
BRANCH  16  17
ATOM     17  C   UNL     1       0.559   9.713  17.984  0.00  0.00    +0.000 C 
BRANCH  17  18
ATOM     18  C   UNL     1      -0.447  10.574  18.744  0.00  0.00    +0.000 C 
BRANCH  18  19
ATOM     19  C   UNL     1      -1.624  10.956  17.848  0.00  0.00    +0.000 C 
BRANCH  19  21
ATOM     20  C   UNL     1      -2.694  10.254  15.684  0.00  0.00    +0.000 C 
ATOM     21  C   UNL     1      -2.066   9.778  16.983  0.00  0.00    +0.000 C 
ENDBRANCH  19  21
ENDBRANCH  18  19
ENDBRANCH  17  18
ENDBRANCH  16  17
ENDBRANCH  15  16
ENDBRANCH  14  15
ENDBRANCH   1  14
BRANCH  11  22
ATOM     22  O   UNL     1       7.565   6.938  16.623  0.00  0.00    +0.000 OA
BRANCH  22  23
ATOM     23  C   UNL     1       7.387   8.157  17.358  0.00  0.00    +0.000 C 
BRANCH  23  24
ATOM     24  C   UNL     1       8.501   8.236  18.398  0.00  0.00    +0.000 C 
BRANCH  24  25
ATOM     25  O   UNL     1       8.768   9.597  18.735  0.00  0.00    +0.000 OA
ATOM     26  H   UNL     1       9.727   9.647  18.903  0.00  0.00    +0.000 HD
ENDBRANCH  24  25
ENDBRANCH  23  24
ENDBRANCH  22  23
ENDBRANCH  11  22
TORSDOF 11
ENDMDL
